REMARK  7 active torsions:
REMARK  status: ('A' for Active; 'I' for Inactive)
REMARK    1  A    between atoms: N6_4  and  C15_15 
REMARK    2  A    between atoms: C7_7  and  N1_26 
REMARK    3  A    between atoms: C7_7  and  C4_22 
REMARK    4  A    between atoms: C13_13  and  N3_29 
REMARK    5  A    between atoms: C16_16  and  C19_17 
REMARK    6  A    between atoms: N3_29  and  C17_33 
REMARK    7  A    between atoms: N7_37  and  N8_39 
ROOT
HETATM    1  C15 HYZ A   1      14.124  33.645  88.264  1.00 31.82     0.115 A 
HETATM    2  C16 HYZ A   1      15.391  33.719  88.896  1.00 33.40     0.068 A 
HETATM    3  N4  HYZ A   1      12.954  33.963  88.911  1.00 31.48    -0.338 N 
ATOM      4  H4  HYZ A   1      12.054  33.907  88.435  1.00  0.00     0.168 HD
HETATM    5  C17 HYZ A   1      15.391  34.120  90.231  1.00 31.53     0.122 A 
HETATM    6  N5  HYZ A   1      14.212  34.444  90.892  1.00 30.04    -0.338 N 
ATOM      7  H5  HYZ A   1      14.223  34.742  91.867  1.00  0.00     0.168 HD
HETATM    8  C18 HYZ A   1      13.041  34.352  90.201  1.00 31.32     0.183 A 
ENDROOT
BRANCH   5   9
HETATM    9  N3  HYZ A   1      16.525  34.248  91.037  1.00 27.61    -0.342 N 
ATOM     10  H3  HYZ A   1      17.413  34.076  90.566  1.00  0.00     0.167 HD
BRANCH   9  11
HETATM   11  C13 HYZ A   1      16.625  34.574  92.382  1.00 28.21     0.034 A 
HETATM   12  C14 HYZ A   1      15.965  33.817  93.403  1.00 26.85     0.044 A 
HETATM   13  C9  HYZ A   1      16.075  34.221  94.756  1.00 28.62     0.011 A 
HETATM   14  C8  HYZ A   1      15.585  33.760  95.994  1.00 27.63     0.121 A 
HETATM   15  C10 HYZ A   1      16.840  35.358  95.070  1.00 28.78     0.062 A 
HETATM   16  N2  HYZ A   1      15.971  34.519  97.019  1.00 29.65    -0.308 N 
HETATM   17  N1  HYZ A   1      16.731  35.493  96.434  1.00 29.97    -0.288 N 
ATOM     18  H2  HYZ A   1      15.751  34.401  98.008  1.00  0.00     0.186 HD
HETATM   19  C11 HYZ A   1      17.514  36.129  94.076  1.00 29.95     0.034 A 
HETATM   20  C12 HYZ A   1      17.390  35.712  92.735  1.00 28.59     0.032 A 
BRANCH  17  21
HETATM   21  C7  HYZ A   1      17.323  36.558  97.260  1.00 29.70     0.187 C 
BRANCH  21  22
HETATM   22  C4  HYZ A   1      16.419  37.808  97.209  1.00 28.26    -0.035 A 
HETATM   23  C5  HYZ A   1      15.083  37.730  96.675  1.00 27.89     0.051 A 
HETATM   24  C6  HYZ A   1      14.256  38.869  96.625  1.00 27.99     0.117 A 
HETATM   25  F1  HYZ A   1      13.011  38.756  96.118  1.00 30.98    -0.206 F 
HETATM   26  C1  HYZ A   1      14.718  40.116  97.099  1.00 26.58     0.042 A 
HETATM   27  C2  HYZ A   1      16.031  40.222  97.632  1.00 26.39     0.004 A 
HETATM   28  C3  HYZ A   1      16.878  39.076  97.686  1.00 26.49     0.009 A 
ENDBRANCH  21  22
ENDBRANCH  17  21
ENDBRANCH   9  11
ENDBRANCH   5   9
BRANCH   2  29
HETATM   29  C19 HYZ A   1      16.644  33.395  88.186  1.00 36.43     0.120 C 
HETATM   30  N7  HYZ A   1      16.900  32.290  87.559  1.00 46.14    -0.329 N 
ATOM     31  H7  HYZ A   1      16.266  31.493  87.501  1.00  0.00     0.180 HD
BRANCH  30  32
HETATM   32  N8  HYZ A   1      18.146  32.344  86.984  1.00 50.47    -0.232 NA
HETATM   33  C21 HYZ A   1      18.127  31.934  85.537  1.00 51.73     0.113 C 
HETATM   34  C20 HYZ A   1      19.509  31.997  84.858  1.00 52.96     0.016 C 
HETATM   35  C24 HYZ A   1      20.554  31.190  85.635  1.00 54.58     0.002 C 
HETATM   36  C23 HYZ A   1      20.573  31.596  87.112  1.00 53.73     0.016 C 
HETATM   37  C22 HYZ A   1      19.167  31.524  87.740  1.00 52.67     0.113 C 
ENDBRANCH  30  32
ENDBRANCH   2  29
BRANCH   1  38
HETATM   38  N6  HYZ A   1      13.967  33.258  86.949  1.00 30.41    -0.385 N 
ATOM     39  H62 HYZ A   1      13.055  33.205  86.494  1.00  0.00     0.157 HD
ATOM     40  H61 HYZ A   1      14.835  33.022  86.469  1.00  0.00     0.157 HD
ENDBRANCH   1  38
TORSDOF 7
