REMARK  Name = ZINC54006614
REMARK  6 active torsions:
REMARK  status: ('A' for Active; 'I' for Inactive)
REMARK    1  A    between atoms: C_1  and  C_2
REMARK    2  A    between atoms: C_3  and  N_9
REMARK    3  A    between atoms: N_12  and  C_13
REMARK    4  A    between atoms: C_13  and  C_15
REMARK    5  A    between atoms: C_13  and  C_21
REMARK    6  A    between atoms: N_25  and  C_26
REMARK                            x       y       z     vdW  Elec       q    Type
REMARK                         _______ _______ _______ _____ _____    ______ ____
ROOT
ATOM      1  N   UNL     1      -0.010   0.011  -2.413  0.00  0.00    -0.269 N 
ATOM      2  C   UNL     1       0.095  -0.653  -3.581  0.00  0.00    +0.305 C 
ATOM      3  O   UNL     1       0.112  -1.869  -3.590  0.00  0.00    -0.252 OA
ATOM      4  N   UNL     1       0.182   0.030  -4.740  0.00  0.00    -0.285 N 
ATOM      5  H   UNL     1      -0.106   0.977  -2.411  0.00  0.00    +0.156 HD
ATOM      6  H   UNL     1       0.168   1.000  -4.733  0.00  0.00    +0.151 HD
ENDROOT
BRANCH   1   9
ATOM      7  C   UNL     1      -1.262   1.188  -0.145  0.00  0.00    +0.047 C 
ATOM      8  C   UNL     1      -0.580  -0.153  -0.072  0.00  0.00    -0.011 A 
ATOM      9  C   UNL     1       0.019  -0.691  -1.203  0.00  0.00    +0.039 A 
ATOM     10  C   UNL     1       0.646  -1.928  -1.132  0.00  0.00    +0.024 A 
ATOM     11  C   UNL     1       0.673  -2.620   0.063  0.00  0.00    +0.003 A 
ATOM     12  C   UNL     1       0.076  -2.083   1.188  0.00  0.00    +0.020 A 
ATOM     13  C   UNL     1      -0.546  -0.848   1.123  0.00  0.00    +0.046 A 
ATOM     14 CL   UNL     1      -1.287  -0.173   2.540  0.00  0.00    -0.083 Cl
ENDBRANCH   1   9
BRANCH   4  15
ATOM     15  C   UNL     1       0.296  -0.692  -6.009  0.00  0.00    +0.171 C 
BRANCH  15  16
ATOM     16  C   UNL     1       0.971   0.189  -7.029  0.00  0.00    -0.020 A 
ATOM     17  C   UNL     1       0.668   1.536  -7.087  0.00  0.00    +0.006 A 
ATOM     18  C   UNL     1       1.288   2.344  -8.022  0.00  0.00    +0.000 A 
ATOM     19  C   UNL     1       2.209   1.805  -8.900  0.00  0.00    +0.000 A 
ATOM     20  C   UNL     1       2.513   0.457  -8.841  0.00  0.00    +0.000 A 
ATOM     21  C   UNL     1       1.897  -0.350  -7.903  0.00  0.00    +0.006 A 
ENDBRANCH  15  16
BRANCH  15  22
ATOM     22  C   UNL     1      -1.079  -1.066  -6.500  0.00  0.00    +0.134 A 
ATOM     23  N   UNL     1      -2.119  -0.278  -6.523  0.00  0.00    -0.238 NA
ATOM     24  C   UNL     1      -3.169  -0.946  -7.023  0.00  0.00    +0.130 A 
ATOM     25  C   UNL     1      -2.764  -2.196  -7.320  0.00  0.00    +0.106 A 
ATOM     26  N   UNL     1      -1.437  -2.271  -6.994  0.00  0.00    -0.336 N 
ATOM     27  C   UNL     1      -0.569  -3.440  -7.149  0.00  0.00    +0.150 C 
ENDBRANCH  15  22
ENDBRANCH   4  15
TORSDOF 4
