REMARK  Name = ZINC39687305
REMARK  10 active torsions:
REMARK  status: ('A' for Active; 'I' for Inactive)
REMARK    1  A    between atoms: C_1  and  C_2
REMARK    2  A    between atoms: C_2  and  C_3
REMARK    3  A    between atoms: C_3  and  C_5
REMARK    4  A    between atoms: C_3  and  C_6
REMARK    5  A    between atoms: C_6  and  C_7
REMARK    6  A    between atoms: C_11  and  C_20
REMARK    7  A    between atoms: N_22  and  C_23
REMARK    8  A    between atoms: C_23  and  C_25
REMARK    9  A    between atoms: C_23  and  C_32
REMARK   10  A    between atoms: C_25  and  C_26
REMARK                            x       y       z     vdW  Elec       q    Type
REMARK                         _______ _______ _______ _____ _____    ______ ____
ROOT
ATOM      1  C   UNL     1      -0.322  -5.946  -2.941  0.00  0.00    +0.219 C 
ATOM      2  O   UNL     1      -0.862  -7.014  -3.137  0.00  0.00    -0.275 OA
ATOM      3  N   UNL     1      -1.055  -4.816  -2.908  0.00  0.00    -0.303 N 
ATOM      4  H   UNL     1      -0.623  -3.961  -2.751  0.00  0.00    +0.149 HD
ENDROOT
BRANCH   1   9
ATOM      5  C   UNL     1       1.435  -2.448  -1.617  0.00  0.00    +0.216 C 
ATOM      6  O   UNL     1       1.733  -1.439  -2.219  0.00  0.00    -0.276 OA
ATOM      7  N   UNL     1       1.786  -3.654  -2.107  0.00  0.00    -0.300 N 
ATOM      8  C   UNL     1       1.509  -4.987  -1.523  0.00  0.00    +0.121 C 
ATOM      9  C   UNL     1       1.170  -5.882  -2.736  0.00  0.00    +0.100 C 
ATOM     10  C   UNL     1       1.849  -5.194  -3.932  0.00  0.00    -0.004 C 
ATOM     11  C   UNL     1       2.531  -3.946  -3.355  0.00  0.00    +0.115 C 
ATOM     12  C   UNL     1       0.806  -4.786  -4.969  0.00  0.00    -0.010 C 
ATOM     13  C   UNL     1       1.510  -4.156  -6.174  0.00  0.00    -0.082 C 
ATOM     14  N   UNL     1       2.453  -5.122  -6.752  0.00  0.00    +0.379 N 
ATOM     15  C   UNL     1       3.506  -5.438  -5.779  0.00  0.00    -0.082 C 
ATOM     16  C   UNL     1       2.886  -6.122  -4.558  0.00  0.00    -0.010 C 
ATOM     17  H   UNL     1       1.958  -5.966  -6.997  0.00  0.00    -0.086 HD
ATOM     18  H   UNL     1       2.870  -4.727  -7.581  0.00  0.00    -0.086 HD
BRANCH   5  19
ATOM     19  C   UNL     1       0.672  -2.355  -0.320  0.00  0.00    +0.099 C 
BRANCH  19  20
ATOM     20  C   UNL     1       0.402  -0.885   0.007  0.00  0.00    -0.006 C 
ATOM     21  C   UNL     1      -0.527  -0.289  -1.052  0.00  0.00    +0.008 C 
BRANCH  20  23
ATOM     22  C   UNL     1      -0.418   0.690   1.765  0.00  0.00    +0.004 C 
ATOM     23  C   UNL     1      -0.261  -0.783   1.383  0.00  0.00    +0.000 C 
ENDBRANCH  20  23
ENDBRANCH  19  20
ENDBRANCH   5  19
ENDBRANCH   1   9
BRANCH   3  24
ATOM     24  C   UNL     1      -2.505  -4.878  -3.107  0.00  0.00    +0.163 C 
BRANCH  24  25
ATOM     25  C   UNL     1      -2.997  -3.552  -3.628  0.00  0.00    +0.236 C 
ATOM     26  O   UNL     1      -2.333  -2.551  -3.463  0.00  0.00    -0.274 OA
ATOM     27  N   UNL     1      -4.176  -3.479  -4.278  0.00  0.00    -0.300 N 
ATOM     28  C   UNL     1      -4.943  -4.696  -4.576  0.00  0.00    +0.108 C 
ATOM     29  C   UNL     1      -6.366  -4.527  -4.033  0.00  0.00    +0.019 C 
ATOM     30  C   UNL     1      -6.976  -3.244  -4.603  0.00  0.00    +0.003 C 
ATOM     31  C   UNL     1      -6.143  -2.040  -4.158  0.00  0.00    +0.019 C 
ATOM     32  C   UNL     1      -4.721  -2.180  -4.697  0.00  0.00    +0.108 C 
ENDBRANCH  24  25
BRANCH  24  33
ATOM     33  C   UNL     1      -3.191  -5.188  -1.775  0.00  0.00    +0.067 C 
BRANCH  33  34
ATOM     34  C   UNL     1      -2.817  -6.579  -1.330  0.00  0.00    -0.045 A 
ATOM     35  C   UNL     1      -3.586  -7.659  -1.719  0.00  0.00    +0.004 A 
ATOM     36  C   UNL     1      -3.244  -8.934  -1.311  0.00  0.00    +0.000 A 
ATOM     37  C   UNL     1      -2.131  -9.130  -0.514  0.00  0.00    +0.000 A 
ATOM     38  C   UNL     1      -1.361  -8.049  -0.125  0.00  0.00    +0.000 A 
ATOM     39  C   UNL     1      -1.702  -6.774  -0.537  0.00  0.00    +0.004 A 
ENDBRANCH  33  34
ENDBRANCH  24  33
ENDBRANCH   3  24
TORSDOF 8
