REMARK  Name = ZINC63511542
REMARK  8 active torsions:
REMARK  status: ('A' for Active; 'I' for Inactive)
REMARK    1  A    between atoms: C_1  and  C_2
REMARK    2  A    between atoms: C_4  and  C_7
REMARK    3  A    between atoms: C_7  and  N_12
REMARK    4  A    between atoms: N_12  and  C_13
REMARK    5  A    between atoms: C_13  and  C_14
REMARK    6  A    between atoms: C_14  and  C_15
REMARK    7  A    between atoms: N_17  and  C_18
REMARK    8  A    between atoms: C_19  and  C_27
REMARK                            x       y       z     vdW  Elec       q    Type
REMARK                         _______ _______ _______ _____ _____    ______ ____
ROOT
ATOM      1  C   UNL     1      -4.308  -1.813   2.140  0.00  0.00    +0.077 C 
ENDROOT
BRANCH   1   2
ATOM      2  C   UNL     1      -5.109  -0.544   2.006  0.00  0.00    +0.216 C 
ATOM      3  O   UNL     1      -4.909   0.204   1.072  0.00  0.00    -0.276 OA
ATOM      4  N   UNL     1      -6.048  -0.240   2.924  0.00  0.00    -0.279 N 
ATOM      5  H   UNL     1      -6.208  -0.838   3.670  0.00  0.00    +0.155 HD
BRANCH   4   6
ATOM      6  C   UNL     1      -6.786   0.929   2.800  0.00  0.00    +0.090 A 
ATOM      7  C   UNL     1      -7.779   1.402   3.642  0.00  0.00    +0.084 A 
ATOM      8  C   UNL     1      -8.404   2.664   3.289  0.00  0.00    -0.018 A 
ATOM      9  C   UNL     1      -7.922   3.222   2.157  0.00  0.00    -0.004 A 
ATOM     10  S   UNL     1      -6.676   2.097   1.599  0.00  0.00    -0.077 S 
ATOM     11  C   UNL     1      -8.358   4.511   1.532  0.00  0.00    +0.043 C 
ATOM     12  C   UNL     1      -9.697   4.923   2.163  0.00  0.00    +0.005 C 
ATOM     13  C   UNL     1      -9.584   4.809   3.686  0.00  0.00    +0.005 C 
ATOM     14  C   UNL     1      -9.507   3.336   4.094  0.00  0.00    +0.037 C 
BRANCH   7  15
ATOM     15  C   UNL     1      -8.172   0.677   4.812  0.00  0.00    +0.102 C 
ATOM     16  N   UNL     1      -8.485   0.101   5.741  0.00  0.00    -0.191 NA
ENDBRANCH   7  15
ENDBRANCH   4   6
ENDBRANCH   1   2
BRANCH   1  17
ATOM     17  C   UNL     1      -3.319  -1.917   0.978  0.00  0.00    -0.072 C 
BRANCH  17  18
ATOM     18  N   UNL     1      -2.537  -3.154   1.109  0.00  0.00    +0.388 N 
ATOM     19  H   UNL     1      -3.160  -3.949   1.093  0.00  0.00    -0.084 HD
ATOM     20  H   UNL     1      -2.031  -3.142   1.981  0.00  0.00    -0.084 HD
BRANCH  18  21
ATOM     21  C   UNL     1      -1.588  -3.254  -0.008  0.00  0.00    -0.004 C 
ATOM     22  C   UNL     1      -2.350  -3.329  -1.347  0.00  0.00    -0.005 C 
ATOM     23  C   UNL     1      -1.519  -4.316  -2.203  0.00  0.00    -0.001 C 
ATOM     24  C   UNL     1      -1.071  -5.375  -1.166  0.00  0.00    -0.001 C 
ATOM     25  C   UNL     1      -0.774  -4.555   0.107  0.00  0.00    -0.005 C 
BRANCH  21  29
ATOM     26  C   UNL     1      -0.018   1.503   0.010  0.00  0.00    +0.112 C 
ATOM     27  C   UNL     1       0.002  -0.004   0.002  0.00  0.00    +0.224 A 
ATOM     28  N   UNL     1      -1.044  -0.783   0.003  0.00  0.00    -0.198 NA
ATOM     29  C   UNL     1      -0.663  -2.065  -0.006  0.00  0.00    +0.161 A 
ATOM     30  N   UNL     1       0.638  -2.118  -0.012  0.00  0.00    -0.063 NA
ATOM     31  O   UNL     1       1.097  -0.774  -0.013  0.00  0.00    -0.338 OA
ENDBRANCH  21  29
ENDBRANCH  18  21
ENDBRANCH  17  18
ENDBRANCH   1  17
TORSDOF 7
