REMARK  Name = ZINC04869190
REMARK  5 active torsions:
REMARK  status: ('A' for Active; 'I' for Inactive)
REMARK    1  A    between atoms: C_1  and  C_2
REMARK    2  A    between atoms: C_6  and  C_8
REMARK    3  A    between atoms: C_8  and  N_9
REMARK    4  A    between atoms: C_16  and  C_19
REMARK    5  A    between atoms: C_16  and  O_29
REMARK                            x       y       z     vdW  Elec       q    Type
REMARK                         _______ _______ _______ _____ _____    ______ ____
ROOT
ATOM      1  N   UNL     1      -1.106   1.992   0.017  0.00  0.00    -0.264 N 
ATOM      2  C   UNL     1      -0.782   3.349   0.028  0.00  0.00    +0.043 A 
ATOM      3  C   UNL     1      -1.597   4.480   0.041  0.00  0.00    +0.024 A 
ATOM      4  C   UNL     1      -1.033   5.739   0.043  0.00  0.00    +0.002 A 
ATOM      5  C   UNL     1       0.342   5.890   0.030  0.00  0.00    +0.000 A 
ATOM      6  C   UNL     1       1.157   4.772   0.016  0.00  0.00    +0.009 A 
ATOM      7  C   UNL     1       0.597   3.514   0.015  0.00  0.00    +0.019 A 
ATOM      8  C   UNL     1       1.191   2.124   0.002  0.00  0.00    +0.196 C 
ATOM      9  C   UNL     1      -0.014   1.209   0.009  0.00  0.00    +0.261 C 
ATOM     10  O   UNL     1       0.002  -0.004   0.002  0.00  0.00    -0.271 OA
ENDROOT
BRANCH   8  11
ATOM     11  C   UNL     1       2.033   1.898   1.232  0.00  0.00    +0.022 A 
ATOM     12  C   UNL     1       3.322   1.527   1.259  0.00  0.00    +0.091 A 
ATOM     13  N   UNL     1       3.751   1.425   2.555  0.00  0.00    -0.360 N 
ATOM     14  H   UNL     1       4.647   1.174   2.827  0.00  0.00    +0.165 HD
ATOM     15  C   UNL     1       2.718   1.726   3.414  0.00  0.00    +0.047 A 
ATOM     16  C   UNL     1       1.597   2.036   2.623  0.00  0.00    +0.006 A 
ATOM     17  C   UNL     1       0.390   2.383   3.232  0.00  0.00    +0.010 A 
ATOM     18  C   UNL     1       0.303   2.421   4.596  0.00  0.00    +0.001 A 
ATOM     19  C   UNL     1       1.407   2.116   5.380  0.00  0.00    +0.002 A 
ATOM     20  C   UNL     1       2.608   1.771   4.800  0.00  0.00    +0.026 A 
ENDBRANCH   8  11
BRANCH   8  21
ATOM     21  O   UNL     1       1.968   1.921  -1.180  0.00  0.00    -0.371 OA
ATOM     22  H   UNL     1       2.324   1.026  -1.267  0.00  0.00    +0.212 HD
ENDBRANCH   8  21
BRANCH   1  23
ATOM     23  C   UNL     1      -2.479   1.480   0.020  0.00  0.00    +0.149 C 
BRANCH  23  29
ATOM     24  C   UNL     1      -4.690   3.299   4.125  0.00  0.00    +0.044 C 
ATOM     25  C   UNL     1      -4.002   2.168   3.405  0.00  0.00    -0.050 A 
ATOM     26  C   UNL     1      -3.797   0.962   4.050  0.00  0.00    +0.003 A 
ATOM     27  C   UNL     1      -3.167  -0.076   3.390  0.00  0.00    +0.001 A 
ATOM     28  C   UNL     1      -2.744   0.090   2.085  0.00  0.00    +0.005 A 
ATOM     29  C   UNL     1      -2.944   1.297   1.442  0.00  0.00    -0.029 A 
ATOM     30  C   UNL     1      -3.575   2.335   2.102  0.00  0.00    +0.008 A 
ENDBRANCH  23  29
ENDBRANCH   1  23
TORSDOF 4
