REMARK  Name = ZINC16269412
REMARK  9 active torsions:
REMARK  status: ('A' for Active; 'I' for Inactive)
REMARK    1  A    between atoms: C_1  and  C_2
REMARK    2  A    between atoms: C_4  and  O_10
REMARK    3  A    between atoms: C_6  and  C_9
REMARK    4  A    between atoms: O_10  and  C_11
REMARK    5  A    between atoms: C_11  and  C_12
REMARK    6  A    between atoms: N_14  and  C_15
REMARK    7  A    between atoms: C_15  and  N_17
REMARK    8  A    between atoms: N_17  and  C_18
REMARK    9  A    between atoms: C_23  and  C_24
REMARK                            x       y       z     vdW  Elec       q    Type
REMARK                         _______ _______ _______ _____ _____    ______ ____
ROOT
ATOM      1  C   UNL     1      -2.469   4.119  -0.427  0.00  0.00    +0.256 C 
ATOM      2  O   UNL     1      -3.398   3.375  -0.655  0.00  0.00    -0.272 OA
ATOM      3  N   UNL     1      -2.696   5.424  -0.177  0.00  0.00    -0.265 N 
ATOM      4  H   UNL     1      -1.952   6.019   0.006  0.00  0.00    +0.157 HD
ENDROOT
BRANCH   3   5
ATOM      5  C   UNL     1      -3.957   5.901  -0.180  0.00  0.00    +0.141 C 
ATOM      6  S   UNL     1      -5.269   4.850  -0.502  0.00  0.00    -0.018 S 
BRANCH   5   7
ATOM      7  N   UNL     1      -4.184   7.206   0.070  0.00  0.00    -0.296 N 
ATOM      8  H   UNL     1      -3.448   7.787   0.321  0.00  0.00    +0.154 HD
BRANCH   7   9
ATOM      9  C   UNL     1      -5.473   7.720  -0.030  0.00  0.00    +0.047 A 
ATOM     10  C   UNL     1      -6.538   7.053   0.561  0.00  0.00    +0.025 A 
ATOM     11  C   UNL     1      -7.816   7.564   0.461  0.00  0.00    +0.022 A 
ATOM     12  C   UNL     1      -8.048   8.744  -0.230  0.00  0.00    +0.042 A 
ATOM     13  C   UNL     1      -7.003   9.420  -0.824  0.00  0.00    +0.037 A 
ATOM     14  C   UNL     1      -5.703   8.917  -0.726  0.00  0.00    +0.086 A 
ATOM     15 CL   UNL     1      -9.662   9.374  -0.347  0.00  0.00    -0.084 Cl
BRANCH  14  16
ATOM     16  C   UNL     1      -4.581   9.636  -1.353  0.00  0.00    +0.388 C 
ATOM     17  O   UNL     1      -3.468   9.147  -1.352  0.00  0.00    -0.241 OA
ATOM     18  O   UNL     1      -4.788  10.838  -1.928  0.00  0.00    -0.241 OA
ENDBRANCH  14  16
ENDBRANCH   7   9
ENDBRANCH   5   7
ENDBRANCH   3   5
BRANCH   1  19
ATOM     19  C   UNL     1      -1.060   3.585  -0.423  0.00  0.00    +0.324 C 
BRANCH  19  20
ATOM     20  O   UNL     1      -1.079   2.186  -0.713  0.00  0.00    -0.483 OA
BRANCH  20  24
ATOM     21  C   UNL     1       1.452  -1.936  -1.364  0.00  0.00    +0.045 C 
ATOM     22  C   UNL     1       1.393  -0.460  -1.065  0.00  0.00    -0.028 A 
ATOM     23  C   UNL     1       0.173   0.188  -1.024  0.00  0.00    +0.050 A 
ATOM     24  C   UNL     1       0.119   1.546  -0.748  0.00  0.00    +0.122 A 
ATOM     25  C   UNL     1       1.290   2.252  -0.514  0.00  0.00    +0.050 A 
ATOM     26  C   UNL     1       2.508   1.601  -0.556  0.00  0.00    -0.028 A 
ATOM     27  C   UNL     1       2.560   0.246  -0.832  0.00  0.00    +0.047 A 
ATOM     28 CL   UNL     1       4.091  -0.570  -0.884  0.00  0.00    -0.083 Cl
ATOM     29  C   UNL     1       3.780   2.367  -0.302  0.00  0.00    +0.045 C 
ENDBRANCH  20  24
ENDBRANCH  19  20
ENDBRANCH   1  19
TORSDOF 7
