REMARK  Name = ZINC66981116
REMARK  7 active torsions:
REMARK  status: ('A' for Active; 'I' for Inactive)
REMARK    1  A    between atoms: C_1  and  C_2
REMARK    2  A    between atoms: N_4  and  C_5
REMARK    3  A    between atoms: C_7  and  N_13
REMARK    4  A    between atoms: N_16  and  C_17
REMARK    5  A    between atoms: C_17  and  C_18
REMARK    6  A    between atoms: C_27  and  O_28
REMARK    7  A    between atoms: O_28  and  C_29
REMARK                            x       y       z     vdW  Elec       q    Type
REMARK                         _______ _______ _______ _____ _____    ______ ____
ROOT
ATOM      1  N   UNL     1       0.134  -5.012   1.018  0.00  0.00    -0.267 N 
ATOM      2  C   UNL     1      -0.075  -4.400   2.201  0.00  0.00    +0.304 C 
ATOM      3  O   UNL     1      -0.158  -3.188   2.252  0.00  0.00    -0.252 OA
ATOM      4  N   UNL     1      -0.193  -5.131   3.327  0.00  0.00    -0.295 N 
ATOM      5  H   UNL     1       0.265  -5.972   0.986  0.00  0.00    +0.156 HD
ATOM      6  H   UNL     1      -0.126  -6.098   3.286  0.00  0.00    +0.151 HD
ENDROOT
BRANCH   1   9
ATOM      7  C   UNL     1       0.712  -2.233  -1.330  0.00  0.00    +0.071 A 
ATOM      8  C   UNL     1       0.685  -2.975  -0.157  0.00  0.00    +0.052 A 
ATOM      9  C   UNL     1       0.163  -4.260  -0.164  0.00  0.00    +0.072 A 
ATOM     10  C   UNL     1      -0.332  -4.802  -1.346  0.00  0.00    +0.147 A 
ATOM     11  C   UNL     1      -0.303  -4.061  -2.513  0.00  0.00    +0.080 A 
ATOM     12  C   UNL     1       0.212  -2.777  -2.507  0.00  0.00    +0.147 A 
ATOM     13  F   UNL     1       0.234  -2.053  -3.648  0.00  0.00    -0.203 F 
ATOM     14  F   UNL     1      -0.839  -6.054  -1.353  0.00  0.00    -0.203 F 
BRANCH   7  18
ATOM     15  C   UNL     1       2.910   0.735  -0.592  0.00  0.00    +0.109 C 
ATOM     16  C   UNL     1       2.279  -0.632  -0.524  0.00  0.00    +0.214 C 
ATOM     17  O   UNL     1       2.709  -1.460   0.251  0.00  0.00    -0.276 OA
ATOM     18  N   UNL     1       1.238  -0.934  -1.325  0.00  0.00    -0.283 N 
ATOM     19  H   UNL     1       0.854  -0.253  -1.898  0.00  0.00    +0.155 HD
ENDBRANCH   7  18
ENDBRANCH   1   9
BRANCH   4  20
ATOM     20  C   UNL     1      -0.420  -4.466   4.612  0.00  0.00    +0.145 C 
BRANCH  20  21
ATOM     21  C   UNL     1      -0.513  -5.501   5.704  0.00  0.00    +0.019 A 
ATOM     22  C   UNL     1      -1.756  -6.065   6.037  0.00  0.00    -0.010 A 
ATOM     23  C   UNL     1      -2.933  -5.684   5.370  0.00  0.00    +0.009 A 
ATOM     24  C   UNL     1      -4.119  -6.252   5.719  0.00  0.00    +0.001 A 
ATOM     25  C   UNL     1      -4.186  -7.207   6.732  0.00  0.00    +0.001 A 
ATOM     26  C   UNL     1      -3.068  -7.601   7.400  0.00  0.00    +0.008 A 
ATOM     27  C   UNL     1      -1.824  -7.038   7.067  0.00  0.00    -0.017 A 
ATOM     28  C   UNL     1      -0.648  -7.421   7.735  0.00  0.00    +0.012 A 
ATOM     29  C   UNL     1       0.539  -6.856   7.388  0.00  0.00    +0.046 A 
ATOM     30  C   UNL     1       0.610  -5.900   6.370  0.00  0.00    +0.125 A 
BRANCH  30  31
ATOM     31  O   UNL     1       1.812  -5.358   6.042  0.00  0.00    -0.495 OA
ATOM     32  C   UNL     1       2.951  -5.814   6.774  0.00  0.00    +0.277 C 
ENDBRANCH  30  31
ENDBRANCH  20  21
ENDBRANCH   4  20
TORSDOF 5
