REMARK  Name = ZINC33788416
REMARK  8 active torsions:
REMARK  status: ('A' for Active; 'I' for Inactive)
REMARK    1  A    between atoms: C_1  and  C_2
REMARK    2  A    between atoms: C_5  and  N_8
REMARK    3  A    between atoms: N_11  and  C_12
REMARK    4  A    between atoms: N_11  and  C_24
REMARK    5  A    between atoms: C_12  and  C_13
REMARK    6  A    between atoms: C_13  and  N_14
REMARK    7  A    between atoms: C_15  and  C_17
REMARK    8  A    between atoms: C_22  and  C_23
REMARK                            x       y       z     vdW  Elec       q    Type
REMARK                         _______ _______ _______ _____ _____    ______ ____
ROOT
ATOM      1  N   UNL     1      -0.218   4.814   0.958  0.00  0.00    -0.269 N 
ATOM      2  C   UNL     1      -0.332   3.818   0.057  0.00  0.00    +0.311 C 
ATOM      3  O   UNL     1      -1.425   3.525  -0.389  0.00  0.00    -0.252 OA
ATOM      4  N   UNL     1       0.764   3.148  -0.351  0.00  0.00    -0.254 N 
ATOM      5  H   UNL     1       0.778   5.162   1.269  0.00  0.00    +0.156 HD
ENDROOT
BRANCH   1  10
ATOM      6  C   UNL     1      -4.872   7.208   3.147  0.00  0.00    +0.044 C 
ATOM      7  C   UNL     1      -3.635   6.572   2.566  0.00  0.00    -0.050 A 
ATOM      8  C   UNL     1      -2.522   7.347   2.298  0.00  0.00    +0.005 A 
ATOM      9  C   UNL     1      -1.387   6.767   1.765  0.00  0.00    +0.023 A 
ATOM     10  C   UNL     1      -1.365   5.404   1.498  0.00  0.00    +0.035 A 
ATOM     11  C   UNL     1      -2.487   4.630   1.763  0.00  0.00    +0.023 A 
ATOM     12  C   UNL     1      -3.617   5.215   2.301  0.00  0.00    +0.005 A 
ENDBRANCH   1  10
BRANCH   4  13
ATOM     13  C   UNL     1       0.655   2.165  -1.342  0.00  0.00    +0.038 A 
ATOM     14  C   UNL     1       0.328   2.522  -2.643  0.00  0.00    +0.026 A 
ATOM     15  C   UNL     1       0.222   1.550  -3.619  0.00  0.00    +0.040 A 
ATOM     16  C   UNL     1       0.442   0.221  -3.300  0.00  0.00    +0.124 A 
ATOM     17  C   UNL     1       0.768  -0.137  -2.003  0.00  0.00    +0.040 A 
ATOM     18  C   UNL     1       0.875   0.831  -1.024  0.00  0.00    +0.026 A 
ATOM     19  F   UNL     1       0.338  -0.728  -4.257  0.00  0.00    -0.205 F 
ENDBRANCH   4  13
BRANCH   4  20
ATOM     20  C   UNL     1       2.069   3.450   0.243  0.00  0.00    +0.134 C 
BRANCH  20  21
ATOM     21  C   UNL     1       2.755   4.552  -0.566  0.00  0.00    +0.124 C 
BRANCH  21  22
ATOM     22  N   UNL     1       4.060   4.853   0.027  0.00  0.00    -0.310 N 
ATOM     23  C   UNL     1       4.848   5.799  -0.522  0.00  0.00    +0.244 C 
ATOM     24  O   UNL     1       4.476   6.402  -1.509  0.00  0.00    -0.270 OA
ATOM     25  H   UNL     1       4.397   4.307   0.921  0.00  0.00    +0.149 HD
BRANCH  23  26
ATOM     26  C   UNL     1       6.165   6.102   0.077  0.00  0.00    +0.040 A 
ATOM     27  C   UNL     1       6.543   5.505   1.281  0.00  0.00    +0.013 A 
ATOM     28  C   UNL     1       7.775   5.789   1.833  0.00  0.00    +0.001 A 
ATOM     29  C   UNL     1       8.632   6.672   1.200  0.00  0.00    +0.000 A 
ATOM     30  C   UNL     1       8.262   7.272   0.010  0.00  0.00    +0.004 A 
ATOM     31  C   UNL     1       7.035   6.992  -0.555  0.00  0.00    -0.038 A 
ATOM     32  C   UNL     1       6.633   7.647  -1.852  0.00  0.00    +0.044 C 
ENDBRANCH  23  26
ENDBRANCH  21  22
ENDBRANCH  20  21
ENDBRANCH   4  20
TORSDOF 6
