REMARK  Name = ZINC31911884
REMARK  3 active torsions:
REMARK  status: ('A' for Active; 'I' for Inactive)
REMARK    1  A    between atoms: C_3  and  C_7
REMARK    2  A    between atoms: C_7  and  C_9
REMARK    3  A    between atoms: C_7  and  N_19
REMARK                            x       y       z     vdW  Elec       q    Type
REMARK                         _______ _______ _______ _____ _____    ______ ____
ROOT
ATOM      1  C   UNL     1       1.303  -2.152  -0.022  0.00  0.00    +0.132 C 
ENDROOT
BRANCH   1   2
ATOM      2  C   UNL     1       1.561  -2.634  -1.427  0.00  0.00    +0.064 A 
ATOM      3  C   UNL     1       2.765  -2.745  -2.029  0.00  0.00    +0.136 A 
ATOM      4  N   UNL     1       2.583  -3.208  -3.267  0.00  0.00    -0.236 NA
ATOM      5  C   UNL     1       1.286  -3.390  -3.477  0.00  0.00    +0.138 A 
ATOM      6  N   UNL     1       0.618  -3.036  -2.333  0.00  0.00    -0.301 N 
ATOM      7  C   UNL     1      -0.743  -3.125  -2.272  0.00  0.00    +0.108 A 
ATOM      8  C   UNL     1      -1.452  -3.563  -3.335  0.00  0.00    +0.034 A 
ATOM      9  C   UNL     1      -0.795  -3.933  -4.521  0.00  0.00    +0.020 A 
ATOM     10  C   UNL     1       0.561  -3.849  -4.595  0.00  0.00    +0.048 A 
ATOM     11 BR   UNL     1      -3.336  -3.680  -3.227  0.00  0.00    -0.049 Br
ENDBRANCH   1   2
BRANCH   1  14
ATOM     12  C   UNL     1      -0.017   1.383   0.010  0.00  0.00    +0.020 A 
ATOM     13  C   UNL     1       0.002  -0.004   0.002  0.00  0.00    +0.008 A 
ATOM     14  C   UNL     1       1.230  -0.647  -0.013  0.00  0.00    -0.007 A 
ATOM     15  C   UNL     1       2.387   0.110  -0.020  0.00  0.00    +0.116 A 
ATOM     16  N   UNL     1       2.331   1.427  -0.013  0.00  0.00    -0.263 NA
ATOM     17  C   UNL     1       1.181   2.072   0.002  0.00  0.00    +0.111 A 
ENDBRANCH   1  14
BRANCH   1  18
ATOM     18  N   UNL     1       2.395  -2.595   0.855  0.00  0.00    -0.319 NA
ATOM     19  H   UNL     1       2.448  -3.694   0.848  0.00  0.00    +0.119 HD
ATOM     20  H   UNL     1       3.347  -2.180   0.494  0.00  0.00    +0.119 HD
ENDBRANCH   1  18
TORSDOF 3
