REMARK  Name = ZINC36129101
REMARK  5 active torsions:
REMARK  status: ('A' for Active; 'I' for Inactive)
REMARK    1  A    between atoms: C_4  and  N_19
REMARK    2  A    between atoms: C_6  and  S_7
REMARK    3  A    between atoms: S_7  and  N_10
REMARK    4  A    between atoms: C_15  and  C_17
REMARK    5  A    between atoms: C_17  and  O_18
REMARK                            x       y       z     vdW  Elec       q    Type
REMARK                         _______ _______ _______ _____ _____    ______ ____
ROOT
ATOM      1  S   UNL     1      -1.368  -0.824  -0.036  0.00  0.00    +0.061 S 
ATOM      2  O   UNL     1      -1.143  -2.099   0.551  0.00  0.00    -0.153 OA
ATOM      3  O   UNL     1      -2.269   0.123   0.522  0.00  0.00    -0.153 OA
ENDROOT
BRANCH   1   9
ATOM      4  C   UNL     1       0.275   1.349  -0.185  0.00  0.00    +0.031 A 
ATOM      5  C   UNL     1       1.505   1.977  -0.261  0.00  0.00    +0.042 A 
ATOM      6  C   UNL     1       2.666   1.226  -0.286  0.00  0.00    +0.144 A 
ATOM      7  C   UNL     1       2.594  -0.162  -0.234  0.00  0.00    +0.062 A 
ATOM      8  C   UNL     1       1.357  -0.787  -0.157  0.00  0.00    +0.054 A 
ATOM      9  C   UNL     1       0.202  -0.030  -0.133  0.00  0.00    +0.107 A 
ATOM     10  F   UNL     1       3.867   1.839  -0.362  0.00  0.00    -0.204 F 
BRANCH   7  11
ATOM     11  N   UNL     1       3.765  -0.926  -0.260  0.00  0.00    -0.356 N 
ATOM     12  H   UNL     1       4.629  -0.488  -0.314  0.00  0.00    +0.142 HD
ATOM     13  H   UNL     1       3.714  -1.894  -0.224  0.00  0.00    +0.142 HD
ENDBRANCH   7  11
ENDBRANCH   1   9
BRANCH   1  14
ATOM     14  N   UNL     1      -1.874  -1.101  -1.588  0.00  0.00    -0.171 NA
ATOM     15  C   UNL     1      -2.789  -0.164  -2.255  0.00  0.00    +0.110 C 
ATOM     16  C   UNL     1      -3.998  -0.946  -2.780  0.00  0.00    +0.017 C 
ATOM     17  C   UNL     1      -3.511  -2.091  -3.671  0.00  0.00    +0.003 C 
ATOM     18  C   UNL     1      -2.640  -3.044  -2.849  0.00  0.00    +0.023 C 
ATOM     19  C   UNL     1      -1.412  -2.284  -2.326  0.00  0.00    +0.105 C 
BRANCH  19  20
ATOM     20  C   UNL     1      -0.605  -3.188  -1.393  0.00  0.00    +0.176 C 
BRANCH  20  21
ATOM     21  O   UNL     1      -1.492  -3.854  -0.491  0.00  0.00    -0.393 OA
ATOM     22  H   UNL     1      -1.048  -4.445   0.132  0.00  0.00    +0.209 HD
ENDBRANCH  20  21
ENDBRANCH  19  20
ENDBRANCH   1  14
TORSDOF 5
