REMARK  Name = ZINC00512737
REMARK  4 active torsions:
REMARK  status: ('A' for Active; 'I' for Inactive)
REMARK    1  A    between atoms: C_3  and  O_17
REMARK    2  A    between atoms: C_4  and  C_8
REMARK    3  A    between atoms: N_9  and  N_10
REMARK    4  A    between atoms: C_11  and  C_13
REMARK                            x       y       z     vdW  Elec       q    Type
REMARK                         _______ _______ _______ _____ _____    ______ ____
ROOT
ATOM      1  C   UNL     1      -4.852   0.688   3.697  0.00  0.00    +0.142 C 
ATOM      2  N   UNL     1      -3.996   0.307   2.799  0.00  0.00    -0.188 NA
ENDROOT
BRANCH   1   6
ATOM      3  C   UNL     1      -8.018  -1.901   4.845  0.00  0.00    +0.019 A 
ATOM      4  C   UNL     1      -7.110  -2.313   3.888  0.00  0.00    +0.047 A 
ATOM      5  C   UNL     1      -6.077  -1.475   3.503  0.00  0.00    +0.126 A 
ATOM      6  C   UNL     1      -5.950  -0.211   4.095  0.00  0.00    +0.037 A 
ATOM      7  C   UNL     1      -6.874   0.195   5.061  0.00  0.00    +0.028 A 
ATOM      8  C   UNL     1      -7.900  -0.651   5.429  0.00  0.00    +0.019 A 
ATOM      9 BR   UNL     1      -9.150  -0.101   6.738  0.00  0.00    -0.050 Br
BRANCH   5  10
ATOM     10  O   UNL     1      -5.189  -1.877   2.558  0.00  0.00    -0.506 OA
ATOM     11  H   UNL     1      -4.418  -2.341   2.914  0.00  0.00    +0.292 HD
ENDBRANCH   5  10
ENDBRANCH   1   6
BRANCH   2  12
ATOM     12  N   UNL     1      -2.951   1.161   2.420  0.00  0.00    -0.207 N 
ATOM     13  C   UNL     1      -2.062   0.765   1.488  0.00  0.00    +0.235 C 
ATOM     14  O   UNL     1      -2.166  -0.330   0.976  0.00  0.00    -0.274 OA
ATOM     15  H   UNL     1      -2.868   2.036   2.829  0.00  0.00    +0.177 HD
BRANCH  13  16
ATOM     16  C   UNL     1      -0.939   1.683   1.080  0.00  0.00    +0.077 C 
ATOM     17  C   UNL     1      -0.013   1.086   0.008  0.00  0.00    +0.013 C 
ATOM     18  C   UNL     1      -0.959   1.695  -1.040  0.00  0.00    +0.001 C 
ATOM     19  C   UNL     1      -1.349   2.730   0.028  0.00  0.00    +0.013 C 
ENDBRANCH  13  16
ENDBRANCH   2  12
TORSDOF 4
