REMARK  Name = ZINC62051867
REMARK  6 active torsions:
REMARK  status: ('A' for Active; 'I' for Inactive)
REMARK    1  A    between atoms: N_4  and  C_6
REMARK    2  A    between atoms: C_6  and  C_7
REMARK    3  A    between atoms: N_15  and  CA_16
REMARK    4  A    between atoms: CA_16  and  CB_18
REMARK    5  A    between atoms: CA_16  and  C_20
REMARK    6  A    between atoms: CB_18  and  OG_19
REMARK                            x       y       z     vdW  Elec       q    Type
REMARK                         _______ _______ _______ _____ _____    ______ ____
ROOT
ATOM      1  C   UNK A   0       0.921  -2.744  -0.048  0.00  0.00    -0.025 C 
ATOM      2  C   UNK A   0      -0.573  -2.431  -0.159  0.00  0.00    +0.021 C 
ATOM      3  C   UNK A   0      -1.258  -3.520  -0.989  0.00  0.00    +0.109 C 
ATOM      4  N   UNK A   0      -0.959  -4.829  -0.392  0.00  0.00    -0.286 N 
ATOM      5  C   UNK A   0       0.444  -5.194  -0.156  0.00  0.00    +0.109 C 
ATOM      6  C   UNK A   0       1.111  -4.085   0.665  0.00  0.00    +0.021 C 
ATOM      7  C   UNK A   0      -1.954  -5.678  -0.065  0.00  0.00    +0.303 C 
ATOM      8  O   UNK A   0      -3.104  -5.404  -0.347  0.00  0.00    -0.253 OA
ATOM      9  N   SER A   1      -1.673  -6.831   0.574  0.00  0.00    -0.284 N 
ATOM     10  H   SER A   1      -0.750  -7.084   0.734  0.00  0.00    +0.151 HD
ENDROOT
BRANCH   1  11
ATOM     11  C   UNK A   0       1.615  -1.640   0.752  0.00  0.00    -0.075 C 
BRANCH  11  15
ATOM     12  C   UNK A   0       5.035  -1.062  -0.382  0.00  0.00    -0.020 C 
ATOM     13  C   UNK A   0       5.202  -0.913   1.148  0.00  0.00    -0.020 C 
ATOM     14  C   UNK A   0       3.738  -0.902   1.657  0.00  0.00    -0.079 C 
ATOM     15  N   UNK A   0       3.063  -1.886   0.772  0.00  0.00    +0.380 N 
ATOM     16  C   UNK A   0       3.635  -1.674  -0.576  0.00  0.00    -0.079 C 
ATOM     17  H   UNK A   0       3.254  -2.825   1.087  0.00  0.00    -0.082 HD
ENDBRANCH  11  15
ENDBRANCH   1  11
BRANCH   9  18
ATOM     18  CA  SER A   1      -2.760  -7.701   1.028  0.00  0.00    +0.213 C 
BRANCH  18  19
ATOM     19  C   SER A   1      -3.244  -7.238   2.378  0.00  0.00    +0.378 C 
ATOM     20  O   SER A   1      -4.407  -7.409   2.701  0.00  0.00    -0.244 OA
ATOM     21  OXT SER A   1      -2.472  -6.692   3.148  0.00  0.00    -0.244 OA
ENDBRANCH  18  19
BRANCH  18  22
ATOM     22  CB  SER A   1      -2.252  -9.140   1.134  0.00  0.00    +0.189 C 
BRANCH  22  23
ATOM     23  OG  SER A   1      -1.254  -9.219   2.154  0.00  0.00    -0.393 OA
ATOM     24  H   SER A   1      -0.886 -10.104   2.277  0.00  0.00    +0.209 HD
ENDBRANCH  22  23
ENDBRANCH  18  22
ENDBRANCH   9  18
TORSDOF 6
