REMARK  Name = ZINC14719765
REMARK  7 active torsions:
REMARK  status: ('A' for Active; 'I' for Inactive)
REMARK    1  A    between atoms: C_3  and  C_16
REMARK    2  A    between atoms: C_5  and  O_15
REMARK    3  A    between atoms: C_7  and  C_10
REMARK    4  A    between atoms: C_10  and  C_12
REMARK    5  A    between atoms: C_10  and  O_14
REMARK    6  A    between atoms: C_12  and  O_13
REMARK    7  A    between atoms: C_16  and  O_17
REMARK                            x       y       z     vdW  Elec       q    Type
REMARK                         _______ _______ _______ _____ _____    ______ ____
ROOT
ATOM      1  C   UNL     1       4.409   3.901  -1.600  0.00  0.00    +0.324 C 
ATOM      2  O   UNL     1       4.283   5.325  -1.622  0.00  0.00    -0.346 OA
ATOM      3  C   UNL     1       3.759   5.876  -0.409  0.00  0.00    +0.177 C 
ATOM      4  C   UNL     1       2.387   5.253  -0.132  0.00  0.00    +0.177 C 
ATOM      5  C   UNL     1       2.527   3.727  -0.128  0.00  0.00    +0.183 C 
ATOM      6  O   UNL     1       3.129   3.312  -1.358  0.00  0.00    -0.346 OA
ENDROOT
BRANCH   4   7
ATOM      7  O   UNL     1       1.909   5.693   1.141  0.00  0.00    -0.386 OA
ATOM      8  H   UNL     1       1.797   6.651   1.209  0.00  0.00    +0.210 HD
ENDBRANCH   4   7
BRANCH   5   9
ATOM      9  C   UNL     1       1.145   3.085   0.008  0.00  0.00    +0.171 C 
BRANCH   9  10
ATOM     10  O   UNL     1       0.546   3.500   1.237  0.00  0.00    -0.387 OA
ATOM     11  H   UNL     1       1.052   3.256   2.023  0.00  0.00    +0.210 HD
ENDBRANCH   9  10
BRANCH   9  12
ATOM     12  C   UNL     1       1.286   1.562  -0.002  0.00  0.00    +0.189 C 
BRANCH  12  13
ATOM     13  O   UNL     1      -0.011   0.963   0.007  0.00  0.00    -0.392 OA
ATOM     14  H   UNL     1       0.002  -0.004   0.002  0.00  0.00    +0.210 HD
ENDBRANCH  12  13
ENDBRANCH   9  12
ENDBRANCH   5   9
BRANCH   3  15
ATOM     15  C   UNL     1       3.613   7.391  -0.557  0.00  0.00    +0.190 C 
BRANCH  15  16
ATOM     16  O   UNL     1       4.906   7.981  -0.712  0.00  0.00    -0.392 OA
ATOM     17  H   UNL     1       4.890   8.943  -0.811  0.00  0.00    +0.210 HD
ENDBRANCH  15  16
ENDBRANCH   3  15
TORSDOF 7
