REMARK  Name = ZINC37641672
REMARK  8 active torsions:
REMARK  status: ('A' for Active; 'I' for Inactive)
REMARK    1  A    between atoms: C_1  and  C_2
REMARK    2  A    between atoms: C_3  and  N_19
REMARK    3  A    between atoms: C_5  and  C_9
REMARK    4  A    between atoms: N_11  and  C_12
REMARK    5  A    between atoms: N_11  and  C_16
REMARK    6  A    between atoms: C_12  and  C_13
REMARK    7  A    between atoms: C_16  and  C_17
REMARK    8  A    between atoms: C_16  and  C_18
REMARK                            x       y       z     vdW  Elec       q    Type
REMARK                         _______ _______ _______ _____ _____    ______ ____
ROOT
ATOM      1  C   UNL     1       0.080  -4.251  -0.011  0.00  0.00    +0.247 C 
ATOM      2  O   UNL     1       0.169  -3.039   0.004  0.00  0.00    -0.270 OA
ATOM      3  N   UNL     1      -0.028  -4.933   1.147  0.00  0.00    -0.286 N 
ENDROOT
BRANCH   1   8
ATOM      4  C   UNL     1       0.130  -7.089  -5.024  0.00  0.00    +0.048 C 
ATOM      5  C   UNL     1       0.116  -6.346  -3.713  0.00  0.00    +0.005 A 
ATOM      6  C   UNL     1      -0.744  -5.268  -3.537  0.00  0.00    +0.031 A 
ATOM      7  C   UNL     1      -0.758  -4.583  -2.332  0.00  0.00    +0.036 A 
ATOM      8  C   UNL     1       0.091  -4.978  -1.298  0.00  0.00    +0.041 A 
ATOM      9  C   UNL     1       0.951  -6.061  -1.483  0.00  0.00    +0.051 A 
ATOM     10  C   UNL     1       0.955  -6.742  -2.687  0.00  0.00    +0.129 A 
ATOM     11  F   UNL     1       1.785  -7.794  -2.862  0.00  0.00    -0.205 F 
BRANCH   6  12
ATOM     12  N   UNL     1      -1.592  -4.875  -4.574  0.00  0.00    -0.358 N 
ATOM     13  H   UNL     1      -1.582  -5.354  -5.418  0.00  0.00    +0.142 HD
ATOM     14  H   UNL     1      -2.192  -4.122  -4.451  0.00  0.00    +0.142 HD
ENDBRANCH   6  12
ENDBRANCH   1   8
BRANCH   3  15
ATOM     15  C   UNL     1      -0.160  -4.208   2.414  0.00  0.00    +0.071 C 
ATOM     16  C   UNL     1      -1.530  -4.503   3.029  0.00  0.00    +0.028 C 
ATOM     17  C   UNL     1       0.939  -4.661   3.377  0.00  0.00    +0.028 C 
ENDBRANCH   3  15
BRANCH   3  18
ATOM     18  C   UNL     1      -0.013  -6.397   1.139  0.00  0.00    +0.203 C 
BRANCH  18  19
ATOM     19  C   UNL     1       1.392  -6.887   1.378  0.00  0.00    +0.228 C 
ATOM     20  O   UNL     1       2.292  -6.091   1.540  0.00  0.00    -0.274 OA
ATOM     21  N   UNL     1       1.648  -8.210   1.413  0.00  0.00    -0.328 N 
ATOM     22  H   UNL     1       0.927  -8.847   1.283  0.00  0.00    +0.145 HD
ATOM     23  H   UNL     1       2.552  -8.525   1.567  0.00  0.00    +0.145 HD
ENDBRANCH  18  19
ENDBRANCH   3  18
TORSDOF 5
