REMARK  Name = ZINC45367161
REMARK  5 active torsions:
REMARK  status: ('A' for Active; 'I' for Inactive)
REMARK    1  A    between atoms: C_5  and  N_7
REMARK    2  A    between atoms: N_10  and  C_13
REMARK    3  A    between atoms: C_13  and  C_14
REMARK    4  A    between atoms: C_14  and  C_16
REMARK    5  A    between atoms: C_14  and  N_19
REMARK                            x       y       z     vdW  Elec       q    Type
REMARK                         _______ _______ _______ _____ _____    ______ ____
ROOT
ATOM      1  N   UNL     1       1.236  -2.079  -0.021  0.00  0.00    -0.325 N 
ATOM      2  C   UNL     1       1.254  -2.841   1.237  0.00  0.00    +0.120 C 
ATOM      3  C   UNL     1       2.403  -3.854   1.175  0.00  0.00    +0.103 C 
ATOM      4  N   UNL     1       2.270  -4.667  -0.041  0.00  0.00    -0.300 NA
ATOM      5  C   UNL     1       2.391  -3.840  -1.250  0.00  0.00    +0.103 C 
ATOM      6  C   UNL     1       1.236  -2.827  -1.288  0.00  0.00    +0.120 C 
ENDROOT
BRANCH   1  11
ATOM      7  C   UNL     1      -0.017   1.377   0.010  0.00  0.00    +0.002 A 
ATOM      8  C   UNL     1       1.170   2.087   0.002  0.00  0.00    +0.003 A 
ATOM      9  C   UNL     1       2.380   1.418  -0.013  0.00  0.00    +0.040 A 
ATOM     10  C   UNL     1       2.406   0.035  -0.021  0.00  0.00    +0.144 A 
ATOM     11  C   UNL     1       1.214  -0.681  -0.013  0.00  0.00    +0.065 A 
ATOM     12  C   UNL     1       0.002  -0.004   0.002  0.00  0.00    +0.026 A 
ATOM     13  F   UNL     1       3.588  -0.619  -0.036  0.00  0.00    -0.204 F 
ENDBRANCH   1  11
BRANCH   4  14
ATOM     14  C   UNL     1       3.250  -5.761  -0.052  0.00  0.00    +0.077 C 
BRANCH  14  15
ATOM     15  C   UNL     1       2.925  -6.725  -1.195  0.00  0.00    +0.027 C 
BRANCH  15  16
ATOM     16  C   UNL     1       3.853  -7.911  -1.132  0.00  0.00    +0.197 C 
ATOM     17  O   UNL     1       3.471  -8.954  -0.645  0.00  0.00    -0.278 OA
ATOM     18  N   UNL     1       5.106  -7.812  -1.617  0.00  0.00    -0.331 N 
ATOM     19  H   UNL     1       5.411  -6.978  -2.006  0.00  0.00    +0.145 HD
ATOM     20  H   UNL     1       5.704  -8.575  -1.576  0.00  0.00    +0.145 HD
ENDBRANCH  15  16
BRANCH  15  21
ATOM     21  N   UNL     1       1.535  -7.184  -1.069  0.00  0.00    +0.387 N 
ATOM     22  H   UNL     1       1.320  -7.819  -1.822  0.00  0.00    -0.089 HD
ATOM     23  H   UNL     1       1.416  -7.657  -0.185  0.00  0.00    -0.089 HD
ATOM     24  H   UNL     1       0.913  -6.390  -1.111  0.00  0.00    -0.089 HD
ENDBRANCH  15  21
ENDBRANCH  14  15
ENDBRANCH   4  14
TORSDOF 5
