REMARK  Name = ZINC04277853
REMARK  7 active torsions:
REMARK  status: ('A' for Active; 'I' for Inactive)
REMARK    1  A    between atoms: C_1  and  C_2
REMARK    2  A    between atoms: C_8  and  C_11
REMARK    3  A    between atoms: N_13  and  C_14
REMARK    4  A    between atoms: C_14  and  C_16
REMARK    5  A    between atoms: C_14  and  C_23
REMARK    6  A    between atoms: C_16  and  C_17
REMARK    7  A    between atoms: C_26  and  C_28
REMARK                            x       y       z     vdW  Elec       q    Type
REMARK                         _______ _______ _______ _____ _____    ______ ____
ROOT
ATOM      1  C   UNL     1       4.756   0.240  -0.758  0.00  0.00    +0.109 C 
ATOM      2  C   UNL     1       3.524  -0.459  -0.244  0.00  0.00    +0.213 C 
ATOM      3  O   UNL     1       3.536  -1.659  -0.068  0.00  0.00    -0.276 OA
ATOM      4  N   UNL     1       2.408   0.249   0.020  0.00  0.00    -0.298 N 
ATOM      5  C   UNL     1       2.378   1.704  -0.189  0.00  0.00    +0.127 C 
ATOM      6  C   UNL     1       1.209   2.041  -1.122  0.00  0.00    +0.127 C 
ATOM      7  N   UNL     1      -0.000   1.373  -0.620  0.00  0.00    -0.287 N 
ATOM      8  C   UNL     1       0.029  -0.081  -0.411  0.00  0.00    +0.179 C 
ATOM      9  C   UNL     1       1.199  -0.419   0.522  0.00  0.00    +0.139 C 
ATOM     10  C   UNL     1      -1.118   2.081  -0.362  0.00  0.00    +0.219 C 
ATOM     11  O   UNL     1      -2.140   1.507  -0.050  0.00  0.00    -0.275 OA
ENDROOT
BRANCH  10  12
ATOM     12  C   UNL     1      -1.097   3.584  -0.459  0.00  0.00    +0.075 C 
ATOM     13  C   UNL     1      -0.377   4.165   0.760  0.00  0.00    +0.013 C 
ATOM     14  C   UNL     1      -0.356   5.691   0.660  0.00  0.00    +0.001 C 
ATOM     15  C   UNL     1      -1.791   6.219   0.617  0.00  0.00    +0.000 C 
ATOM     16  C   UNL     1      -2.511   5.639  -0.602  0.00  0.00    +0.001 C 
ATOM     17  C   UNL     1      -2.532   4.112  -0.503  0.00  0.00    +0.013 C 
ENDBRANCH  10  12
BRANCH   8  18
ATOM     18  C   UNL     1      -1.265  -0.528   0.218  0.00  0.00    +0.236 C 
ATOM     19  O   UNL     1      -1.571  -0.130   1.322  0.00  0.00    -0.274 OA
ATOM     20  N   UNL     1      -2.082  -1.370  -0.446  0.00  0.00    -0.302 N 
ATOM     21  H   UNL     1      -1.836  -1.688  -1.328  0.00  0.00    +0.150 HD
BRANCH  20  22
ATOM     22  C   UNL     1      -3.340  -1.805   0.166  0.00  0.00    +0.159 C 
BRANCH  22  23
ATOM     23  C   UNL     1      -3.081  -2.990   1.060  0.00  0.00    +0.231 C 
ATOM     24  O   UNL     1      -1.956  -3.429   1.174  0.00  0.00    -0.274 OA
ATOM     25  N   UNL     1      -4.099  -3.563   1.731  0.00  0.00    -0.328 N 
ATOM     26  H   UNL     1      -4.999  -3.212   1.640  0.00  0.00    +0.145 HD
ATOM     27  H   UNL     1      -3.933  -4.326   2.306  0.00  0.00    +0.145 HD
ENDBRANCH  22  23
BRANCH  22  28
ATOM     28  C   UNL     1      -4.331  -2.199  -0.930  0.00  0.00    +0.035 C 
BRANCH  28  29
ATOM     29  C   UNL     1      -4.690  -0.966  -1.762  0.00  0.00    -0.009 C 
ATOM     30  C   UNL     1      -5.437   0.041  -0.884  0.00  0.00    +0.003 C 
ATOM     31  C   UNL     1      -5.795   1.274  -1.715  0.00  0.00    +0.000 C 
ATOM     32  C   UNL     1      -6.687   0.859  -2.886  0.00  0.00    +0.000 C 
ATOM     33  C   UNL     1      -5.940  -0.148  -3.764  0.00  0.00    +0.000 C 
ATOM     34  C   UNL     1      -5.582  -1.381  -2.933  0.00  0.00    +0.003 C 
ENDBRANCH  28  29
ENDBRANCH  22  28
ENDBRANCH  20  22
ENDBRANCH   8  18
TORSDOF 6
