REMARK  Name = ZINC08790595
REMARK  6 active torsions:
REMARK  status: ('A' for Active; 'I' for Inactive)
REMARK    1  A    between atoms: C_1  and  C_2
REMARK    2  A    between atoms: C_2  and  O_3
REMARK    3  A    between atoms: O_3  and  C_4
REMARK    4  A    between atoms: C_9  and  C_10
REMARK    5  A    between atoms: C_10  and  C_12
REMARK    6  A    between atoms: C_32  and  C_39
REMARK                            x       y       z     vdW  Elec       q    Type
REMARK                         _______ _______ _______ _____ _____    ______ ____
ROOT
ATOM      1  C   UNL     1       2.906   4.486   1.238  0.00  0.00    +0.066 C 
ATOM      2  C   UNL     1       4.120   5.313   0.743  0.00  0.00    -0.055 C 
ATOM      3  C   UNL     1       4.152   6.656   1.487  0.00  0.00    -0.016 C 
ATOM      4  C   UNL     1       3.896   7.727   0.403  0.00  0.00    -0.020 C 
ATOM      5  C   UNL     1       3.160   6.931  -0.702  0.00  0.00    -0.076 C 
ATOM      6  C   UNL     1       2.912   4.554  -1.180  0.00  0.00    +0.060 C 
ATOM      7  C   UNL     1       2.581   3.637  -0.007  0.00  0.00    +0.085 C 
ATOM      8  C   UNL     1       1.149   3.192  -0.012  0.00  0.00    -0.011 A 
ATOM      9  C   UNL     1      -0.055   3.860   0.000  0.00  0.00    +0.006 A 
ATOM     10  C   UNL     1      -1.242   3.149  -0.005  0.00  0.00    +0.000 A 
ATOM     11  C   UNL     1      -1.217   1.766  -0.029  0.00  0.00    +0.002 A 
ATOM     12  C   UNL     1      -0.013   1.093  -0.036  0.00  0.00    +0.023 A 
ATOM     13  C   UNL     1       1.187   1.800  -0.031  0.00  0.00    +0.038 A 
ATOM     14  N   UNL     1       2.510   1.352  -0.043  0.00  0.00    -0.285 N 
ATOM     15  C   UNL     1       3.391   2.372  -0.029  0.00  0.00    +0.228 C 
ATOM     16  O   UNL     1       4.601   2.284  -0.035  0.00  0.00    -0.275 OA
ATOM     17  C   UNL     1       3.517   3.783  -2.323  0.00  0.00    -0.026 A 
ATOM     18  C   UNL     1       4.649   3.009  -2.445  0.00  0.00    +0.008 A 
ATOM     19  C   UNL     1       4.948   2.408  -3.655  0.00  0.00    -0.050 A 
ATOM     20  C   UNL     1       4.108   2.587  -4.739  0.00  0.00    +0.005 A 
ATOM     21  C   UNL     1       2.974   3.364  -4.621  0.00  0.00    +0.024 A 
ATOM     22  C   UNL     1       2.666   3.973  -3.407  0.00  0.00    +0.036 A 
ATOM     23  N   UNL     1       1.595   4.792  -3.043  0.00  0.00    -0.286 N 
ATOM     24  C   UNL     1       1.665   5.176  -1.755  0.00  0.00    +0.212 C 
ATOM     25  O   UNL     1       0.875   5.887  -1.169  0.00  0.00    -0.277 OA
ATOM     26  C   UNL     1       6.187   1.560  -3.792  0.00  0.00    +0.044 C 
ATOM     27  H   UNL     1       2.764   0.416  -0.058  0.00  0.00    +0.155 HD
ATOM     28  H   UNL     1       0.884   5.053  -3.648  0.00  0.00    +0.155 HD
ATOM     29  N   UNL     1       3.824   5.606  -0.652  0.00  0.00    +0.395 N 
ATOM     30  H   UNL     1       4.689   5.625  -1.204  0.00  0.00    -0.079 HD
ENDROOT
BRANCH   1  31
ATOM     31  C   UNL     1       1.750   5.385   1.595  0.00  0.00    +0.169 C 
ATOM     32  O   UNL     1       1.721   6.527   1.187  0.00  0.00    -0.292 OA
BRANCH  31  38
ATOM     33  C   UNL     1      -0.419   5.711   2.774  0.00  0.00    +0.131 A 
ATOM     34  C   UNL     1      -1.443   5.221   3.570  0.00  0.00    +0.046 A 
ATOM     35  C   UNL     1      -1.401   3.919   4.029  0.00  0.00    +0.004 A 
ATOM     36  C   UNL     1      -0.337   3.093   3.700  0.00  0.00    +0.001 A 
ATOM     37  C   UNL     1       0.686   3.559   2.907  0.00  0.00    +0.015 A 
ATOM     38  C   UNL     1       0.660   4.878   2.438  0.00  0.00    +0.059 A 
BRANCH  33  39
ATOM     39  O   UNL     1      -0.460   6.989   2.322  0.00  0.00    -0.492 OA
BRANCH  39  41
ATOM     40  C   UNL     1      -1.461   9.178   2.105  0.00  0.00    +0.048 C 
ATOM     41  C   UNL     1      -1.590   7.777   2.705  0.00  0.00    +0.226 C 
ENDBRANCH  39  41
ENDBRANCH  33  39
ENDBRANCH  31  38
ENDBRANCH   1  31
TORSDOF 4
