REMARK  Name = ZINC26772802
REMARK  8 active torsions:
REMARK  status: ('A' for Active; 'I' for Inactive)
REMARK    1  A    between atoms: C_1  and  S_2
REMARK    2  A    between atoms: S_2  and  N_5
REMARK    3  A    between atoms: N_5  and  C_6
REMARK    4  A    between atoms: C_9  and  C_12
REMARK    5  A    between atoms: C_13  and  C_14
REMARK    6  A    between atoms: N_16  and  N_17
REMARK    7  A    between atoms: C_18  and  C_20
REMARK    8  A    between atoms: C_20  and  C_21
REMARK                            x       y       z     vdW  Elec       q    Type
REMARK                         _______ _______ _______ _____ _____    ______ ____
ROOT
ATOM      1  C   UNL     1       0.023   1.316  -0.022  0.00  0.00    +0.253 C 
ATOM      2  O   UNL     1       0.056   0.101  -0.095  0.00  0.00    -0.269 OA
ATOM      3  N   UNL     1       1.171   2.020   0.027  0.00  0.00    -0.231 N 
ATOM      4  H   UNL     1       1.141   3.118   0.093  0.00  0.00    +0.173 HD
ENDROOT
BRANCH   3   5
ATOM      5  N   UNL     1       2.403   1.354  -0.006  0.00  0.00    -0.234 N 
ATOM      6  C   UNL     1       3.551   2.058   0.043  0.00  0.00    +0.230 C 
ATOM      7  O   UNL     1       3.518   3.268   0.116  0.00  0.00    -0.274 OA
ATOM      8  H   UNL     1       2.433   0.257  -0.071  0.00  0.00    +0.173 HD
BRANCH   6   9
ATOM      9  C   UNL     1       4.877   1.342   0.008  0.00  0.00    +0.104 C 
BRANCH   9  10
ATOM     10  C   UNL     1       6.012   2.365   0.076  0.00  0.00    -0.020 C 
ATOM     11  C   UNL     1       5.914   3.316  -1.119  0.00  0.00    +0.011 C 
ATOM     12  C   UNL     1       7.049   4.339  -1.050  0.00  0.00    -0.010 C 
ATOM     13  C   UNL     1       8.395   3.612  -1.086  0.00  0.00    +0.007 C 
ATOM     14  C   UNL     1       8.492   2.662   0.109  0.00  0.00    -0.010 C 
ATOM     15  C   UNL     1       7.357   1.638   0.041  0.00  0.00    +0.011 C 
ATOM     16  C   UNL     1       8.380   3.463   1.408  0.00  0.00    +0.007 C 
ATOM     17  C   UNL     1       7.034   4.190   1.443  0.00  0.00    -0.010 C 
ATOM     18  C   UNL     1       6.936   5.140   0.248  0.00  0.00    +0.007 C 
ATOM     19  C   UNL     1       5.899   3.166   1.375  0.00  0.00    +0.011 C 
ENDBRANCH   9  10
ENDBRANCH   6   9
ENDBRANCH   3   5
BRANCH   1  21
ATOM     20  C   UNL     1      -2.413   1.306  -0.049  0.00  0.00    +0.013 C 
ATOM     21  C   UNL     1      -1.263   2.011   0.006  0.00  0.00    +0.069 C 
BRANCH  20  25
ATOM     22  C   UNL     1      -6.139   3.321   0.033  0.00  0.00    +0.048 A 
ATOM     23  C   UNL     1      -6.103   1.932  -0.051  0.00  0.00    +0.025 A 
ATOM     24  C   UNL     1      -4.899   1.276  -0.077  0.00  0.00    +0.010 A 
ATOM     25  C   UNL     1      -3.705   2.005  -0.021  0.00  0.00    -0.025 A 
ATOM     26  C   UNL     1      -3.746   3.402   0.069  0.00  0.00    +0.010 A 
ATOM     27  C   UNL     1      -4.954   4.050   0.090  0.00  0.00    +0.025 A 
BRANCH  22  28
ATOM     28  N   UNL     1      -7.362   3.983   0.060  0.00  0.00    -0.221 N 
ATOM     29  H   UNL     1      -8.153   3.708  -0.654  0.00  0.00    +0.173 HD
BRANCH  28  31
ATOM     30  C   UNL     1      -7.466   4.377   2.782  0.00  0.00    +0.218 C 
ATOM     31  S   UNL     1      -7.629   5.185   1.167  0.00  0.00    +0.040 S 
ATOM     32  O   UNL     1      -6.563   6.104   0.969  0.00  0.00    -0.155 OA
ATOM     33  O   UNL     1      -8.976   5.583   0.953  0.00  0.00    -0.155 OA
ENDBRANCH  28  31
ENDBRANCH  22  28
ENDBRANCH  20  25
ENDBRANCH   1  21
TORSDOF 7
