REMARK  Name = ZINC49789190
REMARK  6 active torsions:
REMARK  status: ('A' for Active; 'I' for Inactive)
REMARK    1  A    between atoms: C_1  and  C_2
REMARK    2  A    between atoms: C_2  and  C_4
REMARK    3  A    between atoms: C_2  and  N_11
REMARK    4  A    between atoms: N_14  and  N_15
REMARK    5  A    between atoms: N_15  and  C_16
REMARK    6  A    between atoms: C_16  and  C_23
REMARK                            x       y       z     vdW  Elec       q    Type
REMARK                         _______ _______ _______ _____ _____    ______ ____
ROOT
ATOM      1  N   UNL     1       0.711  -0.489   1.189  0.00  0.00    -0.292 N 
ATOM      2  C   UNL     1       2.054  -0.600   1.174  0.00  0.00    +0.314 C 
ATOM      3  O   UNL     1       2.677  -0.297   0.175  0.00  0.00    -0.252 OA
ATOM      4  N   UNL     1       2.706  -1.046   2.266  0.00  0.00    -0.234 N 
ATOM      5  H   UNL     1       0.213  -0.731   1.986  0.00  0.00    +0.151 HD
ATOM      6  H   UNL     1       3.672  -1.126   2.255  0.00  0.00    +0.171 HD
ENDROOT
BRANCH   1   8
ATOM      7  C   UNL     1      -0.019   1.526   0.010  0.00  0.00    +0.033 C 
ATOM      8  C   UNL     1       0.002  -0.004   0.002  0.00  0.00    +0.103 C 
BRANCH   8   9
ATOM      9  C   UNL     1      -1.412  -0.526   0.013  0.00  0.00    -0.013 A 
ATOM     10  C   UNL     1      -2.015  -0.864   1.210  0.00  0.00    +0.006 A 
ATOM     11  C   UNL     1      -3.312  -1.342   1.220  0.00  0.00    +0.000 A 
ATOM     12  C   UNL     1      -4.006  -1.482   0.033  0.00  0.00    +0.001 A 
ATOM     13  C   UNL     1      -3.404  -1.144  -1.165  0.00  0.00    +0.015 A 
ATOM     14  C   UNL     1      -2.108  -0.661  -1.175  0.00  0.00    +0.023 A 
ATOM     15 BR   UNL     1      -1.286  -0.192  -2.812  0.00  0.00    -0.050 Br
ENDBRANCH   8   9
ENDBRANCH   1   8
BRANCH   4  16
ATOM     16  N   UNL     1       2.005  -1.387   3.388  0.00  0.00    -0.232 NA
ATOM     17  H   UNL     1       1.307  -2.085   3.180  0.00  0.00    +0.145 HD
BRANCH  16  18
ATOM     18  C   UNL     1       2.907  -1.845   4.453  0.00  0.00    +0.054 C 
ATOM     19  C   UNL     1       3.940  -0.752   4.724  0.00  0.00    +0.047 C 
ATOM     20  C   UNL     1       3.423   0.216   5.825  0.00  0.00    +0.168 C 
ATOM     21  S   UNL     1       2.625  -1.004   6.958  0.00  0.00    -0.029 S 
ATOM     22  O   UNL     1       1.490  -0.404   7.566  0.00  0.00    -0.174 OA
ATOM     23  O   UNL     1       3.622  -1.607   7.772  0.00  0.00    -0.174 OA
ATOM     24  C   UNL     1       2.064  -2.214   5.689  0.00  0.00    +0.189 C 
ATOM     25  C   UNL     1       3.640  -3.098   3.967  0.00  0.00    +0.031 C 
ENDBRANCH  16  18
ENDBRANCH   4  16
TORSDOF 4
