REMARK  Name = ZINC36168595
REMARK  7 active torsions:
REMARK  status: ('A' for Active; 'I' for Inactive)
REMARK    1  A    between atoms: C_1  and  C_2
REMARK    2  A    between atoms: C_2  and  C_3
REMARK    3  A    between atoms: C_10  and  C_12
REMARK    4  A    between atoms: C_12  and  N_13
REMARK    5  A    between atoms: C_14  and  C_20
REMARK    6  A    between atoms: C_15  and  N_19
REMARK    7  A    between atoms: C_16  and  C_18
REMARK                            x       y       z     vdW  Elec       q    Type
REMARK                         _______ _______ _______ _____ _____    ______ ____
ROOT
ATOM      1  C   UNL     1       4.401  -0.559   4.284  0.00  0.00    +0.239 C 
ENDROOT
BRANCH   1   8
ATOM      2  C   UNL     1       0.742  -0.511   1.242  0.00  0.00    +0.006 C 
ATOM      3  C   UNL     1       0.657  -2.038   1.298  0.00  0.00    +0.006 C 
ATOM      4  C   UNL     1       1.369  -2.544   2.555  0.00  0.00    +0.019 C 
ATOM      5  C   UNL     1       2.846  -2.143   2.497  0.00  0.00    +0.108 C 
ATOM      6  N   UNL     1       2.935  -0.691   2.296  0.00  0.00    -0.300 N 
ATOM      7  C   UNL     1       2.212  -0.087   1.168  0.00  0.00    +0.111 C 
ATOM      8  C   UNL     1       3.666   0.074   3.131  0.00  0.00    +0.237 C 
ATOM      9  O   UNL     1       3.731   1.272   2.955  0.00  0.00    -0.274 OA
BRANCH   2  11
ATOM     10  C   UNL     1      -0.019   1.526   0.010  0.00  0.00    +0.004 C 
ATOM     11  C   UNL     1       0.002  -0.004   0.002  0.00  0.00    +0.002 C 
ENDBRANCH   2  11
ENDBRANCH   1   8
BRANCH   1  12
ATOM     12  N   UNL     1       5.115   0.476   5.036  0.00  0.00    -0.258 N 
ATOM     13  C   UNL     1       6.385   0.903   4.803  0.00  0.00    +0.058 A 
ATOM     14  C   UNL     1       6.667   1.867   5.715  0.00  0.00    +0.068 A 
ATOM     15  C   UNL     1       5.537   2.032   6.529  0.00  0.00    +0.081 A 
ATOM     16  N   UNL     1       4.609   1.206   6.119  0.00  0.00    -0.174 NA
ATOM     17  C   UNL     1       5.410   3.001   7.676  0.00  0.00    +0.069 C 
ATOM     18  C   UNL     1       7.311   0.398   3.726  0.00  0.00    +0.067 C 
BRANCH  14  19
ATOM     19  N   UNL     1       7.878   2.575   5.826  0.00  0.00    -0.355 N 
ATOM     20  H   UNL     1       8.607   2.389   5.213  0.00  0.00    +0.142 HD
ATOM     21  H   UNL     1       7.985   3.249   6.516  0.00  0.00    +0.142 HD
ENDBRANCH  14  19
ENDBRANCH   1  12
TORSDOF 4
