REMARK  Name = ZINC34938831
REMARK  4 active torsions:
REMARK  status: ('A' for Active; 'I' for Inactive)
REMARK    1  A    between atoms: C_5  and  S_7
REMARK    2  A    between atoms: S_7  and  N_10
REMARK    3  A    between atoms: N_10  and  C_11
REMARK    4  A    between atoms: C_16  and  O_17
REMARK                            x       y       z     vdW  Elec       q    Type
REMARK                         _______ _______ _______ _____ _____    ______ ____
ROOT
ATOM      1  N   UNL     1       1.252  -2.941   1.556  0.00  0.00    -0.213 N 
ATOM      2  H   UNL     1       2.020  -3.422   1.899  0.00  0.00    +0.174 HD
ENDROOT
BRANCH   1   3
ATOM      3  C   UNL     1       0.206  -2.587   2.416  0.00  0.00    +0.091 A 
ATOM      4  C   UNL     1      -1.104  -2.599   1.959  0.00  0.00    +0.048 A 
ATOM      5  C   UNL     1      -2.136  -2.249   2.811  0.00  0.00    +0.043 A 
ATOM      6  C   UNL     1      -1.865  -1.887   4.119  0.00  0.00    +0.024 A 
ATOM      7  C   UNL     1      -0.561  -1.872   4.579  0.00  0.00    +0.049 A 
ATOM      8  C   UNL     1       0.477  -2.227   3.734  0.00  0.00    +0.139 A 
ATOM      9 CL   UNL     1      -3.775  -2.264   2.239  0.00  0.00    -0.083 Cl
BRANCH   8  10
ATOM     10  O   UNL     1       1.759  -2.218   4.188  0.00  0.00    -0.505 OA
ATOM     11  H   UNL     1       2.212  -1.372   4.072  0.00  0.00    +0.292 HD
ENDBRANCH   8  10
ENDBRANCH   1   3
BRANCH   1  12
ATOM     12  S   UNL     1       1.177  -2.537  -0.049  0.00  0.00    +0.073 S 
ATOM     13  O   UNL     1      -0.062  -3.034  -0.536  0.00  0.00    -0.150 OA
ATOM     14  O   UNL     1       2.424  -2.909  -0.619  0.00  0.00    -0.150 OA
BRANCH  12  19
ATOM     15  C   UNL     1      -0.219   1.228  -0.208  0.00  0.00    +0.005 A 
ATOM     16  C   UNL     1       0.938   1.979  -0.284  0.00  0.00    +0.038 A 
ATOM     17  C   UNL     1       2.172   1.350  -0.288  0.00  0.00    +0.125 A 
ATOM     18  C   UNL     1       2.244  -0.031  -0.216  0.00  0.00    +0.067 A 
ATOM     19  C   UNL     1       1.085  -0.780  -0.140  0.00  0.00    +0.111 A 
ATOM     20  C   UNL     1      -0.146  -0.151  -0.136  0.00  0.00    +0.029 A 
ATOM     21  F   UNL     1       3.304   2.084  -0.363  0.00  0.00    -0.205 F 
ENDBRANCH  12  19
ENDBRANCH   1  12
TORSDOF 4
