REMARK  Name = ZINC02341031
REMARK  6 active torsions:
REMARK  status: ('A' for Active; 'I' for Inactive)
REMARK    1  A    between atoms: C_1  and  O_2
REMARK    2  A    between atoms: O_2  and  C_3
REMARK    3  A    between atoms: C_7  and  C_10
REMARK    4  A    between atoms: C_8  and  O_9
REMARK    5  A    between atoms: N_11  and  N_12
REMARK    6  A    between atoms: C_13  and  C_15
REMARK                            x       y       z     vdW  Elec       q    Type
REMARK                         _______ _______ _______ _____ _____    ______ ____
ROOT
ATOM      1  C   UNL     1      -4.065  11.356   0.099  0.00  0.00    +0.163 A 
ATOM      2  C   UNL     1      -2.901  12.108   0.093  0.00  0.00    +0.065 A 
ATOM      3  C   UNL     1      -1.665  11.483   0.079  0.00  0.00    +0.036 A 
ATOM      4  C   UNL     1      -1.581  10.105   0.076  0.00  0.00    +0.044 A 
ATOM      5  C   UNL     1      -2.748   9.335   0.076  0.00  0.00    +0.055 A 
ATOM      6  C   UNL     1      -3.997   9.968   0.091  0.00  0.00    +0.168 A 
ATOM      7 BR   UNL     1       0.110   9.261   0.064  0.00  0.00    -0.048 Br
ATOM      8 BR   UNL     1      -0.085  12.523   0.070  0.00  0.00    -0.049 Br
ENDROOT
BRANCH   1  10
ATOM      9  C   UNL     1      -5.272  13.405   0.121  0.00  0.00    +0.277 C 
ATOM     10  O   UNL     1      -5.276  11.977   0.114  0.00  0.00    -0.491 OA
ENDBRANCH   1  10
BRANCH   6  11
ATOM     11  O   UNL     1      -5.137   9.229   0.098  0.00  0.00    -0.503 OA
ATOM     12  H   UNL     1      -5.459   9.010   0.984  0.00  0.00    +0.292 HD
ENDBRANCH   6  11
BRANCH   5  13
ATOM     13  C   UNL     1      -2.664   7.864   0.068  0.00  0.00    +0.143 C 
ATOM     14  N   UNL     1      -1.504   7.280   0.054  0.00  0.00    -0.187 NA
BRANCH  14  15
ATOM     15  N   UNL     1      -1.424   5.881   0.046  0.00  0.00    -0.202 N 
ATOM     16  C   UNL     1      -0.221   5.275   0.032  0.00  0.00    +0.282 C 
ATOM     17  O   UNL     1       0.796   5.942   0.026  0.00  0.00    -0.267 OA
ATOM     18  H   UNL     1      -2.235   5.349   0.050  0.00  0.00    +0.178 HD
BRANCH  16  19
ATOM     19  C   UNL     1      -0.136   3.797   0.023  0.00  0.00    +0.127 A 
ATOM     20  C   UNL     1       1.112   3.176   0.008  0.00  0.00    +0.033 A 
ATOM     21  C   UNL     1       1.175   1.792   0.001  0.00  0.00    +0.004 A 
ATOM     22  C   UNL     1      -0.013   1.076   0.008  0.00  0.00    +0.020 A 
ATOM     23  C   UNL     1      -1.218   1.759   0.017  0.00  0.00    +0.111 A 
ATOM     24  N   UNL     1      -1.249   3.074   0.030  0.00  0.00    -0.250 NA
ENDBRANCH  16  19
ENDBRANCH  14  15
ENDBRANCH   5  13
TORSDOF 5
