REMARK  Name = ZINC33632893
REMARK  9 active torsions:
REMARK  status: ('A' for Active; 'I' for Inactive)
REMARK    1  A    between atoms: C_1  and  C_2
REMARK    2  A    between atoms: C_2  and  C_3
REMARK    3  A    between atoms: C_2  and  C_4
REMARK    4  A    between atoms: C_2  and  N_5
REMARK    5  A    between atoms: C_10  and  C_28
REMARK    6  A    between atoms: C_13  and  C_18
REMARK    7  A    between atoms: C_13  and  C_25
REMARK    8  A    between atoms: C_18  and  C_19
REMARK    9  A    between atoms: C_33  and  O_34
REMARK                            x       y       z     vdW  Elec       q    Type
REMARK                         _______ _______ _______ _____ _____    ______ ____
ROOT
ATOM      1  N   UNL     1       0.815  -3.085   3.825  0.00  0.00    -0.236 N 
ATOM      2  C   UNL     1       0.035  -2.715   2.765  0.00  0.00    +0.225 C 
ATOM      3  O   UNL     1      -1.013  -2.107   2.804  0.00  0.00    -0.275 OA
ATOM      4  C   UNL     1       0.742  -3.217   1.546  0.00  0.00    +0.077 C 
ATOM      5  C   UNL     1       0.843  -2.388   0.278  0.00  0.00    -0.023 C 
ATOM      6  N   UNL     1       2.252  -2.552  -0.194  0.00  0.00    +0.396 N 
ATOM      7  C   UNL     1       3.010  -3.288   0.876  0.00  0.00    +0.048 C 
ATOM      8  C   UNL     1       2.211  -3.003   2.082  0.00  0.00    +0.086 C 
ATOM      9  C   UNL     1       2.083  -3.452   3.448  0.00  0.00    +0.225 C 
ATOM     10  O   UNL     1       2.915  -4.027   4.117  0.00  0.00    -0.275 OA
ATOM     11  H   UNL     1       2.260  -3.126  -1.132  0.00  0.00    -0.083 HD
ATOM     12  H   UNL     1       2.699  -1.561  -0.366  0.00  0.00    -0.083 HD
ENDROOT
BRANCH   5  13
ATOM     13  C   UNL     1       0.559  -0.938   0.578  0.00  0.00    -0.019 A 
ATOM     14  C   UNL     1       1.603  -0.045   0.725  0.00  0.00    +0.005 A 
ATOM     15  C   UNL     1       1.343   1.284   1.000  0.00  0.00    +0.000 A 
ATOM     16  C   UNL     1       0.038   1.724   1.129  0.00  0.00    +0.004 A 
ATOM     17  C   UNL     1      -1.009   0.835   0.984  0.00  0.00    +0.045 A 
ATOM     18  C   UNL     1      -0.751  -0.500   0.708  0.00  0.00    +0.118 A 
BRANCH  18  19
ATOM     19  O   UNL     1      -1.779  -1.377   0.563  0.00  0.00    -0.507 OA
ATOM     20  H   UNL     1      -2.817  -1.028   0.666  0.00  0.00    +0.292 HD
ENDBRANCH  18  19
ENDBRANCH   5  13
BRANCH   1  22
ATOM     21  C   UNL     1      -1.109  -2.625   5.263  0.00  0.00    +0.031 C 
ATOM     22  C   UNL     1       0.347  -3.090   5.214  0.00  0.00    +0.036 C 
ATOM     23  C   UNL     1       0.450  -4.507   5.782  0.00  0.00    +0.031 C 
ATOM     24  C   UNL     1       1.214  -2.143   6.047  0.00  0.00    +0.031 C 
ENDBRANCH   1  22
BRANCH   7  25
ATOM     25  C   UNL     1       4.407  -2.740   1.016  0.00  0.00    +0.346 C 
ATOM     26  O   UNL     1       4.807  -2.375   2.096  0.00  0.00    -0.248 OA
ATOM     27  O   UNL     1       5.207  -2.658  -0.059  0.00  0.00    -0.248 OA
ENDBRANCH   7  25
BRANCH   7  28
ATOM     28  C   UNL     1       3.044  -4.791   0.588  0.00  0.00    +0.003 C 
BRANCH  28  29
ATOM     29  C   UNL     1       3.526  -5.537   1.834  0.00  0.00    -0.012 C 
ATOM     30  C   UNL     1       5.007  -5.235   2.069  0.00  0.00    +0.003 C 
ATOM     31  C   UNL     1       5.488  -5.982   3.314  0.00  0.00    +0.000 C 
ATOM     32  C   UNL     1       5.301  -7.487   3.111  0.00  0.00    +0.000 C 
ATOM     33  C   UNL     1       3.820  -7.789   2.876  0.00  0.00    +0.000 C 
ATOM     34  C   UNL     1       3.338  -7.042   1.630  0.00  0.00    +0.003 C 
ENDBRANCH  28  29
ENDBRANCH   7  28
TORSDOF 6
