REMARK  Name = ZINC37334556
REMARK  4 active torsions:
REMARK  status: ('A' for Active; 'I' for Inactive)
REMARK    1  A    between atoms: C_3  and  N_15
REMARK    2  A    between atoms: C_4  and  C_11
REMARK    3  A    between atoms: C_6  and  C_7
REMARK    4  A    between atoms: N_12  and  O_13
REMARK                            x       y       z     vdW  Elec       q    Type
REMARK                         _______ _______ _______ _____ _____    ______ ____
ROOT
ATOM      1  C   UNL     1      -0.017   1.380   0.010  0.00  0.00    +0.014 A 
ATOM      2  C   UNL     1       1.165   2.095   0.002  0.00  0.00    +0.024 A 
ATOM      3  C   UNL     1       2.381   1.426  -0.013  0.00  0.00    +0.040 A 
ATOM      4  C   UNL     1       2.403   0.025  -0.021  0.00  0.00    +0.039 A 
ATOM      5  C   UNL     1       1.202  -0.684  -0.013  0.00  0.00    +0.025 A 
ATOM      6  C   UNL     1       0.002  -0.004   0.002  0.00  0.00    +0.056 A 
ENDROOT
BRANCH   3   7
ATOM      7  N   UNL     1       3.574   2.144  -0.022  0.00  0.00    -0.325 N 
ATOM      8  C   UNL     1       4.207   2.547  -1.288  0.00  0.00    +0.133 C 
ATOM      9  C   UNL     1       4.521   4.046  -1.217  0.00  0.00    +0.178 C 
ATOM     10  O   UNL     1       5.260   4.316  -0.023  0.00  0.00    -0.377 OA
ATOM     11  C   UNL     1       4.551   4.024   1.183  0.00  0.00    +0.178 C 
ATOM     12  C   UNL     1       4.236   2.529   1.235  0.00  0.00    +0.133 C 
ENDBRANCH   3   7
BRANCH   4  13
ATOM     13  C   UNL     1       3.693  -0.699  -0.038  0.00  0.00    +0.164 C 
ATOM     14  N   UNL     1       4.812  -0.034  -0.046  0.00  0.00    -0.071 NA
ATOM     15  N   UNL     1       3.710  -2.083  -0.046  0.00  0.00    -0.340 N 
ATOM     16  H   UNL     1       2.876  -2.579  -0.040  0.00  0.00    +0.144 HD
ATOM     17  H   UNL     1       4.556  -2.558  -0.057  0.00  0.00    +0.144 HD
BRANCH  14  18
ATOM     18  O   UNL     1       6.047  -0.726  -0.063  0.00  0.00    -0.408 OA
ATOM     19  H   UNL     1       6.822  -0.148  -0.068  0.00  0.00    +0.328 HD
ENDBRANCH  14  18
ENDBRANCH   4  13
BRANCH   6  20
ATOM     20  C   UNL     1      -1.295  -0.772   0.010  0.00  0.00    +0.417 C 
ATOM     21  F   UNL     1      -2.368   0.126   0.025  0.00  0.00    -0.166 F 
ATOM     22  F   UNL     1      -1.371  -1.571  -1.136  0.00  0.00    -0.166 F 
ATOM     23  F   UNL     1      -1.349  -1.583   1.149  0.00  0.00    -0.166 F 
ENDBRANCH   6  20
TORSDOF 4
