REMARK  Name = ZINC19219608
REMARK  7 active torsions:
REMARK  status: ('A' for Active; 'I' for Inactive)
REMARK    1  A    between atoms: C_1  and  C_2
REMARK    2  A    between atoms: C_10  and  C_34
REMARK    3  A    between atoms: C_11  and  C_12
REMARK    4  A    between atoms: C_12  and  C_14
REMARK    5  A    between atoms: C_12  and  O_33
REMARK    6  A    between atoms: C_14  and  N_15
REMARK    7  A    between atoms: C_22  and  O_32
REMARK                            x       y       z     vdW  Elec       q    Type
REMARK                         _______ _______ _______ _____ _____    ______ ____
ROOT
ATOM      1  N   UNL     1      -4.269  -1.764  -1.450  0.00  0.00    +0.382 N 
ATOM      2  C   UNL     1      -5.199  -1.990  -0.336  0.00  0.00    -0.075 C 
ATOM      3  C   UNL     1      -5.681  -3.442  -0.359  0.00  0.00    +0.029 C 
ATOM      4  C   UNL     1      -6.371  -3.726  -1.695  0.00  0.00    +0.110 C 
ATOM      5  C   UNL     1      -5.402  -3.430  -2.841  0.00  0.00    +0.029 C 
ATOM      6  C   UNL     1      -4.928  -1.978  -2.744  0.00  0.00    -0.075 C 
ATOM      7  C   UNL     1      -6.793  -5.199  -1.751  0.00  0.00    +0.084 C 
ATOM      8  C   UNL     1      -7.676  -5.494  -0.537  0.00  0.00    +0.152 C 
ATOM      9  C   UNL     1      -8.734  -4.427  -0.406  0.00  0.00    +0.024 A 
ATOM     10  C   UNL     1      -9.849  -4.686   0.374  0.00  0.00    +0.029 A 
ATOM     11  C   UNL     1     -10.832  -3.728   0.525  0.00  0.00    +0.042 A 
ATOM     12  C   UNL     1     -10.705  -2.502  -0.105  0.00  0.00    +0.023 A 
ATOM     13  C   UNL     1      -9.598  -2.240  -0.885  0.00  0.00    +0.047 A 
ATOM     14  C   UNL     1      -8.607  -3.205  -1.042  0.00  0.00    +0.127 A 
ATOM     15  O   UNL     1      -7.535  -2.912  -1.823  0.00  0.00    -0.485 OA
ATOM     16 CL   UNL     1     -12.227  -4.061   1.504  0.00  0.00    -0.084 Cl
ATOM     17  H   UNL     1      -3.455  -2.499  -1.361  0.00  0.00    -0.082 HD
ENDROOT
BRANCH   8  18
ATOM     18  O   UNL     1      -8.303  -6.767  -0.704  0.00  0.00    -0.387 OA
ATOM     19  H   UNL     1      -8.981  -7.153   0.072  0.00  0.00    +0.210 HD
ENDBRANCH   8  18
BRANCH   1  20
ATOM     20  C   UNL     1      -3.677  -0.421  -1.377  0.00  0.00    -0.042 C 
BRANCH  20  21
ATOM     21  C   UNL     1      -2.534  -0.312  -2.389  0.00  0.00    +0.130 C 
BRANCH  21  32
ATOM     22  C   UNL     1      -2.005   5.849  -5.407  0.00  0.00    +0.044 C 
ATOM     23  C   UNL     1      -2.030   4.549  -4.645  0.00  0.00    -0.048 A 
ATOM     24  C   UNL     1      -2.780   3.484  -5.127  0.00  0.00    +0.004 A 
ATOM     25  C   UNL     1      -2.816   2.298  -4.451  0.00  0.00    +0.010 A 
ATOM     26  C   UNL     1      -2.097   2.155  -3.262  0.00  0.00    +0.005 A 
ATOM     27  C   UNL     1      -1.332   3.229  -2.772  0.00  0.00    +0.047 A 
ATOM     28  C   UNL     1      -1.310   4.428  -3.477  0.00  0.00    +0.029 A 
ATOM     29  N   UNL     1      -0.736   2.804  -1.606  0.00  0.00    -0.358 N 
ATOM     30  H   UNL     1      -0.076   3.483  -1.046  0.00  0.00    +0.166 HD
ATOM     31  C   UNL     1      -1.104   1.513  -1.339  0.00  0.00    +0.019 A 
ATOM     32  C   UNL     1      -1.919   1.061  -2.305  0.00  0.00    +0.007 A 
ATOM     33  C   UNL     1      -0.650   0.714  -0.145  0.00  0.00    +0.063 C 
ENDBRANCH  21  32
BRANCH  21  34
ATOM     34  O   UNL     1      -1.542  -1.297  -2.095  0.00  0.00    -0.389 OA
ATOM     35  H   UNL     1      -1.807  -2.365  -2.107  0.00  0.00    +0.210 HD
ENDBRANCH  21  34
ENDBRANCH  20  21
ENDBRANCH   1  20
TORSDOF 5
