REMARK  Name = ZINC34957328
REMARK  4 active torsions:
REMARK  status: ('A' for Active; 'I' for Inactive)
REMARK    1  A    between atoms: C_3  and  O_9
REMARK    2  A    between atoms: O_9  and  C_10
REMARK    3  A    between atoms: C_13  and  C_16
REMARK    4  A    between atoms: N_17  and  O_18
REMARK                            x       y       z     vdW  Elec       q    Type
REMARK                         _______ _______ _______ _____ _____    ______ ____
ROOT
ATOM      1  C   UNL     1       3.484   3.459  -0.118  0.00  0.00    +0.221 A 
ATOM      2  C   UNL     1       4.658   4.195  -0.240  0.00  0.00    +0.068 A 
ATOM      3  C   UNL     1       4.585   5.570  -0.338  0.00  0.00    +0.018 A 
ATOM      4  C   UNL     1       3.321   6.174  -0.311  0.00  0.00    +0.036 A 
ATOM      5  C   UNL     1       2.190   5.369  -0.186  0.00  0.00    +0.126 A 
ATOM      6  N   UNL     1       2.304   4.059  -0.101  0.00  0.00    -0.220 NA
ENDROOT
BRANCH   4   7
ATOM      7  C   UNL     1       3.188   7.644  -0.412  0.00  0.00    +0.164 C 
ATOM      8  N   UNL     1       4.251   8.386  -0.528  0.00  0.00    -0.071 NA
ATOM      9  N   UNL     1       1.934   8.229  -0.384  0.00  0.00    -0.340 N 
ATOM     10  H   UNL     1       1.142   7.676  -0.298  0.00  0.00    +0.144 HD
ATOM     11  H   UNL     1       1.847   9.193  -0.450  0.00  0.00    +0.144 HD
BRANCH   8  12
ATOM     12  O   UNL     1       4.124   9.793  -0.625  0.00  0.00    -0.408 OA
ATOM     13  H   UNL     1       4.967  10.259  -0.707  0.00  0.00    +0.328 HD
ENDBRANCH   8  12
ENDBRANCH   4   7
BRANCH   1  14
ATOM     14  O   UNL     1       3.548   2.108  -0.021  0.00  0.00    -0.435 OA
BRANCH  14  17
ATOM     15  C   UNL     1       0.674   0.369   1.377  0.00  0.00    +0.019 A 
ATOM     16  C   UNL     1       1.862   1.071   1.298  0.00  0.00    +0.050 A 
ATOM     17  C   UNL     1       2.380   1.418   0.059  0.00  0.00    +0.165 A 
ATOM     18  C   UNL     1       1.703   1.058  -1.100  0.00  0.00    +0.167 A 
ATOM     19  C   UNL     1       0.515   0.356  -1.015  0.00  0.00    +0.057 A 
ATOM     20  C   UNL     1       0.001   0.012   0.223  0.00  0.00    +0.021 A 
ATOM     21 BR   UNL     1      -1.624  -0.949   0.337  0.00  0.00    -0.050 Br
ATOM     22  F   UNL     1       2.205   1.394  -2.308  0.00  0.00    -0.202 F 
ENDBRANCH  14  17
ENDBRANCH   1  14
TORSDOF 4
