REMARK  Name = ZINC62794714
REMARK  8 active torsions:
REMARK  status: ('A' for Active; 'I' for Inactive)
REMARK    1  A    between atoms: C_1  and  C_2
REMARK    2  A    between atoms: C_2  and  C_4
REMARK    3  A    between atoms: C_2  and  O_18
REMARK    4  A    between atoms: C_4  and  N_5
REMARK    5  A    between atoms: N_5  and  C_6
REMARK    6  A    between atoms: N_5  and  C_7
REMARK    7  A    between atoms: C_10  and  C_14
REMARK    8  A    between atoms: N_15  and  O_16
REMARK                            x       y       z     vdW  Elec       q    Type
REMARK                         _______ _______ _______ _____ _____    ______ ____
ROOT
ATOM      1  C   UNL     1      -0.127  -2.780   1.722  0.00  0.00    +0.048 A 
ATOM      2  C   UNL     1      -1.200  -3.188   0.938  0.00  0.00    +0.025 A 
ATOM      3  C   UNL     1      -2.183  -3.989   1.478  0.00  0.00    +0.013 A 
ATOM      4  C   UNL     1      -2.101  -4.391   2.812  0.00  0.00    +0.019 A 
ATOM      5  C   UNL     1      -1.023  -3.980   3.597  0.00  0.00    +0.033 A 
ATOM      6  C   UNL     1      -0.039  -3.183   3.051  0.00  0.00    +0.063 A 
ATOM      7 CL   UNL     1       1.306  -2.677   4.024  0.00  0.00    -0.082 Cl
ENDROOT
BRANCH   4   8
ATOM      8  C   UNL     1      -3.156  -5.250   3.393  0.00  0.00    +0.162 C 
ATOM      9  N   UNL     1      -4.161  -5.632   2.660  0.00  0.00    -0.072 NA
ATOM     10  N   UNL     1      -3.073  -5.647   4.717  0.00  0.00    -0.340 N 
ATOM     11  H   UNL     1      -2.324  -5.362   5.263  0.00  0.00    +0.144 HD
ATOM     12  H   UNL     1      -3.765  -6.211   5.098  0.00  0.00    +0.144 HD
BRANCH   9  13
ATOM     13  O   UNL     1      -5.171  -6.454   3.216  0.00  0.00    -0.408 OA
ATOM     14  H   UNL     1      -5.875  -6.686   2.596  0.00  0.00    +0.328 HD
ENDBRANCH   9  13
ENDBRANCH   4   8
BRANCH   1  15
ATOM     15  N   UNL     1       0.866  -1.969   1.174  0.00  0.00    -0.329 N 
ATOM     16  C   UNL     1       2.034  -2.575   0.530  0.00  0.00    +0.129 C 
BRANCH  15  17
ATOM     17  C   UNL     1       0.742  -0.511   1.242  0.00  0.00    +0.135 C 
BRANCH  17  19
ATOM     18  C   UNL     1      -0.019   1.526   0.010  0.00  0.00    +0.039 C 
ATOM     19  C   UNL     1       0.002  -0.004   0.002  0.00  0.00    +0.129 C 
BRANCH  19  20
ATOM     20  O   UNL     1      -1.339  -0.499   0.012  0.00  0.00    -0.391 OA
ATOM     21  H   UNL     1      -1.868  -0.216  -0.746  0.00  0.00    +0.210 HD
ENDBRANCH  19  20
ENDBRANCH  17  19
ENDBRANCH  15  17
ENDBRANCH   1  15
TORSDOF 6
