REMARK  Name = ZINC05131998
REMARK  7 active torsions:
REMARK  status: ('A' for Active; 'I' for Inactive)
REMARK    1  A    between atoms: C_1  and  C_2
REMARK    2  A    between atoms: C_1  and  O_19
REMARK    3  A    between atoms: C_2  and  C_4
REMARK    4  A    between atoms: C_2  and  O_18
REMARK    5  A    between atoms: C_6  and  O_17
REMARK    6  A    between atoms: C_8  and  O_16
REMARK    7  A    between atoms: C_10  and  O_15
REMARK                            x       y       z     vdW  Elec       q    Type
REMARK                         _______ _______ _______ _____ _____    ______ ____
ROOT
ATOM      1  C   UNL     1       2.527   3.727  -0.128  0.00  0.00    +0.238 C 
ATOM      2  C   UNL     1       2.386   5.251  -0.126  0.00  0.00    +0.189 C 
ATOM      3  C   UNL     1       3.766   5.889  -0.315  0.00  0.00    +0.186 C 
ATOM      4  C   UNL     1       4.352   5.422  -1.653  0.00  0.00    +0.254 C 
ATOM      5  C   UNL     1       4.302   3.911  -1.695  0.00  0.00    +0.339 C 
ATOM      6  O   UNL     1       5.276   3.265  -2.001  0.00  0.00    -0.248 OA
ATOM      7  O   UNL     1       3.139   3.305  -1.379  0.00  0.00    -0.454 OA
ENDROOT
BRANCH   4   8
ATOM      8  O   UNL     1       5.707   5.863  -1.765  0.00  0.00    -0.378 OA
ATOM      9  H   UNL     1       6.144   5.587  -2.583  0.00  0.00    +0.211 HD
ENDBRANCH   4   8
BRANCH   3  10
ATOM     10  O   UNL     1       4.629   5.487   0.751  0.00  0.00    -0.386 OA
ATOM     11  H   UNL     1       5.524   5.849   0.690  0.00  0.00    +0.210 HD
ENDBRANCH   3  10
BRANCH   2  12
ATOM     12  O   UNL     1       1.526   5.652  -1.194  0.00  0.00    -0.385 OA
ATOM     13  H   UNL     1       1.391   6.607  -1.253  0.00  0.00    +0.210 HD
ENDBRANCH   2  12
BRANCH   1  14
ATOM     14  C   UNL     1       1.145   3.085   0.008  0.00  0.00    +0.183 C 
BRANCH  14  15
ATOM     15  O   UNL     1       0.546   3.500   1.237  0.00  0.00    -0.386 OA
ATOM     16  H   UNL     1       1.052   3.256   2.023  0.00  0.00    +0.210 HD
ENDBRANCH  14  15
BRANCH  14  17
ATOM     17  C   UNL     1       1.286   1.562  -0.002  0.00  0.00    +0.191 C 
BRANCH  17  18
ATOM     18  O   UNL     1      -0.011   0.963   0.007  0.00  0.00    -0.392 OA
ATOM     19  H   UNL     1       0.002  -0.004   0.002  0.00  0.00    +0.210 HD
ENDBRANCH  17  18
ENDBRANCH  14  17
ENDBRANCH   1  14
TORSDOF 7
