REMARK  Name = ZINC02566313
REMARK  5 active torsions:
REMARK  status: ('A' for Active; 'I' for Inactive)
REMARK    1  A    between atoms: C_5  and  N_7
REMARK    2  A    between atoms: C_8  and  C_10
REMARK    3  A    between atoms: N_12  and  N_13
REMARK    4  A    between atoms: C_14  and  C_15
REMARK    5  A    between atoms: C_20  and  O_21
REMARK                            x       y       z     vdW  Elec       q    Type
REMARK                         _______ _______ _______ _____ _____    ______ ____
ROOT
ATOM      1  C   UNL     1       0.119  -4.258   0.190  0.00  0.00    +0.318 C 
ATOM      2  O   UNL     1       1.183  -4.845   0.176  0.00  0.00    -0.263 OA
ATOM      3  N   UNL     1      -1.032  -4.952   0.299  0.00  0.00    -0.199 N 
ATOM      4  H   UNL     1      -1.881  -4.483   0.310  0.00  0.00    +0.178 HD
ENDROOT
BRANCH   1   6
ATOM      5  N   UNL     1       1.238  -2.078  -0.022  0.00  0.00    -0.276 N 
ATOM      6  C   UNL     1       0.087  -2.772   0.087  0.00  0.00    +0.305 C 
ATOM      7  O   UNL     1      -0.976  -2.185   0.101  0.00  0.00    -0.265 OA
ATOM      8  H   UNL     1       2.080  -2.549  -0.114  0.00  0.00    +0.155 HD
BRANCH   5  13
ATOM      9  C   UNL     1       0.153   1.371   0.637  0.00  0.00    +0.002 A 
ATOM     10  C   UNL     1       1.173   2.086   0.035  0.00  0.00    +0.002 A 
ATOM     11  C   UNL     1       2.215   1.422  -0.585  0.00  0.00    +0.022 A 
ATOM     12  C   UNL     1       2.240   0.040  -0.607  0.00  0.00    +0.062 A 
ATOM     13  C   UNL     1       1.216  -0.681  -0.003  0.00  0.00    +0.052 A 
ATOM     14  C   UNL     1       0.172  -0.009   0.620  0.00  0.00    +0.025 A 
ATOM     15 CL   UNL     1       3.547  -0.794  -1.387  0.00  0.00    -0.082 Cl
ENDBRANCH   5  13
ENDBRANCH   1   6
BRANCH   3  16
ATOM     16  N   UNL     1      -1.001  -6.349   0.396  0.00  0.00    -0.187 NA
ATOM     17  C   UNL     1      -2.111  -7.017   0.501  0.00  0.00    +0.142 C 
BRANCH  17  18
ATOM     18  C   UNL     1      -2.079  -8.486   0.603  0.00  0.00    +0.037 A 
ATOM     19  C   UNL     1      -3.269  -9.209   0.710  0.00  0.00    +0.028 A 
ATOM     20  C   UNL     1      -3.232 -10.585   0.805  0.00  0.00    +0.019 A 
ATOM     21  C   UNL     1      -2.018 -11.253   0.794  0.00  0.00    +0.019 A 
ATOM     22  C   UNL     1      -0.834 -10.549   0.688  0.00  0.00    +0.047 A 
ATOM     23  C   UNL     1      -0.853  -9.167   0.587  0.00  0.00    +0.126 A 
ATOM     24 BR   UNL     1      -4.844 -11.563   0.951  0.00  0.00    -0.050 Br
BRANCH  23  25
ATOM     25  O   UNL     1       0.310  -8.476   0.478  0.00  0.00    -0.506 OA
ATOM     26  H   UNL     1       0.693  -8.213   1.326  0.00  0.00    +0.292 HD
ENDBRANCH  23  25
ENDBRANCH  17  18
ENDBRANCH   3  16
TORSDOF 5
