REMARK  Name = ZINC62877802
REMARK  6 active torsions:
REMARK  status: ('A' for Active; 'I' for Inactive)
REMARK    1  A    between atoms: C_1  and  C_2
REMARK    2  A    between atoms: C_2  and  C_3
REMARK    3  A    between atoms: C_3  and  C_4
REMARK    4  A    between atoms: C_4  and  C_20
REMARK    5  A    between atoms: N_8  and  C_10
REMARK    6  A    between atoms: C_17  and  O_19
REMARK                            x       y       z     vdW  Elec       q    Type
REMARK                         _______ _______ _______ _____ _____    ______ ____
ROOT
ATOM      1  C   UNL     1       0.477  -2.045  -1.427  0.00  0.00    +0.057 C 
ATOM      2  C   UNL     1      -0.838  -2.809  -1.250  0.00  0.00    +0.014 C 
ATOM      3  C   UNL     1      -0.539  -4.309  -1.176  0.00  0.00    -0.018 C 
ATOM      4  C   UNL     1       0.215  -4.737  -2.437  0.00  0.00    -0.078 C 
ATOM      5  N   UNL     1       1.474  -3.989  -2.536  0.00  0.00    +0.385 N 
ATOM      6  C   UNL     1       1.193  -2.556  -2.679  0.00  0.00    -0.060 C 
ATOM      7  H   UNL     1       2.021  -4.142  -1.701  0.00  0.00    -0.081 HD
ENDROOT
BRANCH   5   8
ATOM      8  C   UNL     1       2.230  -4.458  -3.705  0.00  0.00    -0.017 C 
ATOM      9  C   UNL     1       2.264  -6.003  -3.683  0.00  0.00    +0.153 C 
ATOM     10  S   UNL     1       3.962  -6.335  -4.328  0.00  0.00    -0.030 S 
ATOM     11  O   UNL     1       4.493  -7.485  -3.685  0.00  0.00    -0.174 OA
ATOM     12  O   UNL     1       3.948  -6.263  -5.747  0.00  0.00    -0.174 OA
ATOM     13  C   UNL     1       4.773  -4.824  -3.646  0.00  0.00    +0.195 C 
ATOM     14  C   UNL     1       3.608  -3.814  -3.683  0.00  0.00    +0.123 C 
BRANCH  14  15
ATOM     15  O   UNL     1       3.699  -2.972  -2.532  0.00  0.00    -0.392 OA
ATOM     16  H   UNL     1       4.550  -2.522  -2.441  0.00  0.00    +0.210 HD
ENDBRANCH  14  15
ENDBRANCH   5   8
BRANCH   1  17
ATOM     17  C   UNL     1       1.354  -2.263  -0.222  0.00  0.00    +0.360 C 
ATOM     18  O   UNL     1       0.966  -1.925   0.883  0.00  0.00    -0.246 OA
ATOM     19  O   UNL     1       2.451  -2.779  -0.351  0.00  0.00    -0.246 OA
ENDBRANCH   1  17
BRANCH   1  20
ATOM     20  C   UNL     1       0.183  -0.551  -1.581  0.00  0.00    +0.016 C 
BRANCH  20  22
ATOM     21  C   UNL     1      -0.827   1.453  -0.483  0.00  0.00    +0.004 C 
ATOM     22  C   UNL     1      -0.533  -0.041  -0.329  0.00  0.00    -0.002 C 
ENDBRANCH  20  22
ENDBRANCH   1  20
TORSDOF 5
