REMARK  Name = ZINC36533160
REMARK  2 active torsions:
REMARK  status: ('A' for Active; 'I' for Inactive)
REMARK    1  A    between atoms: C_5  and  S_8
REMARK    2  A    between atoms: S_8  and  N_11
REMARK                            x       y       z     vdW  Elec       q    Type
REMARK                         _______ _______ _______ _____ _____    ______ ____
ROOT
ATOM      1  C   UNL     1      -0.017   1.380   0.010  0.00  0.00    +0.055 A 
ATOM      2  C   UNL     1       1.172   2.088   0.002  0.00  0.00    +0.022 A 
ATOM      3  C   UNL     1       2.379   1.413  -0.013  0.00  0.00    +0.037 A 
ATOM      4  C   UNL     1       2.398   0.029  -0.022  0.00  0.00    +0.071 A 
ATOM      5  C   UNL     1       1.211  -0.679  -0.014  0.00  0.00    +0.158 A 
ATOM      6  C   UNL     1       0.002  -0.004   0.002  0.00  0.00    +0.152 A 
ATOM      7  F   UNL     1      -1.158  -0.696   0.010  0.00  0.00    -0.203 F 
ATOM      8 CL   UNL     1       3.914  -0.817  -0.042  0.00  0.00    -0.081 Cl
ATOM      9 BR   UNL     1       1.146   3.978   0.013  0.00  0.00    -0.050 Br
ENDROOT
BRANCH   5  10
ATOM     10  S   UNL     1       1.236  -2.441  -0.025  0.00  0.00    +0.060 S 
ATOM     11  O   UNL     1      -0.009  -2.861  -0.566  0.00  0.00    -0.153 OA
ATOM     12  O   UNL     1       2.481  -2.826  -0.592  0.00  0.00    -0.153 OA
BRANCH  10  13
ATOM     13  N   UNL     1       1.259  -2.941   1.553  0.00  0.00    -0.203 NA
ATOM     14  H   UNL     1       1.257  -2.286   2.269  0.00  0.00    +0.144 HD
ATOM     15  H   UNL     1       1.274  -3.888   1.762  0.00  0.00    +0.144 HD
ENDBRANCH  10  13
ENDBRANCH   5  10
TORSDOF 2
