REMARK  Name = ZINC67006355
REMARK  5 active torsions:
REMARK  status: ('A' for Active; 'I' for Inactive)
REMARK    1  A    between atoms: C_3  and  O_19
REMARK    2  A    between atoms: C_6  and  C_7
REMARK    3  A    between atoms: C_8  and  C_9
REMARK    4  A    between atoms: C_8  and  C_11
REMARK    5  A    between atoms: O_19  and  C_20
REMARK                            x       y       z     vdW  Elec       q    Type
REMARK                         _______ _______ _______ _____ _____    ______ ____
ROOT
ATOM      1  C   UNL     1      -1.020  -0.712   0.911  0.00  0.00    +0.030 C 
ATOM      2  C   UNL     1      -1.825  -0.931  -0.168  0.00  0.00    +0.097 C 
ENDROOT
BRANCH   2   3
ATOM      3  C   UNL     1      -1.829   0.028  -1.294  0.00  0.00    +0.177 A 
ATOM      4  N   UNL     1      -0.780   0.824  -1.494  0.00  0.00    -0.194 NA
ATOM      5  C   UNL     1      -0.785   1.685  -2.506  0.00  0.00    +0.217 A 
ATOM      6  N   UNL     1      -1.835   1.751  -3.319  0.00  0.00    -0.181 NA
ATOM      7  C   UNL     1      -2.881   0.957  -3.120  0.00  0.00    +0.217 A 
ATOM      8  N   UNL     1      -3.970   1.026  -3.965  0.00  0.00    -0.327 N 
ATOM      9  N   UNL     1      -2.877   0.091  -2.112  0.00  0.00    -0.194 NA
ATOM     10  N   UNL     1       0.301   2.512  -2.713  0.00  0.00    -0.327 N 
ATOM     11  H   UNL     1      -3.972   1.655  -4.704  0.00  0.00    +0.145 HD
ATOM     12  H   UNL     1       1.098   2.412  -2.169  0.00  0.00    +0.145 HD
ATOM     13  H   UNL     1       0.268   3.192  -3.404  0.00  0.00    +0.145 HD
ATOM     14  H   UNL     1      -4.734   0.446  -3.821  0.00  0.00    +0.145 HD
ENDBRANCH   2   3
BRANCH   1  20
ATOM     15  C   UNL     1      -0.963   1.768   0.769  0.00  0.00    +0.011 A 
ATOM     16  C   UNL     1      -0.291   2.956   0.899  0.00  0.00    +0.047 A 
ATOM     17  C   UNL     1       1.039   2.966   1.307  0.00  0.00    +0.128 A 
ATOM     18  C   UNL     1       1.695   1.771   1.585  0.00  0.00    +0.047 A 
ATOM     19  C   UNL     1       1.033   0.577   1.458  0.00  0.00    +0.011 A 
ATOM     20  C   UNL     1      -0.307   0.561   1.048  0.00  0.00    -0.023 A 
BRANCH  17  21
ATOM     21  O   UNL     1       1.699   4.144   1.434  0.00  0.00    -0.456 OA
BRANCH  21  22
ATOM     22  C   UNL     1       1.431   4.912   2.523  0.00  0.00    +0.134 A 
ATOM     23  C   UNL     1       0.428   4.539   3.405  0.00  0.00    +0.084 A 
ATOM     24  C   UNL     1       0.157   5.321   4.514  0.00  0.00    +0.130 A 
ATOM     25  C   UNL     1       0.886   6.475   4.743  0.00  0.00    +0.077 A 
ATOM     26  C   UNL     1       1.888   6.848   3.864  0.00  0.00    +0.130 A 
ATOM     27  C   UNL     1       2.166   6.065   2.757  0.00  0.00    +0.084 A 
ATOM     28  F   UNL     1       2.599   7.975   4.089  0.00  0.00    -0.205 F 
ATOM     29  F   UNL     1      -0.821   4.958   5.373  0.00  0.00    -0.205 F 
ENDBRANCH  21  22
ENDBRANCH  17  21
ENDBRANCH   1  20
BRANCH   2  30
ATOM     30  C   UNL     1      -2.667  -2.088  -0.210  0.00  0.00    +0.103 C 
ATOM     31  N   UNL     1      -3.336  -3.006  -0.244  0.00  0.00    -0.191 NA
ENDBRANCH   2  30
TORSDOF 5
