REMARK  Name = ZINC35288901
REMARK  9 active torsions:
REMARK  status: ('A' for Active; 'I' for Inactive)
REMARK    1  A    between atoms: C_1  and  C_2
REMARK    2  A    between atoms: C_6  and  C_29
REMARK    3  A    between atoms: C_7  and  N_8
REMARK    4  A    between atoms: C_9  and  C_11
REMARK    5  A    between atoms: C_12  and  N_28
REMARK    6  A    between atoms: C_17  and  O_26
REMARK    7  A    between atoms: C_18  and  O_24
REMARK    8  A    between atoms: O_24  and  C_25
REMARK    9  A    between atoms: O_26  and  C_27
REMARK                            x       y       z     vdW  Elec       q    Type
REMARK                         _______ _______ _______ _____ _____    ______ ____
ROOT
ATOM      1  C   UNL     1      -0.156   0.118   4.777  0.00  0.00    +0.097 A 
ATOM      2  C   UNL     1      -0.304  -0.369   6.055  0.00  0.00    +0.053 A 
ATOM      3  C   UNL     1      -0.362   0.583   7.158  0.00  0.00    +0.028 A 
ATOM      4  C   UNL     1      -0.508   0.303   8.531  0.00  0.00    +0.022 A 
ATOM      5  C   UNL     1      -0.541   1.365   9.436  0.00  0.00    +0.003 A 
ATOM      6  C   UNL     1      -0.684   1.153  10.821  0.00  0.00    +0.059 A 
ATOM      7  C   UNL     1      -0.710   2.222  11.665  0.00  0.00    +0.162 A 
ATOM      8  C   UNL     1      -0.598   3.535  11.186  0.00  0.00    +0.163 A 
ATOM      9  C   UNL     1      -0.458   3.799   9.854  0.00  0.00    +0.075 A 
ATOM     10  C   UNL     1      -0.423   2.737   8.937  0.00  0.00    +0.051 A 
ATOM     11  N   UNL     1      -0.287   2.946   7.626  0.00  0.00    -0.349 N 
ATOM     12  C   UNL     1      -0.256   1.947   6.777  0.00  0.00    +0.088 A 
ATOM     13  S   UNL     1      -0.082   1.882   5.008  0.00  0.00    -0.064 S 
ATOM     14  H   UNL     1      -0.209   3.854   7.294  0.00  0.00    +0.166 HD
ENDROOT
BRANCH   1  16
ATOM     15  N   UNL     1       0.076   0.040   2.396  0.00  0.00    -0.281 N 
ATOM     16  C   UNL     1      -0.076  -0.611   3.566  0.00  0.00    +0.257 C 
ATOM     17  O   UNL     1      -0.144  -1.827   3.581  0.00  0.00    -0.269 OA
ATOM     18  H   UNL     1       0.198   1.003   2.389  0.00  0.00    +0.155 HD
BRANCH  15  25
ATOM     19  C   UNL     1       2.544  -0.377   1.044  0.00  0.00    +0.045 C 
ATOM     20  C   UNL     1       1.239  -0.897   0.499  0.00  0.00    -0.029 A 
ATOM     21  C   UNL     1       1.218  -1.604  -0.687  0.00  0.00    +0.005 A 
ATOM     22  C   UNL     1       0.021  -2.082  -1.188  0.00  0.00    +0.001 A 
ATOM     23  C   UNL     1      -1.159  -1.853  -0.503  0.00  0.00    +0.005 A 
ATOM     24  C   UNL     1      -1.145  -1.147   0.684  0.00  0.00    -0.029 A 
ATOM     25  C   UNL     1       0.057  -0.671   1.192  0.00  0.00    +0.040 A 
ATOM     26  C   UNL     1      -2.431  -0.899   1.429  0.00  0.00    +0.045 C 
ENDBRANCH  15  25
ENDBRANCH   1  16
BRANCH   2  27
ATOM     27  N   UNL     1      -0.396  -1.733   6.289  0.00  0.00    -0.356 N 
ATOM     28  H   UNL     1      -0.356  -2.356   5.547  0.00  0.00    +0.142 HD
ATOM     29  H   UNL     1      -0.500  -2.064   7.195  0.00  0.00    +0.142 HD
ENDBRANCH   2  27
BRANCH   8  30
ATOM     30  O   UNL     1      -0.631   4.568  12.068  0.00  0.00    -0.491 OA
ATOM     31  C   UNL     1      -0.513   5.886  11.527  0.00  0.00    +0.277 C 
ENDBRANCH   8  30
BRANCH   7  32
ATOM     32  O   UNL     1      -0.848   2.011  13.001  0.00  0.00    -0.491 OA
ATOM     33  C   UNL     1      -0.959   0.654  13.436  0.00  0.00    +0.277 C 
ENDBRANCH   7  32
TORSDOF 5
