REMARK  Name = ZINC40151169
REMARK  6 active torsions:
REMARK  status: ('A' for Active; 'I' for Inactive)
REMARK    1  A    between atoms: C_4  and  C_7
REMARK    2  A    between atoms: C_7  and  O_9
REMARK    3  A    between atoms: O_9  and  C_10
REMARK    4  A    between atoms: C_10  and  C_11
REMARK    5  A    between atoms: C_14  and  C_24
REMARK    6  A    between atoms: N_16  and  C_17
REMARK                            x       y       z     vdW  Elec       q    Type
REMARK                         _______ _______ _______ _____ _____    ______ ____
ROOT
ATOM      1  C   UNL     1       4.824  -4.178  -0.067  0.00  0.00    +0.156 C 
ATOM      2  C   UNL     1       3.884  -4.596  -1.176  0.00  0.00    +0.023 C 
ATOM      3  C   UNL     1       2.850  -5.188  -0.617  0.00  0.00    +0.051 C 
ATOM      4  N   UNL     1       2.963  -5.230   0.760  0.00  0.00    -0.265 N 
ATOM      5  N   UNL     1       4.162  -4.624   1.170  0.00  0.00    -0.243 N 
ATOM      6  H   UNL     1       2.308  -5.622   1.358  0.00  0.00    +0.170 HD
ENDROOT
BRANCH   3   7
ATOM      7  C   UNL     1       1.683  -5.751  -1.385  0.00  0.00    +0.212 C 
ATOM      8  C   UNL     1       0.477  -4.888  -1.091  0.00  0.00    +0.245 C 
ATOM      9  O   UNL     1       0.501  -3.697  -1.329  0.00  0.00    -0.273 OA
ATOM     10  N   UNL     1      -0.614  -5.452  -0.568  0.00  0.00    -0.282 N 
ATOM     11  C   UNL     1      -0.665  -6.746  -0.301  0.00  0.00    +0.057 A 
ATOM     12  C   UNL     1      -1.836  -7.310   0.253  0.00  0.00    +0.025 A 
ATOM     13  C   UNL     1      -1.893  -8.634   0.530  0.00  0.00    +0.002 A 
ATOM     14  C   UNL     1      -0.821  -9.508   0.289  0.00  0.00    +0.002 A 
ATOM     15  C   UNL     1       0.344  -9.073  -0.239  0.00  0.00    +0.027 A 
ATOM     16  C   UNL     1       0.486  -7.645  -0.567  0.00  0.00    +0.058 A 
ATOM     17  N   UNL     1       1.593  -7.187  -1.076  0.00  0.00    -0.368 N 
ATOM     18  H   UNL     1       2.341  -7.779  -1.247  0.00  0.00    +0.161 HD
ATOM     19  H   UNL     1      -1.387  -4.898  -0.379  0.00  0.00    +0.155 HD
ENDBRANCH   3   7
BRANCH   5  20
ATOM     20  C   UNL     1       4.630  -4.475   2.478  0.00  0.00    +0.048 A 
ATOM     21  C   UNL     1       5.843  -3.841   2.716  0.00  0.00    +0.026 A 
ATOM     22  C   UNL     1       6.303  -3.695   4.010  0.00  0.00    +0.017 A 
ATOM     23  C   UNL     1       5.556  -4.179   5.069  0.00  0.00    +0.018 A 
ATOM     24  C   UNL     1       4.348  -4.811   4.836  0.00  0.00    +0.017 A 
ATOM     25  C   UNL     1       3.880  -4.954   3.545  0.00  0.00    +0.026 A 
ATOM     26 BR   UNL     1       6.190  -3.978   6.840  0.00  0.00    -0.050 Br
ENDBRANCH   5  20
BRANCH   1  27
ATOM     27  C   UNL     1       5.000  -2.659  -0.061  0.00  0.00    +0.260 C 
BRANCH  27  28
ATOM     28  O   UNL     1       3.717  -2.031  -0.045  0.00  0.00    -0.459 OA
BRANCH  28  29
ATOM     29  C   UNL     1       3.695  -0.684  -0.037  0.00  0.00    +0.339 C 
ATOM     30  O   UNL     1       4.737  -0.059  -0.044  0.00  0.00    -0.245 OA
BRANCH  29  34
ATOM     31  C   UNL     1      -0.017   1.379   0.010  0.00  0.00    +0.000 A 
ATOM     32  C   UNL     1       1.168   2.094   0.002  0.00  0.00    +0.001 A 
ATOM     33  C   UNL     1       2.377   1.430  -0.013  0.00  0.00    +0.015 A 
ATOM     34  C   UNL     1       2.404   0.034  -0.021  0.00  0.00    +0.059 A 
ATOM     35  C   UNL     1       1.204  -0.681  -0.013  0.00  0.00    +0.015 A 
ATOM     36  C   UNL     1       0.002  -0.004   0.002  0.00  0.00    +0.001 A 
ENDBRANCH  29  34
ENDBRANCH  28  29
ENDBRANCH  27  28
ENDBRANCH   1  27
TORSDOF 6
