REMARK  Name = ZINC41414008
REMARK  3 active torsions:
REMARK  status: ('A' for Active; 'I' for Inactive)
REMARK    1  A    between atoms: C_4  and  N_15
REMARK    2  A    between atoms: C_6  and  N_7
REMARK    3  A    between atoms: N_15  and  N_16
REMARK                            x       y       z     vdW  Elec       q    Type
REMARK                         _______ _______ _______ _____ _____    ______ ____
ROOT
ATOM      1  C   UNL     1      -0.017   1.385   0.010  0.00  0.00    +0.026 A 
ATOM      2  C   UNL     1       1.170   2.094   0.002  0.00  0.00    +0.024 A 
ATOM      3  C   UNL     1       2.378   1.424  -0.013  0.00  0.00    +0.063 A 
ATOM      4  C   UNL     1       2.404   0.033  -0.021  0.00  0.00    +0.061 A 
ATOM      5  C   UNL     1       1.214  -0.680  -0.013  0.00  0.00    +0.050 A 
ATOM      6  C   UNL     1       0.002  -0.004   0.002  0.00  0.00    +0.053 A 
ATOM      7 CL   UNL     1       3.866   2.318  -0.023  0.00  0.00    -0.082 Cl
ENDROOT
BRANCH   6   8
ATOM      8  N   UNL     1      -1.198  -0.720   0.010  0.00  0.00    -0.207 N 
ATOM      9  C   UNL     1      -1.261  -2.090   0.541  0.00  0.00    +0.131 C 
ATOM     10  C   UNL     1      -1.790  -3.031  -0.538  0.00  0.00    +0.022 C 
ATOM     11  C   UNL     1      -3.231  -2.679  -0.902  0.00  0.00    +0.026 C 
ATOM     12  C   UNL     1      -3.262  -1.351  -1.668  0.00  0.00    +0.189 C 
ATOM     13  S   UNL     1      -2.603  -0.046  -0.575  0.00  0.00    +0.045 S 
ATOM     14  O   UNL     1      -3.437   0.117   0.564  0.00  0.00    -0.155 OA
ATOM     15  O   UNL     1      -2.184   1.076  -1.339  0.00  0.00    -0.155 OA
ENDBRANCH   6   8
BRANCH   4  16
ATOM     16  N   UNL     1       3.626  -0.644  -0.036  0.00  0.00    -0.282 N 
ATOM     17  H   UNL     1       4.457  -0.144  -0.042  0.00  0.00    +0.166 HD
BRANCH  16  18
ATOM     18  N   UNL     1       3.650  -2.010  -0.044  0.00  0.00    -0.256 NA
ATOM     19  H   UNL     1       3.122  -2.376  -0.822  0.00  0.00    +0.140 HD
ATOM     20  H   UNL     1       4.598  -2.355  -0.055  0.00  0.00    +0.140 HD
ENDBRANCH  16  18
ENDBRANCH   4  16
TORSDOF 3
