REMARK  Name = ZINC36769023
REMARK  7 active torsions:
REMARK  status: ('A' for Active; 'I' for Inactive)
REMARK    1  A    between atoms: C_1  and  C_2
REMARK    2  A    between atoms: C_2  and  C_3
REMARK    3  A    between atoms: N_6  and  C_10
REMARK    4  A    between atoms: C_10  and  C_12
REMARK    5  A    between atoms: C_10  and  C_13
REMARK    6  A    between atoms: N_15  and  C_16
REMARK    7  A    between atoms: C_21  and  N_22
REMARK                            x       y       z     vdW  Elec       q    Type
REMARK                         _______ _______ _______ _____ _____    ______ ____
ROOT
ATOM      1  C   UNL     1       1.933  -4.420   3.884  0.00  0.00    +0.234 C 
ATOM      2  O   UNL     1       2.391  -3.594   4.645  0.00  0.00    -0.274 OA
ATOM      3  N   UNL     1       1.948  -5.726   4.218  0.00  0.00    -0.283 N 
ATOM      4  H   UNL     1       1.511  -6.378   3.648  0.00  0.00    +0.155 HD
ENDROOT
BRANCH   3   5
ATOM      5  C   UNL     1       2.596  -6.142   5.390  0.00  0.00    +0.054 A 
ATOM      6  C   UNL     1       3.621  -5.378   5.926  0.00  0.00    +0.026 A 
ATOM      7  C   UNL     1       4.259  -5.790   7.081  0.00  0.00    +0.022 A 
ATOM      8  C   UNL     1       3.877  -6.965   7.706  0.00  0.00    +0.043 A 
ATOM      9  C   UNL     1       2.855  -7.732   7.178  0.00  0.00    +0.044 A 
ATOM     10  C   UNL     1       2.206  -7.322   6.022  0.00  0.00    +0.047 A 
ATOM     11 CL   UNL     1       4.683  -7.476   9.156  0.00  0.00    -0.083 Cl
BRANCH  10  12
ATOM     12  N   UNL     1       1.168  -8.094   5.489  0.00  0.00    -0.356 N 
ATOM     13  H   UNL     1       0.719  -7.809   4.678  0.00  0.00    +0.142 HD
ATOM     14  H   UNL     1       0.899  -8.915   5.930  0.00  0.00    +0.142 HD
ENDBRANCH  10  12
ENDBRANCH   3   5
BRANCH   1  15
ATOM     15  C   UNL     1       1.347  -3.987   2.565  0.00  0.00    +0.140 C 
ATOM     16  C   UNL     1       2.116  -4.652   1.422  0.00  0.00    +0.034 C 
BRANCH  15  19
ATOM     17  C   UNL     1       0.767  -0.514   1.225  0.00  0.00    +0.132 C 
ATOM     18  C   UNL     1       0.682  -2.042   1.283  0.00  0.00    +0.116 C 
ATOM     19  N   UNL     1       1.450  -2.527   2.439  0.00  0.00    -0.287 NA
ATOM     20  C   UNL     1       2.855  -2.103   2.347  0.00  0.00    +0.113 C 
ATOM     21  C   UNL     1       2.918  -0.575   2.278  0.00  0.00    +0.175 C 
ATOM     22  O   UNL     1       2.141  -0.120   1.167  0.00  0.00    -0.374 OA
BRANCH  17  24
ATOM     23  C   UNL     1       0.017   1.521  -0.015  0.00  0.00    +0.006 C 
ATOM     24  C   UNL     1       0.037  -0.009  -0.021  0.00  0.00    +0.029 C 
ENDBRANCH  17  24
ENDBRANCH  15  19
ENDBRANCH   1  15
TORSDOF 5
