REMARK  Name = ZINC41213929
REMARK  7 active torsions:
REMARK  status: ('A' for Active; 'I' for Inactive)
REMARK    1  A    between atoms: C_1  and  O_2
REMARK    2  A    between atoms: O_2  and  C_3
REMARK    3  A    between atoms: C_5  and  C_19
REMARK    4  A    between atoms: C_8  and  O_9
REMARK    5  A    between atoms: O_9  and  C_10
REMARK    6  A    between atoms: C_10  and  C_11
REMARK    7  A    between atoms: N_20  and  N_21
REMARK                            x       y       z     vdW  Elec       q    Type
REMARK                         _______ _______ _______ _____ _____    ______ ____
ROOT
ATOM      1  C   UNL     1      -1.201  -0.638   0.010  0.00  0.00    +0.162 A 
ATOM      2  C   UNL     1      -2.370   0.099   0.019  0.00  0.00    +0.059 A 
ATOM      3  C   UNL     1      -3.605  -0.555   0.028  0.00  0.00    -0.002 A 
ATOM      4  C   UNL     1      -3.651  -1.952   0.026  0.00  0.00    +0.013 A 
ATOM      5  C   UNL     1      -2.480  -2.680   0.017  0.00  0.00    +0.050 A 
ATOM      6  C   UNL     1      -1.255  -2.030   0.003  0.00  0.00    +0.162 A 
ENDROOT
BRANCH   1   8
ATOM      7  C   UNL     1      -0.017   1.425   0.010  0.00  0.00    +0.277 C 
ATOM      8  O   UNL     1       0.002  -0.004   0.002  0.00  0.00    -0.491 OA
ENDBRANCH   1   8
BRANCH   3   9
ATOM      9  C   UNL     1      -4.856   0.226   0.038  0.00  0.00    +0.140 C 
ATOM     10  N   UNL     1      -6.001  -0.384   0.046  0.00  0.00    -0.179 NA
BRANCH  10  11
ATOM     11  N   UNL     1      -7.189   0.358   0.056  0.00  0.00    -0.249 N 
ATOM     12  C   UNL     1      -8.398  -0.285   0.064  0.00  0.00    +0.187 C 
ATOM     13  N   UNL     1      -9.529   0.421   0.074  0.00  0.00    -0.370 N 
ATOM     14  N   UNL     1      -8.445  -1.617   0.063  0.00  0.00    -0.370 N 
ATOM     15  H   UNL     1      -7.156   1.328   0.057  0.00  0.00    +0.192 HD
ATOM     16  H   UNL     1      -9.495   1.390   0.075  0.00  0.00    +0.159 HD
ATOM     17  H   UNL     1      -7.622  -2.130   0.056  0.00  0.00    +0.159 HD
ATOM     18  H   UNL     1      -9.301  -2.072   0.068  0.00  0.00    +0.159 HD
ATOM     19  H   UNL     1     -10.385  -0.035   0.080  0.00  0.00    +0.159 HD
ENDBRANCH  10  11
ENDBRANCH   3   9
BRANCH   6  20
ATOM     20  O   UNL     1      -0.104  -2.753  -0.012  0.00  0.00    -0.484 OA
BRANCH  20  21
ATOM     21  C   UNL     1      -0.232  -4.176  -0.018  0.00  0.00    +0.267 C 
BRANCH  21  22
ATOM     22  C   UNL     1       1.138  -4.804  -0.035  0.00  0.00    +0.026 A 
ATOM     23  C   UNL     1       1.758  -5.080  -1.240  0.00  0.00    +0.049 A 
ATOM     24  C   UNL     1       3.016  -5.656  -1.254  0.00  0.00    +0.020 A 
ATOM     25  C   UNL     1       3.653  -5.956  -0.065  0.00  0.00    +0.003 A 
ATOM     26  C   UNL     1       3.034  -5.680   1.140  0.00  0.00    +0.020 A 
ATOM     27  C   UNL     1       1.779  -5.098   1.156  0.00  0.00    +0.049 A 
ATOM     28 CL   UNL     1       1.005  -4.745   2.669  0.00  0.00    -0.083 Cl
ATOM     29 CL   UNL     1       0.958  -4.705  -2.734  0.00  0.00    -0.083 Cl
ENDBRANCH  21  22
ENDBRANCH  20  21
ENDBRANCH   6  20
TORSDOF 6
