REMARK  Name = ZINC53492557
REMARK  2 active torsions:
REMARK  status: ('A' for Active; 'I' for Inactive)
REMARK    1  A    between atoms: C_7  and  N_12
REMARK    2  A    between atoms: C_18  and  C_21
REMARK                            x       y       z     vdW  Elec       q    Type
REMARK                         _______ _______ _______ _____ _____    ______ ____
ROOT
ATOM      1  N   UNL     1      -0.062  -2.615  -0.750  0.00  0.00    -0.292 N 
ATOM      2  C   UNL     1      -1.278  -2.644  -0.168  0.00  0.00    +0.303 C 
ATOM      3  O   UNL     1      -1.388  -2.416   1.021  0.00  0.00    -0.253 OA
ATOM      4  N   UNL     1      -2.370  -2.926  -0.904  0.00  0.00    -0.286 N 
ATOM      5  C   UNL     1      -2.242  -3.318  -2.315  0.00  0.00    +0.110 C 
ATOM      6  C   UNL     1      -3.130  -2.402  -3.163  0.00  0.00    +0.032 C 
ATOM      7  C   UNL     1      -4.562  -2.447  -2.627  0.00  0.00    +0.078 C 
ATOM      8  C   UNL     1      -4.584  -1.939  -1.183  0.00  0.00    +0.032 C 
ATOM      9  C   UNL     1      -3.712  -2.855  -0.311  0.00  0.00    +0.110 C 
ATOM     10  H   UNL     1       0.037  -2.871  -1.680  0.00  0.00    +0.151 HD
ENDROOT
BRANCH   1  17
ATOM     11  C   UNL     1      -0.026   1.377  -0.006  0.00  0.00    +0.000 A 
ATOM     12  C   UNL     1       1.159   2.090  -0.016  0.00  0.00    +0.001 A 
ATOM     13  C   UNL     1       2.358   1.411  -0.037  0.00  0.00    +0.015 A 
ATOM     14  C   UNL     1       2.384   0.016  -0.043  0.00  0.00    +0.013 A 
ATOM     15  C   UNL     1       1.201  -0.699  -0.018  0.00  0.00    -0.014 A 
ATOM     16  C   UNL     1      -0.004  -0.000  -0.008  0.00  0.00    +0.006 A 
ATOM     17  C   UNL     1       1.110  -2.196   0.023  0.00  0.00    +0.107 C 
ATOM     18  C   UNL     1       2.334  -2.897  -0.538  0.00  0.00    +0.038 C 
ATOM     19  C   UNL     1       3.562  -2.512   0.300  0.00  0.00    +0.076 C 
ATOM     20  S   UNL     1       3.957  -0.782  -0.091  0.00  0.00    -0.125 S 
ENDBRANCH   1  17
BRANCH   7  21
ATOM     21  C   UNL     1      -5.446  -1.574  -3.480  0.00  0.00    +0.214 C 
ATOM     22  O   UNL     1      -4.976  -0.975  -4.424  0.00  0.00    -0.276 OA
ATOM     23  N   UNL     1      -6.758  -1.459  -3.194  0.00  0.00    -0.329 N 
ATOM     24  H   UNL     1      -7.133  -1.938  -2.438  0.00  0.00    +0.145 HD
ATOM     25  H   UNL     1      -7.327  -0.897  -3.743  0.00  0.00    +0.145 HD
ENDBRANCH   7  21
TORSDOF 2
