REMARK  Name = ZINC50121501
REMARK  2 active torsions:
REMARK  status: ('A' for Active; 'I' for Inactive)
REMARK    1  A    between atoms: C_1  and  N_2
REMARK    2  A    between atoms: C_5  and  C_8
REMARK                            x       y       z     vdW  Elec       q    Type
REMARK                         _______ _______ _______ _____ _____    ______ ____
ROOT
ATOM      1  C   UNL     1      -3.047   3.518  -2.627  0.00  0.00    -0.013 A 
ATOM      2  C   UNL     1      -3.269   4.788  -3.129  0.00  0.00    +0.055 A 
ATOM      3  C   UNL     1      -4.511   5.379  -2.973  0.00  0.00    +0.163 A 
ATOM      4  C   UNL     1      -5.528   4.700  -2.316  0.00  0.00    +0.176 A 
ATOM      5  C   UNL     1      -5.302   3.429  -1.815  0.00  0.00    +0.063 A 
ATOM      6  C   UNL     1      -4.060   2.839  -1.977  0.00  0.00    +0.025 A 
ATOM      7 BR   UNL     1      -6.685   2.502  -0.918  0.00  0.00    -0.046 Br
ATOM      8  O   UNL     1      -6.749   5.292  -2.168  0.00  0.00    -0.487 OA
ATOM      9  C   UNL     1      -6.794   6.421  -1.293  0.00  0.00    +0.232 C 
ATOM     10  C   UNL     1      -6.391   7.690  -2.028  0.00  0.00    +0.082 C 
ATOM     11  C   UNL     1      -4.943   7.657  -2.489  0.00  0.00    +0.232 C 
ATOM     12  O   UNL     1      -4.744   6.631  -3.464  0.00  0.00    -0.488 OA
ENDROOT
BRANCH   1  17
ATOM     13  C   UNL     1      -0.013   1.086   0.008  0.00  0.00    +0.137 C 
ATOM     14  N   UNL     1      -0.721   1.571  -1.179  0.00  0.00    -0.284 N 
ATOM     15  C   UNL     1      -1.276   0.774  -2.140  0.00  0.00    +0.160 C 
ATOM     16  N   UNL     1      -1.844   1.435  -3.085  0.00  0.00    -0.366 N 
ATOM     17  C   UNL     1      -1.696   2.870  -2.795  0.00  0.00    +0.172 C 
ATOM     18  C   UNL     1      -0.931   2.898  -1.486  0.00  0.00    +0.100 C 
ATOM     19  N   UNL     1      -0.557   3.935  -0.810  0.00  0.00    -0.388 N 
ATOM     20  H   UNL     1      -0.067   3.823   0.019  0.00  0.00    +0.157 HD
ATOM     21  H   UNL     1      -0.767   4.825  -1.133  0.00  0.00    +0.157 HD
ATOM     22  H   UNL     1      -2.293   1.054  -3.856  0.00  0.00    +0.161 HD
ENDBRANCH   1  17
TORSDOF 1
