REMARK  Name = ZINC50086240
REMARK  8 active torsions:
REMARK  status: ('A' for Active; 'I' for Inactive)
REMARK    1  A    between atoms: C_1  and  C_2
REMARK    2  A    between atoms: C_2  and  C_4
REMARK    3  A    between atoms: C_2  and  N_15
REMARK    4  A    between atoms: C_10  and  O_13
REMARK    5  A    between atoms: O_13  and  C_14
REMARK    6  A    between atoms: N_18  and  C_19
REMARK    7  A    between atoms: C_23  and  C_25
REMARK    8  A    between atoms: N_27  and  C_28
REMARK                            x       y       z     vdW  Elec       q    Type
REMARK                         _______ _______ _______ _____ _____    ______ ____
ROOT
ATOM      1  N   UNL     1      -1.370  -0.517   0.012  0.00  0.00    -0.290 N 
ATOM      2  C   UNL     1      -2.051  -0.641  -1.144  0.00  0.00    +0.304 C 
ATOM      3  O   UNL     1      -1.526  -0.331  -2.196  0.00  0.00    -0.252 OA
ATOM      4  N   UNL     1      -3.315  -1.109  -1.135  0.00  0.00    -0.269 N 
ATOM      5  H   UNL     1      -1.790  -0.764   0.851  0.00  0.00    +0.151 HD
ATOM      6  H   UNL     1      -3.712  -1.419  -0.306  0.00  0.00    +0.156 HD
ENDROOT
BRANCH   4   7
ATOM      7  C   UNL     1      -4.057  -1.148  -2.323  0.00  0.00    +0.036 A 
ATOM      8  C   UNL     1      -3.424  -1.431  -3.528  0.00  0.00    +0.026 A 
ATOM      9  C   UNL     1      -4.148  -1.471  -4.703  0.00  0.00    +0.041 A 
ATOM     10  C   UNL     1      -5.510  -1.228  -4.689  0.00  0.00    +0.136 A 
ATOM     11  C   UNL     1      -6.155  -0.942  -3.482  0.00  0.00    +0.074 A 
ATOM     12  C   UNL     1      -5.420  -0.909  -2.295  0.00  0.00    +0.039 A 
ATOM     13  F   UNL     1      -6.216  -1.267  -5.840  0.00  0.00    -0.205 F 
BRANCH  11  14
ATOM     14  C   UNL     1      -7.609  -0.682  -3.461  0.00  0.00    +0.247 C 
ATOM     15  O   UNL     1      -8.247  -0.716  -4.495  0.00  0.00    -0.270 OA
ATOM     16  N   UNL     1      -8.228  -0.407  -2.296  0.00  0.00    -0.314 N 
ATOM     17  C   UNL     1      -9.670  -0.149  -2.276  0.00  0.00    +0.128 C 
ATOM     18  H   UNL     1      -7.719  -0.379  -1.471  0.00  0.00    +0.149 HD
ENDBRANCH  11  14
ENDBRANCH   4   7
BRANCH   1  20
ATOM     19  C   UNL     1      -0.019   1.522   0.021  0.00  0.00    +0.036 C 
ATOM     20  C   UNL     1       0.003  -0.008   0.002  0.00  0.00    +0.137 C 
BRANCH  20  21
ATOM     21  C   UNL     1       0.736  -0.515   1.218  0.00  0.00    +0.126 A 
ATOM     22  C   UNL     1       2.011  -0.927   1.229  0.00  0.00    +0.055 A 
ATOM     23  C   UNL     1       2.299  -1.328   2.611  0.00  0.00    +0.024 A 
ATOM     24  C   UNL     1       3.422  -1.835   3.265  0.00  0.00    +0.012 A 
ATOM     25  C   UNL     1       3.362  -2.115   4.602  0.00  0.00    +0.004 A 
ATOM     26  C   UNL     1       2.191  -1.899   5.314  0.00  0.00    +0.049 A 
ATOM     27  C   UNL     1       1.067  -1.397   4.684  0.00  0.00    +0.163 A 
ATOM     28  C   UNL     1       1.110  -1.105   3.322  0.00  0.00    +0.177 A 
ATOM     29  O   UNL     1       0.206  -0.614   2.450  0.00  0.00    -0.454 OA
BRANCH  27  30
ATOM     30  O   UNL     1      -0.075  -1.188   5.392  0.00  0.00    -0.491 OA
ATOM     31  C   UNL     1      -0.044  -1.510   6.784  0.00  0.00    +0.277 C 
ENDBRANCH  27  30
ENDBRANCH  20  21
ENDBRANCH   1  20
TORSDOF 5
