REMARK  Name = ZINC59044966
REMARK  7 active torsions:
REMARK  status: ('A' for Active; 'I' for Inactive)
REMARK    1  A    between atoms: C_1  and  C_2
REMARK    2  A    between atoms: C_6  and  N_8
REMARK    3  A    between atoms: C_9  and  C_11
REMARK    4  A    between atoms: C_11  and  S_12
REMARK    5  A    between atoms: S_12  and  C_13
REMARK    6  A    between atoms: C_16  and  C_19
REMARK    7  A    between atoms: N_17  and  N_18
REMARK                            x       y       z     vdW  Elec       q    Type
REMARK                         _______ _______ _______ _____ _____    ______ ____
ROOT
ATOM      1  C   UNL     1      -0.334  -7.412   4.943  0.00  0.00    +0.209 A 
ATOM      2  N   UNL     1      -0.344  -6.777   6.093  0.00  0.00    -0.121 NA
ATOM      3  N   UNL     1      -0.432  -7.619   7.061  0.00  0.00    -0.127 NA
ATOM      4  C   UNL     1      -0.483  -8.842   6.587  0.00  0.00    +0.182 A 
ATOM      5  N   UNL     1      -0.427  -8.747   5.216  0.00  0.00    -0.224 N 
ENDROOT
BRANCH   4   6
ATOM      6  C   UNL     1      -0.586 -10.087   7.378  0.00  0.00    +0.021 A 
ATOM      7  C   UNL     1      -0.314 -11.320   6.783  0.00  0.00    +0.013 A 
ATOM      8  C   UNL     1      -0.412 -12.478   7.527  0.00  0.00    +0.016 A 
ATOM      9  C   UNL     1      -0.781 -12.419   8.860  0.00  0.00    +0.018 A 
ATOM     10  C   UNL     1      -1.054 -11.199   9.455  0.00  0.00    +0.016 A 
ATOM     11  C   UNL     1      -0.952 -10.034   8.724  0.00  0.00    +0.013 A 
ATOM     12 BR   UNL     1      -0.914 -14.011   9.871  0.00  0.00    -0.050 Br
ENDBRANCH   4   6
BRANCH   5  13
ATOM     13  N   UNL     1      -0.457  -9.774   4.315  0.00  0.00    -0.295 N 
ATOM     14  H   UNL     1       0.475 -10.104   4.113  0.00  0.00    +0.163 HD
ATOM     15  H   UNL     1      -1.044 -10.526   4.644  0.00  0.00    +0.163 HD
ENDBRANCH   5  13
BRANCH   1  16
ATOM     16  S   UNL     1      -0.226  -6.677   3.345  0.00  0.00    -0.075 S 
BRANCH  16  17
ATOM     17  C   UNL     1      -0.129  -4.898   3.686  0.00  0.00    +0.173 C 
BRANCH  17  19
ATOM     18  N   UNL     1       0.052  -2.797   2.393  0.00  0.00    -0.285 N 
ATOM     19  C   UNL     1      -0.031  -4.143   2.385  0.00  0.00    +0.227 C 
ATOM     20  O   UNL     1      -0.028  -4.745   1.333  0.00  0.00    -0.275 OA
ATOM     21  H   UNL     1       0.127  -2.321   3.234  0.00  0.00    +0.155 HD
BRANCH  18  27
ATOM     22  C   UNL     1       1.524   1.061  -0.275  0.00  0.00    +0.044 C 
ATOM     23  C   UNL     1       0.735  -0.215  -0.134  0.00  0.00    -0.049 A 
ATOM     24  C   UNL     1      -0.011  -0.687  -1.199  0.00  0.00    +0.003 A 
ATOM     25  C   UNL     1      -0.736  -1.857  -1.074  0.00  0.00    +0.002 A 
ATOM     26  C   UNL     1      -0.717  -2.559   0.116  0.00  0.00    +0.023 A 
ATOM     27  C   UNL     1       0.031  -2.089   1.186  0.00  0.00    +0.034 A 
ATOM     28  C   UNL     1       0.763  -0.915   1.056  0.00  0.00    +0.026 A 
ENDBRANCH  18  27
ENDBRANCH  17  19
ENDBRANCH  16  17
ENDBRANCH   1  16
TORSDOF 6
