REMARK  Name = ZINC60091651
REMARK  7 active torsions:
REMARK  status: ('A' for Active; 'I' for Inactive)
REMARK    1  A    between atoms: C_1  and  C_2
REMARK    2  A    between atoms: C_2  and  C_3
REMARK    3  A    between atoms: C_3  and  C_4
REMARK    4  A    between atoms: C_4  and  C_6
REMARK    5  A    between atoms: C_4  and  N_25
REMARK    6  A    between atoms: N_11  and  S_14
REMARK    7  A    between atoms: S_14  and  C_17
REMARK                            x       y       z     vdW  Elec       q    Type
REMARK                         _______ _______ _______ _____ _____    ______ ____
ROOT
ATOM      1  C   UNL     1       1.479  -2.580   2.445  0.00  0.00    +0.236 C 
ATOM      2  O   UNL     1       2.516  -3.195   2.312  0.00  0.00    -0.274 OA
ATOM      3  N   UNL     1       0.969  -2.375   3.675  0.00  0.00    -0.297 N 
ATOM      4  C   UNL     1      -0.341  -1.730   3.845  0.00  0.00    +0.125 C 
ATOM      5  C   UNL     1      -1.237  -2.652   4.681  0.00  0.00    +0.128 C 
ATOM      6  N   UNL     1      -0.493  -3.071   5.877  0.00  0.00    -0.174 NA
ATOM      7  C   UNL     1       0.816  -3.716   5.708  0.00  0.00    +0.128 C 
ATOM      8  C   UNL     1       1.710  -2.799   4.872  0.00  0.00    +0.125 C 
ENDROOT
BRANCH   6   9
ATOM      9  S   UNL     1      -1.120  -2.819   7.390  0.00  0.00    +0.062 S 
ATOM     10  O   UNL     1      -0.018  -2.788   8.286  0.00  0.00    -0.153 OA
ATOM     11  O   UNL     1      -2.038  -1.741   7.275  0.00  0.00    -0.153 OA
BRANCH   9  12
ATOM     12  C   UNL     1      -2.067  -4.245   7.805  0.00  0.00    +0.125 A 
ATOM     13  C   UNL     1      -1.678  -5.051   8.858  0.00  0.00    +0.050 A 
ATOM     14  C   UNL     1      -2.421  -6.171   9.184  0.00  0.00    +0.043 A 
ATOM     15  C   UNL     1      -3.555  -6.485   8.456  0.00  0.00    +0.021 A 
ATOM     16  C   UNL     1      -3.944  -5.679   7.402  0.00  0.00    +0.023 A 
ATOM     17  C   UNL     1      -3.204  -4.556   7.080  0.00  0.00    +0.067 A 
ATOM     18 CL   UNL     1      -3.696  -3.540   5.761  0.00  0.00    -0.082 Cl
ATOM     19 CL   UNL     1      -1.932  -7.183  10.507  0.00  0.00    -0.083 Cl
ENDBRANCH   9  12
ENDBRANCH   6   9
BRANCH   1  20
ATOM     20  C   UNL     1       0.761  -2.044   1.233  0.00  0.00    +0.160 C 
BRANCH  20  21
ATOM     21  N   UNL     1       1.159  -2.812   0.050  0.00  0.00    -0.288 N 
ATOM     22  C   UNL     1       0.336  -2.885  -1.014  0.00  0.00    +0.298 C 
ATOM     23  O   UNL     1      -0.738  -2.315  -0.993  0.00  0.00    -0.253 OA
ATOM     24  N   UNL     1       0.702  -3.591  -2.102  0.00  0.00    -0.313 N 
ATOM     25  H   UNL     1       2.016  -3.266   0.033  0.00  0.00    +0.151 HD
ATOM     26  H   UNL     1       1.559  -4.046  -2.119  0.00  0.00    +0.146 HD
ATOM     27  H   UNL     1       0.109  -3.644  -2.868  0.00  0.00    +0.146 HD
ENDBRANCH  20  21
BRANCH  20  28
ATOM     28  C   UNL     1       1.126  -0.572   1.033  0.00  0.00    +0.031 C 
BRANCH  28  30
ATOM     29  C   UNL     1       0.649   1.485  -0.302  0.00  0.00    +0.004 C 
ATOM     30  C   UNL     1       0.283   0.013  -0.102  0.00  0.00    -0.001 C 
ENDBRANCH  28  30
ENDBRANCH  20  28
ENDBRANCH   1  20
TORSDOF 6
