REMARK  Name = ZINC20188971
REMARK  8 active torsions:
REMARK  status: ('A' for Active; 'I' for Inactive)
REMARK    1  A    between atoms: C_1  and  C_2
REMARK    2  A    between atoms: C_2  and  C_3
REMARK    3  A    between atoms: C_7  and  C_22
REMARK    4  A    between atoms: C_8  and  N_9
REMARK    5  A    between atoms: N_9  and  S_10
REMARK    6  A    between atoms: S_10  and  C_13
REMARK    7  A    between atoms: C_15  and  C_20
REMARK    8  A    between atoms: C_20  and  N_21
REMARK                            x       y       z     vdW  Elec       q    Type
REMARK                         _______ _______ _______ _____ _____    ______ ____
ROOT
ATOM      1  S   UNL     1      -3.388   0.407   3.580  0.00  0.00    +0.075 S 
ATOM      2  O   UNL     1      -4.356   1.424   3.798  0.00  0.00    -0.150 OA
ATOM      3  O   UNL     1      -3.614  -0.682   2.695  0.00  0.00    -0.150 OA
ENDROOT
BRANCH   1   4
ATOM      4  C   UNL     1      -1.925   1.215   3.020  0.00  0.00    +0.144 A 
ATOM      5  C   UNL     1      -1.246   0.730   1.919  0.00  0.00    +0.033 A 
ATOM      6  C   UNL     1      -0.099   1.364   1.479  0.00  0.00    -0.063 A 
ATOM      7  C   UNL     1       0.373   2.481   2.144  0.00  0.00    +0.004 A 
ATOM      8  C   UNL     1      -0.307   2.970   3.243  0.00  0.00    +0.040 A 
ATOM      9  C   UNL     1      -1.457   2.336   3.684  0.00  0.00    +0.150 A 
ATOM     10  F   UNL     1      -2.120   2.811   4.761  0.00  0.00    -0.203 F 
BRANCH   6  11
ATOM     11  C   UNL     1       0.641   0.835   0.278  0.00  0.00    -0.051 C 
BRANCH  11  12
ATOM     12  N   UNL     1       0.118   1.470  -0.939  0.00  0.00    +0.381 N 
ATOM     13  H   UNL     1       0.659   1.084  -1.815  0.00  0.00    -0.090 HD
ATOM     14  H   UNL     1       0.259   2.559  -0.873  0.00  0.00    -0.090 HD
ATOM     15  H   UNL     1      -0.953   1.244  -1.039  0.00  0.00    -0.090 HD
ENDBRANCH  11  12
ENDBRANCH   6  11
ENDBRANCH   1   4
BRANCH   1  16
ATOM     16  N   UNL     1      -3.048  -0.249   5.061  0.00  0.00    -0.216 N 
ATOM     17  H   UNL     1      -2.987  -1.342   5.178  0.00  0.00    +0.174 HD
BRANCH  16  23
ATOM     18  C   UNL     1      -3.918   1.198   6.786  0.00  0.00    -0.025 A 
ATOM     19  C   UNL     1      -3.709   2.017   7.878  0.00  0.00    +0.005 A 
ATOM     20  C   UNL     1      -2.426   2.234   8.345  0.00  0.00    +0.001 A 
ATOM     21  C   UNL     1      -1.349   1.629   7.724  0.00  0.00    +0.005 A 
ATOM     22  C   UNL     1      -1.552   0.804   6.635  0.00  0.00    -0.028 A 
ATOM     23  C   UNL     1      -2.839   0.583   6.163  0.00  0.00    +0.054 A 
ATOM     24  C   UNL     1      -0.377   0.144   5.960  0.00  0.00    +0.046 C 
BRANCH  18  26
ATOM     25  C   UNL     1      -5.944  -0.214   7.018  0.00  0.00    +0.009 C 
ATOM     26  C   UNL     1      -5.317   0.966   6.273  0.00  0.00    +0.033 C 
ENDBRANCH  18  26
ENDBRANCH  16  23
ENDBRANCH   1  16
TORSDOF 6
