REMARK  Name = ZINC40481461
REMARK  6 active torsions:
REMARK  status: ('A' for Active; 'I' for Inactive)
REMARK    1  A    between atoms: C_1  and  C_2
REMARK    2  A    between atoms: C_2  and  C_3
REMARK    3  A    between atoms: C_6  and  C_9
REMARK    4  A    between atoms: C_6  and  N_12
REMARK    5  A    between atoms: C_13  and  C_15
REMARK    6  A    between atoms: C_15  and  N_20
REMARK                            x       y       z     vdW  Elec       q    Type
REMARK                         _______ _______ _______ _____ _____    ______ ____
ROOT
ATOM      1  N   UNL     1      -0.575  -2.716  -3.629  0.00  0.00    -0.301 N 
ATOM      2  C   UNL     1      -0.707  -4.057  -3.574  0.00  0.00    +0.202 C 
ATOM      3  O   UNL     1       0.278  -4.764  -3.584  0.00  0.00    -0.277 OA
ATOM      4  H   UNL     1      -1.363  -2.151  -3.621  0.00  0.00    +0.150 HD
ENDROOT
BRANCH   1   8
ATOM      5  C   UNL     1       0.718  -0.497  -1.257  0.00  0.00    -0.011 C 
ATOM      6  C   UNL     1      -0.089  -0.097  -2.493  0.00  0.00    +0.006 C 
ATOM      7  C   UNL     1       0.627  -0.590  -3.752  0.00  0.00    +0.037 C 
ATOM      8  C   UNL     1       0.758  -2.114  -3.700  0.00  0.00    +0.136 C 
ATOM      9  C   UNL     1       1.565  -2.514  -2.464  0.00  0.00    +0.037 C 
ATOM     10  C   UNL     1       0.849  -2.021  -1.205  0.00  0.00    +0.006 C 
BRANCH   8  11
ATOM     11  C   UNL     1       1.463  -2.600  -4.940  0.00  0.00    +0.379 C 
ATOM     12  O   UNL     1       2.593  -2.215  -5.189  0.00  0.00    -0.244 OA
ATOM     13  O   UNL     1       0.904  -3.377  -5.694  0.00  0.00    -0.244 OA
ENDBRANCH   8  11
BRANCH   5  15
ATOM     14  C   UNL     1      -0.019   1.526   0.010  0.00  0.00    +0.004 C 
ATOM     15  C   UNL     1       0.002  -0.004   0.002  0.00  0.00    -0.000 C 
ENDBRANCH   5  15
ENDBRANCH   1   8
BRANCH   2  16
ATOM     16  C   UNL     1      -2.079  -4.677  -3.501  0.00  0.00    +0.007 C 
ATOM     17  C   UNL     1      -2.517  -4.851  -2.026  0.00  0.00    -0.004 C 
ATOM     18  C   UNL     1      -1.788  -6.151  -1.604  0.00  0.00    -0.001 C 
ATOM     19  C   UNL     1      -1.867  -7.051  -2.854  0.00  0.00    -0.001 C 
ATOM     20  C   UNL     1      -2.052  -6.114  -4.060  0.00  0.00    -0.004 C 
BRANCH  16  21
ATOM     21  N   UNL     1      -3.052  -3.857  -4.236  0.00  0.00    +0.388 N 
ATOM     22  H   UNL     1      -2.779  -3.800  -5.205  0.00  0.00    -0.089 HD
ATOM     23  H   UNL     1      -3.966  -4.279  -4.168  0.00  0.00    -0.089 HD
ATOM     24  H   UNL     1      -3.079  -2.930  -3.838  0.00  0.00    -0.089 HD
ENDBRANCH  16  21
ENDBRANCH   2  16
TORSDOF 5
