REMARK  Name = ZINC50347176
REMARK  8 active torsions:
REMARK  status: ('A' for Active; 'I' for Inactive)
REMARK    1  A    between atoms: C_1  and  C_2
REMARK    2  A    between atoms: C_5  and  C_18
REMARK    3  A    between atoms: C_6  and  N_8
REMARK    4  A    between atoms: C_11  and  C_14
REMARK    5  A    between atoms: C_14  and  C_15
REMARK    6  A    between atoms: C_14  and  C_16
REMARK    7  A    between atoms: C_14  and  C_17
REMARK    8  A    between atoms: N_19  and  O_20
REMARK                            x       y       z     vdW  Elec       q    Type
REMARK                         _______ _______ _______ _____ _____    ______ ____
ROOT
ATOM      1  C   UNL     1      -2.360  -0.655  -1.484  0.00  0.00    +0.065 C 
ATOM      2  C   UNL     1      -1.124  -1.018  -0.703  0.00  0.00    +0.040 A 
ATOM      3  C   UNL     1       0.121  -0.706  -1.218  0.00  0.00    +0.024 A 
ATOM      4  C   UNL     1       1.258  -1.039  -0.501  0.00  0.00    +0.016 A 
ATOM      5  C   UNL     1       1.103  -1.685   0.728  0.00  0.00    +0.058 A 
ATOM      6  C   UNL     1      -0.193  -1.969   1.184  0.00  0.00    +0.132 A 
ATOM      7  N   UNL     1      -1.248  -1.624   0.463  0.00  0.00    -0.237 NA
ENDROOT
BRANCH   6   8
ATOM      8  N   UNL     1      -0.371  -2.609   2.400  0.00  0.00    -0.315 N 
ATOM      9  C   UNL     1      -0.321  -4.075   2.489  0.00  0.00    +0.107 C 
ATOM     10  C   UNL     1      -1.600  -4.571   3.172  0.00  0.00    +0.023 C 
ATOM     11  C   UNL     1      -1.760  -3.865   4.520  0.00  0.00    -0.003 C 
ATOM     12  C   UNL     1      -1.886  -2.356   4.296  0.00  0.00    +0.023 C 
ATOM     13  C   UNL     1      -0.606  -1.835   3.627  0.00  0.00    +0.107 C 
BRANCH  11  14
ATOM     14  C   UNL     1      -3.018  -4.383   5.221  0.00  0.00    -0.035 C 
ATOM     15  C   UNL     1      -2.891  -5.891   5.447  0.00  0.00    +0.011 C 
ATOM     16  C   UNL     1      -3.178  -3.677   6.569  0.00  0.00    +0.011 C 
ATOM     17  C   UNL     1      -4.241  -4.099   4.348  0.00  0.00    +0.011 C 
ENDBRANCH  11  14
ENDBRANCH   6   8
BRANCH   5  18
ATOM     18  C   UNL     1       2.284  -2.064   1.533  0.00  0.00    +0.166 C 
ATOM     19  N   UNL     1       2.126  -2.568   2.723  0.00  0.00    -0.071 NA
ATOM     20  N   UNL     1       3.558  -1.882   1.021  0.00  0.00    -0.340 N 
ATOM     21  H   UNL     1       3.675  -1.507   0.134  0.00  0.00    +0.144 HD
ATOM     22  H   UNL     1       4.332  -2.131   1.549  0.00  0.00    +0.144 HD
BRANCH  19  23
ATOM     23  O   UNL     1       3.255  -2.831   3.535  0.00  0.00    -0.408 OA
ATOM     24  H   UNL     1       3.038  -3.204   4.401  0.00  0.00    +0.328 HD
ENDBRANCH  19  23
ENDBRANCH   5  18
TORSDOF 4
