REMARK  Name = ZINC32620418
REMARK  6 active torsions:
REMARK  status: ('A' for Active; 'I' for Inactive)
REMARK    1  A    between atoms: C_1  and  C_2
REMARK    2  A    between atoms: C_9  and  N_25
REMARK    3  A    between atoms: C_10  and  C_13
REMARK    4  A    between atoms: N_14  and  C_15
REMARK    5  A    between atoms: C_18  and  S_21
REMARK    6  A    between atoms: S_21  and  N_24
REMARK                            x       y       z     vdW  Elec       q    Type
REMARK                         _______ _______ _______ _____ _____    ______ ____
ROOT
ATOM      1  C   UNL     1       2.762  -8.927  -2.160  0.00  0.00    +0.047 C 
ATOM      2  C   UNL     1       2.012  -8.222  -1.060  0.00  0.00    -0.007 A 
ATOM      3  C   UNL     1       1.278  -8.938  -0.161  0.00  0.00    +0.008 A 
ATOM      4  C   UNL     1       0.586  -8.268   0.856  0.00  0.00    +0.019 A 
ATOM      5  C   UNL     1       0.647  -6.920   0.944  0.00  0.00    +0.096 A 
ATOM      6  N   UNL     1       1.378  -6.195   0.051  0.00  0.00    -0.267 N 
ATOM      7  C   UNL     1       2.064  -6.821  -0.953  0.00  0.00    +0.145 A 
ATOM      8  N   UNL     1       2.784  -6.129  -1.836  0.00  0.00    -0.213 NA
ATOM      9  C   UNL     1       2.867  -4.807  -1.782  0.00  0.00    +0.138 A 
ATOM     10  C   UNL     1       2.178  -4.106  -0.765  0.00  0.00    +0.098 A 
ATOM     11  C   UNL     1       1.422  -4.850   0.169  0.00  0.00    +0.269 A 
ATOM     12  O   UNL     1       0.817  -4.287   1.065  0.00  0.00    -0.266 OA
ENDROOT
BRANCH   9  13
ATOM     13  N   UNL     1       3.620  -4.121  -2.709  0.00  0.00    -0.314 N 
ATOM     14  C   UNL     1       4.803  -4.916  -3.128  0.00  0.00    +0.106 C 
ATOM     15  C   UNL     1       5.200  -4.274  -4.481  0.00  0.00    +0.020 C 
ATOM     16  C   UNL     1       3.833  -3.942  -5.121  0.00  0.00    +0.020 C 
ATOM     17  C   UNL     1       2.843  -3.872  -3.943  0.00  0.00    +0.106 C 
ENDBRANCH   9  13
BRANCH  10  18
ATOM     18  C   UNL     1       2.249  -2.693  -0.681  0.00  0.00    +0.128 C 
ATOM     19  N   UNL     1       1.525  -2.053   0.201  0.00  0.00    -0.255 NA
BRANCH  19  20
ATOM     20  C   UNL     1       1.594  -0.689   0.282  0.00  0.00    +0.064 A 
ATOM     21  C   UNL     1       0.424   0.067   0.392  0.00  0.00    +0.029 A 
ATOM     22  C   UNL     1       0.501   1.442   0.474  0.00  0.00    +0.030 A 
ATOM     23  C   UNL     1       1.732   2.072   0.447  0.00  0.00    +0.105 A 
ATOM     24  C   UNL     1       2.895   1.330   0.339  0.00  0.00    +0.030 A 
ATOM     25  C   UNL     1       2.833  -0.046   0.256  0.00  0.00    +0.029 A 
BRANCH  23  26
ATOM     26  S   UNL     1       1.820   3.829   0.552  0.00  0.00    +0.056 S 
ATOM     27  O   UNL     1       3.053   4.210  -0.043  0.00  0.00    -0.153 OA
ATOM     28  O   UNL     1       0.569   4.326   0.096  0.00  0.00    -0.153 OA
BRANCH  26  29
ATOM     29  N   UNL     1       1.929   4.219   2.157  0.00  0.00    -0.204 NA
ATOM     30  H   UNL     1       1.986   5.312   2.266  0.00  0.00    +0.144 HD
ATOM     31  H   UNL     1       2.832   3.760   2.586  0.00  0.00    +0.144 HD
ENDBRANCH  26  29
ENDBRANCH  23  26
ENDBRANCH  19  20
ENDBRANCH  10  18
TORSDOF 5
