REMARK  Name = ZINC28536060
REMARK  5 active torsions:
REMARK  status: ('A' for Active; 'I' for Inactive)
REMARK    1  A    between atoms: C_4  and  C_7
REMARK    2  A    between atoms: C_7  and  S_8
REMARK    3  A    between atoms: S_8  and  C_9
REMARK    4  A    between atoms: N_15  and  N_16
REMARK    5  A    between atoms: N_17  and  C_18
REMARK                            x       y       z     vdW  Elec       q    Type
REMARK                         _______ _______ _______ _____ _____    ______ ____
ROOT
ATOM      1  C   UNL     1       1.720   2.215  -3.614  0.00  0.00    +0.210 A 
ATOM      2  N   UNL     1       2.878   1.599  -3.475  0.00  0.00    -0.121 NA
ATOM      3  N   UNL     1       3.468   1.499  -2.338  0.00  0.00    -0.126 NA
ATOM      4  C   UNL     1       2.943   2.011  -1.246  0.00  0.00    +0.212 A 
ATOM      5  C   UNL     1       1.698   2.689  -1.326  0.00  0.00    +0.312 A 
ATOM      6  O   UNL     1       1.182   3.175  -0.334  0.00  0.00    -0.262 OA
ATOM      7  N   UNL     1       1.099   2.778  -2.536  0.00  0.00    -0.205 N 
ATOM      8  N   UNL     1       3.603   1.890  -0.022  0.00  0.00    -0.291 N 
ATOM      9  H   UNL     1       3.202   2.391   0.872  0.00  0.00    +0.154 HD
ENDROOT
BRANCH   8  10
ATOM     10  C   UNL     1       4.774   1.131   0.069  0.00  0.00    +0.070 A 
ATOM     11  C   UNL     1       4.705  -0.222   0.380  0.00  0.00    +0.064 A 
ATOM     12  C   UNL     1       5.864  -0.969   0.464  0.00  0.00    +0.022 A 
ATOM     13  C   UNL     1       7.092  -0.371   0.249  0.00  0.00    +0.003 A 
ATOM     14  C   UNL     1       7.165   0.976  -0.055  0.00  0.00    +0.022 A 
ATOM     15  C   UNL     1       6.010   1.729  -0.146  0.00  0.00    +0.064 A 
ATOM     16 CL   UNL     1       6.102   3.420  -0.529  0.00  0.00    -0.082 Cl
ATOM     17 CL   UNL     1       3.164  -0.973   0.657  0.00  0.00    -0.082 Cl
ENDBRANCH   8  10
BRANCH   7  18
ATOM     18  N   UNL     1      -0.097   3.422  -2.678  0.00  0.00    -0.293 N 
ATOM     19  H   UNL     1      -0.587   3.871  -1.801  0.00  0.00    +0.163 HD
ATOM     20  H   UNL     1      -0.570   3.492  -3.668  0.00  0.00    +0.163 HD
ENDBRANCH   7  18
BRANCH   1  21
ATOM     21  S   UNL     1       0.969   2.313  -5.205  0.00  0.00    -0.080 S 
BRANCH  21  22
ATOM     22  C   UNL     1       2.202   1.428  -6.190  0.00  0.00    +0.112 C 
BRANCH  22  26
ATOM     23  C   UNL     1       0.945   1.305 -10.270  0.00  0.00    +0.000 A 
ATOM     24  C   UNL     1       1.721   2.355  -9.818  0.00  0.00    +0.000 A 
ATOM     25  C   UNL     1       2.128   2.395  -8.497  0.00  0.00    +0.004 A 
ATOM     26  C   UNL     1       1.759   1.385  -7.630  0.00  0.00    -0.037 A 
ATOM     27  C   UNL     1       0.987   0.332  -8.083  0.00  0.00    +0.004 A 
ATOM     28  C   UNL     1       0.575   0.295  -9.402  0.00  0.00    +0.000 A 
ENDBRANCH  22  26
ENDBRANCH  21  22
ENDBRANCH   1  21
TORSDOF 5
