REMARK  Name = ZINC36735956
REMARK  6 active torsions:
REMARK  status: ('A' for Active; 'I' for Inactive)
REMARK    1  A    between atoms: C_1  and  C_2
REMARK    2  A    between atoms: C_3  and  N_9
REMARK    3  A    between atoms: C_4  and  C_8
REMARK    4  A    between atoms: N_9  and  C_10
REMARK    5  A    between atoms: C_10  and  C_12
REMARK    6  A    between atoms: C_10  and  C_13
REMARK                            x       y       z     vdW  Elec       q    Type
REMARK                         _______ _______ _______ _____ _____    ______ ____
ROOT
ATOM      1  C   UNL     1       0.442  -1.318  -3.492  0.00  0.00    +0.134 C 
ATOM      2  C   UNL     1      -0.869  -2.018  -3.858  0.00  0.00    +0.036 C 
ENDROOT
BRANCH   1   3
ATOM      3  C   UNL     1       0.969  -0.578  -4.694  0.00  0.00    +0.126 A 
ATOM      4  C   UNL     1       1.937  -1.024  -5.506  0.00  0.00    +0.055 A 
ATOM      5  C   UNL     1       2.123   0.013  -6.529  0.00  0.00    +0.022 A 
ATOM      6  C   UNL     1       2.959   0.150  -7.635  0.00  0.00    +0.027 A 
ATOM      7  C   UNL     1       2.877   1.285  -8.414  0.00  0.00    +0.019 A 
ATOM      8  C   UNL     1       1.968   2.285  -8.098  0.00  0.00    +0.019 A 
ATOM      9  C   UNL     1       1.135   2.160  -7.007  0.00  0.00    +0.048 A 
ATOM     10  C   UNL     1       1.202   1.024  -6.210  0.00  0.00    +0.135 A 
ATOM     11  O   UNL     1       0.533   0.624  -5.110  0.00  0.00    -0.458 OA
ATOM     12 BR   UNL     1       4.008   1.480  -9.916  0.00  0.00    -0.050 Br
ENDBRANCH   1   3
BRANCH   1  13
ATOM     13  N   UNL     1       0.201  -0.370  -2.401  0.00  0.00    -0.332 N 
ATOM     14  H   UNL     1      -0.677   0.025  -2.287  0.00  0.00    +0.147 HD
BRANCH  13  17
ATOM     15  C   UNL     1       1.226  -2.179  -0.132  0.00  0.00    +0.067 C 
ATOM     16  C   UNL     1       1.720  -0.807  -0.510  0.00  0.00    +0.054 A 
ATOM     17  C   UNL     1       1.245  -0.033  -1.518  0.00  0.00    +0.071 A 
ATOM     18  C   UNL     1       1.979   1.162  -1.526  0.00  0.00    +0.081 A 
ATOM     19  N   UNL     1       2.861   1.111  -0.561  0.00  0.00    -0.177 NA
ATOM     20  N   UNL     1       2.719  -0.115   0.102  0.00  0.00    -0.280 N 
ATOM     21  H   UNL     1       3.241  -0.418   0.861  0.00  0.00    +0.189 HD
ATOM     22  C   UNL     1       1.785   2.309  -2.484  0.00  0.00    +0.069 C 
ENDBRANCH  13  17
ENDBRANCH   1  13
TORSDOF 3
