REMARK  Name = ZINC37906099
REMARK  4 active torsions:
REMARK  status: ('A' for Active; 'I' for Inactive)
REMARK    1  A    between atoms: C_1  and  C_2
REMARK    2  A    between atoms: C_5  and  C_7
REMARK    3  A    between atoms: C_7  and  N_8
REMARK    4  A    between atoms: C_17  and  N_18
REMARK                            x       y       z     vdW  Elec       q    Type
REMARK                         _______ _______ _______ _____ _____    ______ ____
ROOT
ATOM      1  N   UNL     1       1.983  -3.620  -1.407  0.00  0.00    -0.322 N 
ATOM      2  C   UNL     1       1.143  -4.597  -2.114  0.00  0.00    +0.106 C 
ATOM      3  C   UNL     1       2.075  -5.569  -2.849  0.00  0.00    +0.024 C 
ATOM      4  C   UNL     1       2.873  -4.791  -3.895  0.00  0.00    +0.040 C 
ATOM      5  C   UNL     1       3.528  -3.588  -3.271  0.00  0.00    -0.006 A 
ATOM      6  C   UNL     1       3.069  -3.048  -2.079  0.00  0.00    +0.035 A 
ATOM      7  C   UNL     1       3.690  -1.930  -1.534  0.00  0.00    +0.023 A 
ATOM      8  C   UNL     1       4.766  -1.350  -2.177  0.00  0.00    +0.004 A 
ATOM      9  C   UNL     1       5.228  -1.881  -3.365  0.00  0.00    +0.023 A 
ATOM     10  C   UNL     1       4.616  -3.005  -3.912  0.00  0.00    +0.030 A 
ENDROOT
BRANCH  10  11
ATOM     11  N   UNL     1       5.085  -3.540  -5.114  0.00  0.00    -0.358 N 
ATOM     12  H   UNL     1       4.652  -4.317  -5.501  0.00  0.00    +0.142 HD
ATOM     13  H   UNL     1       5.843  -3.134  -5.563  0.00  0.00    +0.142 HD
ENDBRANCH  10  11
BRANCH   1  14
ATOM     14  C   UNL     1       1.684  -3.245  -0.023  0.00  0.00    +0.179 C 
BRANCH  14  19
ATOM     15  C   UNL     1      -0.018   1.503   0.010  0.00  0.00    +0.086 C 
ATOM     16  C   UNL     1       0.002  -0.004   0.002  0.00  0.00    +0.102 A 
ATOM     17  C   UNL     1      -1.078  -0.805   0.003  0.00  0.00    +0.045 A 
ATOM     18  C   UNL     1      -0.601  -2.136  -0.007  0.00  0.00    +0.046 A 
ATOM     19  C   UNL     1       0.742  -2.069  -0.013  0.00  0.00    +0.122 A 
ATOM     20  O   UNL     1       1.102  -0.775  -0.013  0.00  0.00    -0.463 OA
ENDBRANCH  14  19
ENDBRANCH   1  14
TORSDOF 3
