REMARK  Name = ZINC00233856
REMARK  4 active torsions:
REMARK  status: ('A' for Active; 'I' for Inactive)
REMARK    1  A    between atoms: C_1  and  C_2
REMARK    2  A    between atoms: N_8  and  S_9
REMARK    3  A    between atoms: S_9  and  C_12
REMARK    4  A    between atoms: C_15  and  N_18
REMARK                            x       y       z     vdW  Elec       q    Type
REMARK                         _______ _______ _______ _____ _____    ______ ____
ROOT
ATOM      1  S   UNL     1      -4.402   3.130   4.468  0.00  0.00    +0.073 S 
ATOM      2  O   UNL     1      -4.824   3.556   5.756  0.00  0.00    -0.150 OA
ATOM      3  O   UNL     1      -4.638   3.898   3.296  0.00  0.00    -0.150 OA
ENDROOT
BRANCH   1  11
ATOM      4  C   UNL     1      -0.013   1.086   0.008  0.00  0.00    +0.045 C 
ATOM      5  C   UNL     1      -0.718   1.572   1.248  0.00  0.00    -0.032 A 
ATOM      6  C   UNL     1      -0.003   1.809   2.414  0.00  0.00    +0.008 A 
ATOM      7  C   UNL     1      -0.688   2.254   3.530  0.00  0.00    +0.045 A 
ATOM      8  C   UNL     1      -2.063   2.449   3.446  0.00  0.00    +0.138 A 
ATOM      9  N   UNL     1      -2.710   2.212   2.315  0.00  0.00    -0.239 NA
ATOM     10  C   UNL     1      -2.081   1.791   1.234  0.00  0.00    +0.116 A 
ATOM     11  N   UNL     1      -2.765   2.896   4.560  0.00  0.00    -0.199 N 
ATOM     12  H   UNL     1      -2.296   3.071   5.391  0.00  0.00    +0.175 HD
ENDBRANCH   1  11
BRANCH   1  13
ATOM     13  C   UNL     1      -5.139   1.553   4.194  0.00  0.00    +0.109 A 
ATOM     14  C   UNL     1      -5.343   1.102   2.902  0.00  0.00    +0.030 A 
ATOM     15  C   UNL     1      -5.915  -0.136   2.683  0.00  0.00    +0.024 A 
ATOM     16  C   UNL     1      -6.296  -0.923   3.762  0.00  0.00    +0.025 A 
ATOM     17  C   UNL     1      -6.095  -0.465   5.058  0.00  0.00    +0.024 A 
ATOM     18  C   UNL     1      -5.517   0.771   5.270  0.00  0.00    +0.030 A 
BRANCH  16  19
ATOM     19  N   UNL     1      -6.879  -2.174   3.545  0.00  0.00    -0.358 N 
ATOM     20  H   UNL     1      -7.145  -2.723   4.299  0.00  0.00    +0.142 HD
ATOM     21  H   UNL     1      -7.019  -2.492   2.639  0.00  0.00    +0.142 HD
ENDBRANCH  16  19
ENDBRANCH   1  13
TORSDOF 3
