REMARK  Name = ZINC11956497
REMARK  7 active torsions:
REMARK  status: ('A' for Active; 'I' for Inactive)
REMARK    1  A    between atoms: C_6  and  C_7
REMARK    2  A    between atoms: C_7  and  N_62
REMARK    3  A    between atoms: C_8  and  C_9
REMARK    4  A    between atoms: C_8  and  N_62
REMARK    5  A    between atoms: C_14  and  N_64
REMARK    6  A    between atoms: C_19  and  C_20
REMARK    7  A    between atoms: C_19  and  N_62
REMARK                            x       y       z     vdW  Elec       q    Type
REMARK                         _______ _______ _______ _____ _____    ______ ____
ROOT
ATOM      1  N   UNL     1      -0.217   0.086   0.233  0.00  0.00    +0.384 N 
ATOM      2  H   UNL     1      -1.150  -0.342   0.240  0.00  0.00    -0.081 HD
ENDROOT
BRANCH   1   3
ATOM      3  C   UNL     1       0.402  -0.133  -1.091  0.00  0.00    -0.043 C 
BRANCH   3   9
ATOM      4  C   UNL     1      -1.513  -0.940  -2.489  0.00  0.00    +0.004 A 
ATOM      5  C   UNL     1      -2.471  -0.783  -3.433  0.00  0.00    +0.031 A 
ATOM      6  C   UNL     1      -2.596   0.454  -4.119  0.00  0.00    +0.100 A 
ATOM      7  C   UNL     1      -1.679   1.536  -3.774  0.00  0.00    +0.100 A 
ATOM      8  C   UNL     1      -0.704   1.302  -2.769  0.00  0.00    +0.032 A 
ATOM      9  C   UNL     1      -0.640   0.096  -2.155  0.00  0.00    -0.062 A 
ATOM     10  N   UNL     1      -1.908   2.634  -4.492  0.00  0.00    -0.191 NA
ATOM     11  S   UNL     1      -3.108   2.294  -5.440  0.00  0.00    +0.116 S 
ATOM     12  N   UNL     1      -3.453   0.810  -5.073  0.00  0.00    -0.191 NA
ENDBRANCH   3   9
ENDBRANCH   1   3
BRANCH   1  13
ATOM     13  C   UNL     1      -0.351   1.535   0.494  0.00  0.00    -0.075 C 
BRANCH  13  14
ATOM     14  C   UNL     1      -1.190   1.733   1.758  0.00  0.00    -0.031 C 
ATOM     15  C   UNL     1      -2.608   1.208   1.518  0.00  0.00    -0.017 C 
ATOM     16  C   UNL     1      -3.459   1.466   2.764  0.00  0.00    -0.078 C 
ATOM     17  C   UNL     1      -2.146   3.422   3.329  0.00  0.00    -0.078 C 
ATOM     18  C   UNL     1      -1.256   3.224   2.100  0.00  0.00    -0.017 C 
ATOM     19  N   UNL     1      -3.502   2.920   3.024  0.00  0.00    +0.382 N 
ATOM     20  H   UNL     1      -3.854   3.398   2.186  0.00  0.00    -0.081 HD
BRANCH  19  21
ATOM     21  C   UNL     1      -4.411   3.204   4.155  0.00  0.00    -0.069 C 
ATOM     22  C   UNL     1      -3.938   2.493   5.440  0.00  0.00    -0.015 C 
ATOM     23  C   UNL     1      -5.251   2.052   6.135  0.00  0.00    -0.002 C 
ATOM     24  C   UNL     1      -6.143   1.628   4.942  0.00  0.00    -0.002 C 
ATOM     25  C   UNL     1      -5.812   2.654   3.838  0.00  0.00    -0.015 C 
ENDBRANCH  19  21
ENDBRANCH  13  14
ENDBRANCH   1  13
BRANCH   1  26
ATOM     26  C   UNL     1       0.608  -0.543   1.286  0.00  0.00    -0.046 C 
BRANCH  26  27
ATOM     27  C   UNL     1       0.419  -2.059   1.218  0.00  0.00    +0.102 C 
ATOM     28  C   UNL     1       1.283  -2.744   2.294  0.00  0.00    +0.032 C 
ATOM     29  C   UNL     1       0.265  -3.529   3.156  0.00  0.00    +0.030 C 
ATOM     30  C   UNL     1      -0.944  -3.657   2.195  0.00  0.00    +0.160 C 
ATOM     31  O   UNL     1      -0.952  -2.394   1.494  0.00  0.00    -0.378 OA
ENDBRANCH  26  27
ENDBRANCH   1  26
TORSDOF 7
