REMARK  Name = ZINC66174374
REMARK  4 active torsions:
REMARK  status: ('A' for Active; 'I' for Inactive)
REMARK    1  A    between atoms: C_1  and  C_2
REMARK    2  A    between atoms: C_4  and  C_7
REMARK    3  A    between atoms: C_7  and  N_8
REMARK    4  A    between atoms: N_11  and  C_12
REMARK                            x       y       z     vdW  Elec       q    Type
REMARK                         _______ _______ _______ _____ _____    ______ ____
ROOT
ATOM      1  N   UNL     1       1.423  -3.567  -2.011  0.00  0.00    -0.291 N 
ATOM      2  C   UNL     1       1.679  -4.594  -2.845  0.00  0.00    +0.300 C 
ATOM      3  O   UNL     1       0.761  -5.221  -3.338  0.00  0.00    -0.253 OA
ATOM      4  N   UNL     1       2.953  -4.926  -3.133  0.00  0.00    -0.293 N 
ATOM      5  H   UNL     1       2.155  -3.067  -1.618  0.00  0.00    +0.151 HD
ATOM      6  H   UNL     1       3.685  -4.426  -2.740  0.00  0.00    +0.151 HD
ENDROOT
BRANCH   4   7
ATOM      7  C   UNL     1       3.232  -6.042  -4.040  0.00  0.00    +0.105 C 
ATOM      8  C   UNL     1       4.597  -5.833  -4.692  0.00  0.00    +0.027 C 
ATOM      9  C   UNL     1       4.966  -7.106  -5.463  0.00  0.00    +0.007 C 
ATOM     10  C   UNL     1       5.259  -8.213  -4.452  0.00  0.00    +0.035 C 
ATOM     11  C   UNL     1       4.137  -8.330  -3.454  0.00  0.00    -0.042 A 
ATOM     12  C   UNL     1       3.209  -7.332  -3.263  0.00  0.00    -0.024 A 
ATOM     13  C   UNL     1       2.202  -7.501  -2.321  0.00  0.00    +0.006 A 
ATOM     14  C   UNL     1       2.124  -8.662  -1.579  0.00  0.00    +0.000 A 
ATOM     15  C   UNL     1       3.054  -9.666  -1.775  0.00  0.00    +0.000 A 
ATOM     16  C   UNL     1       4.054  -9.499  -2.708  0.00  0.00    +0.004 A 
ENDBRANCH   4   7
BRANCH   1  17
ATOM     17  C   UNL     1       0.038  -3.206  -1.697  0.00  0.00    +0.204 C 
BRANCH  17  21
ATOM     18  C   UNL     1      -0.018   1.503   0.010  0.00  0.00    +0.091 C 
ATOM     19  C   UNL     1       0.002  -0.004   0.002  0.00  0.00    +0.169 A 
ATOM     20  N   UNL     1       0.008  -0.776  -1.091  0.00  0.00    -0.195 NA
ATOM     21  C   UNL     1       0.026  -2.034  -0.750  0.00  0.00    +0.245 A 
ATOM     22  O   UNL     1       0.033  -2.107   0.587  0.00  0.00    -0.336 OA
ATOM     23  N   UNL     1       0.023  -0.767   1.057  0.00  0.00    -0.062 NA
ENDBRANCH  17  21
ENDBRANCH   1  17
TORSDOF 3
