REMARK  Name = ZINC06752713
REMARK  8 active torsions:
REMARK  status: ('A' for Active; 'I' for Inactive)
REMARK    1  A    between atoms: C_1  and  C_2
REMARK    2  A    between atoms: C_2  and  O_28
REMARK    3  A    between atoms: C_6  and  O_10
REMARK    4  A    between atoms: C_11  and  C_21
REMARK    5  A    between atoms: C_13  and  C_15
REMARK    6  A    between atoms: C_15  and  O_17
REMARK    7  A    between atoms: O_17  and  C_18
REMARK    8  A    between atoms: C_18  and  C_19
REMARK                            x       y       z     vdW  Elec       q    Type
REMARK                         _______ _______ _______ _____ _____    ______ ____
ROOT
ATOM      1  C   UNL     1       2.244  -0.791  -0.623  0.00  0.00    +0.042 C 
ATOM      2  C   UNL     1       2.373   0.335   0.405  0.00  0.00    +0.082 C 
ATOM      3  C   UNL     1       2.197  -0.239   1.817  0.00  0.00    +0.090 C 
ATOM      4  C   UNL     1       2.080   0.910   2.787  0.00  0.00    +0.046 A 
ATOM      5  C   UNL     1       1.805   2.188   2.422  0.00  0.00    +0.044 A 
ATOM      6  C   UNL     1       1.778   2.970   3.580  0.00  0.00    +0.235 A 
ATOM      7  N   UNL     1       2.026   2.186   4.604  0.00  0.00    -0.136 NA
ATOM      8  N   UNL     1       2.218   0.882   4.122  0.00  0.00    -0.278 N 
ATOM      9  H   UNL     1       2.422   0.075   4.676  0.00  0.00    +0.189 HD
ATOM     10  C   UNL     1       1.575   2.632   0.999  0.00  0.00    +0.072 C 
ATOM     11  C   UNL     1       1.294   1.389   0.144  0.00  0.00    +0.141 C 
ENDROOT
BRANCH  10  12
ATOM     12  C   UNL     1       0.393   3.565   0.943  0.00  0.00    -0.038 A 
ATOM     13  C   UNL     1      -0.712   3.328   1.738  0.00  0.00    +0.004 A 
ATOM     14  C   UNL     1      -1.796   4.184   1.688  0.00  0.00    +0.001 A 
ATOM     15  C   UNL     1      -1.776   5.277   0.841  0.00  0.00    +0.015 A 
ATOM     16  C   UNL     1      -0.670   5.513   0.044  0.00  0.00    +0.018 A 
ATOM     17  C   UNL     1       0.417   4.660   0.100  0.00  0.00    +0.019 A 
ATOM     18 BR   UNL     1      -0.642   7.007  -1.114  0.00  0.00    -0.050 Br
ENDBRANCH  10  12
BRANCH   6  19
ATOM     19  O   UNL     1       1.536   4.307   3.636  0.00  0.00    -0.491 OA
ATOM     20  H   UNL     1       1.576   4.613   4.588  0.00  0.00    +0.294 HD
ENDBRANCH   6  19
BRANCH  11  21
ATOM     21  C   UNL     1      -0.056   0.827   0.506  0.00  0.00    +0.314 C 
ATOM     22  O   UNL     1      -0.301   0.533   1.652  0.00  0.00    -0.250 OA
BRANCH  21  23
ATOM     23  O   UNL     1      -0.985   0.646  -0.446  0.00  0.00    -0.460 OA
BRANCH  23  24
ATOM     24  C   UNL     1      -2.297   0.202  -0.012  0.00  0.00    +0.259 C 
BRANCH  24  25
ATOM     25  C   UNL     1      -3.233   0.170  -1.192  0.00  0.00    +0.006 C 
ATOM     26  C   UNL     1      -3.978  -0.885  -1.410  0.00  0.00    +0.007 C 
ENDBRANCH  24  25
ENDBRANCH  23  24
ENDBRANCH  21  23
ENDBRANCH  11  21
BRANCH   2  27
ATOM     27  O   UNL     1       3.664   0.936   0.293  0.00  0.00    -0.388 OA
ATOM     28  H   UNL     1       4.398   0.325   0.447  0.00  0.00    +0.210 HD
ENDBRANCH   2  27
TORSDOF 7
