REMARK  Name = ZINC62580541
REMARK  8 active torsions:
REMARK  status: ('A' for Active; 'I' for Inactive)
REMARK    1  A    between atoms: C_1  and  C_2
REMARK    2  A    between atoms: C_2  and  C_4
REMARK    3  A    between atoms: C_2  and  N_20
REMARK    4  A    between atoms: N_9  and  C_10
REMARK    5  A    between atoms: C_23  and  C_26
REMARK    6  A    between atoms: C_26  and  C_27
REMARK    7  A    between atoms: C_27  and  O_29
REMARK    8  A    between atoms: O_29  and  C_30
REMARK                            x       y       z     vdW  Elec       q    Type
REMARK                         _______ _______ _______ _____ _____    ______ ____
ROOT
ATOM      1  C   UNL     1      -1.363  -0.634   0.114  0.00  0.00    +0.207 C 
ATOM      2  O   UNL     1      -1.591  -1.432   0.997  0.00  0.00    -0.277 OA
ATOM      3  N   UNL     1      -2.328  -0.310  -0.769  0.00  0.00    -0.242 N 
ATOM      4  C   UNL     1      -3.549  -0.873  -0.669  0.00  0.00    +0.306 C 
ATOM      5  O   UNL     1      -3.778  -1.673   0.217  0.00  0.00    -0.252 OA
ATOM      6  N   UNL     1      -4.515  -0.549  -1.551  0.00  0.00    -0.294 N 
ATOM      7  H   UNL     1      -2.145   0.329  -1.476  0.00  0.00    +0.159 HD
ATOM      8  H   UNL     1      -4.332   0.089  -2.258  0.00  0.00    +0.151 HD
ENDROOT
BRANCH   6   9
ATOM      9  C   UNL     1      -5.841  -1.161  -1.442  0.00  0.00    +0.037 C 
ATOM     10  C   UNL     1      -6.452  -0.817  -0.083  0.00  0.00    +0.029 C 
ATOM     11  C   UNL     1      -7.838  -1.456   0.031  0.00  0.00    -0.008 C 
ATOM     12  C   UNL     1      -8.739  -0.921  -1.084  0.00  0.00    +0.007 C 
ATOM     13  C   UNL     1      -8.128  -1.266  -2.443  0.00  0.00    -0.008 C 
ATOM     14  C   UNL     1      -6.743  -0.626  -2.557  0.00  0.00    +0.029 C 
ATOM     15  C   UNL     1      -8.001  -2.784  -2.576  0.00  0.00    +0.007 C 
ATOM     16  C   UNL     1      -7.100  -3.320  -1.461  0.00  0.00    -0.008 C 
ATOM     17  C   UNL     1      -7.710  -2.975  -0.101  0.00  0.00    +0.007 C 
ATOM     18  C   UNL     1      -5.714  -2.680  -1.575  0.00  0.00    +0.029 C 
ENDBRANCH   6   9
BRANCH   1  20
ATOM     19  C   UNL     1       0.019   1.316   0.775  0.00  0.00    -0.004 C 
ATOM     20  C   UNL     1       0.002  -0.004   0.002  0.00  0.00    +0.017 C 
BRANCH  20  21
ATOM     21  N   UNL     1       1.009  -0.914   0.564  0.00  0.00    +0.387 N 
ATOM     22  C   UNL     1       1.010  -2.170  -0.196  0.00  0.00    -0.078 C 
ATOM     23  C   UNL     1       1.999  -3.152   0.435  0.00  0.00    -0.015 C 
ATOM     24  C   UNL     1       3.403  -2.539   0.413  0.00  0.00    -0.004 C 
ATOM     25  C   UNL     1       3.373  -1.194   1.145  0.00  0.00    -0.015 C 
ATOM     26  C   UNL     1       2.333  -0.284   0.487  0.00  0.00    -0.078 C 
ATOM     27  H   UNL     1       0.785  -1.107   1.529  0.00  0.00    -0.081 HD
BRANCH  24  28
ATOM     28  C   UNL     1       4.383  -3.481   1.114  0.00  0.00    +0.124 C 
BRANCH  28  29
ATOM     29  C   UNL     1       5.783  -2.936   0.984  0.00  0.00    +0.307 C 
ATOM     30  O   UNL     1       5.976  -1.901   0.392  0.00  0.00    -0.251 OA
BRANCH  29  31
ATOM     31  O   UNL     1       6.815  -3.602   1.527  0.00  0.00    -0.468 OA
ATOM     32  C   UNL     1       8.113  -3.027   1.365  0.00  0.00    +0.280 C 
ENDBRANCH  29  31
ENDBRANCH  28  29
ENDBRANCH  24  28
ENDBRANCH  20  21
ENDBRANCH   1  20
TORSDOF 6
