REMARK  Name = ZINC56553792
REMARK  12 active torsions:
REMARK  status: ('A' for Active; 'I' for Inactive)
REMARK    1  A    between atoms: C_1  and  N_2
REMARK    2  A    between atoms: N_2  and  C_3
REMARK    3  A    between atoms: N_2  and  C_4
REMARK    4  A    between atoms: C_4  and  C_6
REMARK    5  A    between atoms: C_4  and  C_13
REMARK    6  A    between atoms: C_6  and  C_7
REMARK    7  A    between atoms: C_13  and  N_14
REMARK    8  A    between atoms: N_17  and  C_18
REMARK    9  A    between atoms: C_21  and  N_24
REMARK   10  A    between atoms: N_24  and  C_25
REMARK   11  A    between atoms: C_26  and  O_28
REMARK   12  A    between atoms: O_28  and  C_29
REMARK                            x       y       z     vdW  Elec       q    Type
REMARK                         _______ _______ _______ _____ _____    ______ ____
ROOT
ATOM      1  N   UNL     1      -2.814   1.460  -0.563  0.00  0.00    -0.301 N 
ATOM      2  C   UNL     1      -3.785   2.099  -1.245  0.00  0.00    +0.304 C 
ATOM      3  O   UNL     1      -4.691   1.465  -1.750  0.00  0.00    -0.253 OA
ATOM      4  N   UNL     1      -3.752   3.441  -1.367  0.00  0.00    -0.269 N 
ATOM      5  H   UNL     1      -2.091   1.966  -0.160  0.00  0.00    +0.150 HD
ATOM      6  H   UNL     1      -2.992   3.940  -1.027  0.00  0.00    +0.156 HD
ENDROOT
BRANCH   4   7
ATOM      7  C   UNL     1      -4.814   4.115  -1.985  0.00  0.00    +0.035 A 
ATOM      8  C   UNL     1      -4.567   5.252  -2.742  0.00  0.00    +0.025 A 
ATOM      9  C   UNL     1      -5.614   5.916  -3.350  0.00  0.00    +0.025 A 
ATOM     10  C   UNL     1      -6.912   5.447  -3.205  0.00  0.00    +0.039 A 
ATOM     11  C   UNL     1      -7.158   4.309  -2.448  0.00  0.00    +0.025 A 
ATOM     12  C   UNL     1      -6.112   3.642  -1.844  0.00  0.00    +0.025 A 
BRANCH  10  13
ATOM     13  N   UNL     1      -7.974   6.121  -3.823  0.00  0.00    -0.240 N 
ATOM     14  C   UNL     1      -8.852   5.408  -4.754  0.00  0.00    +0.142 C 
ATOM     15  C   UNL     1      -8.188   7.425  -3.559  0.00  0.00    +0.407 C 
ATOM     16  O   UNL     1      -7.409   8.039  -2.857  0.00  0.00    -0.226 OA
BRANCH  15  17
ATOM     17  O   UNL     1      -9.266   8.048  -4.074  0.00  0.00    -0.453 OA
ATOM     18  C   UNL     1      -9.430   9.431  -3.753  0.00  0.00    +0.282 C 
ENDBRANCH  15  17
ENDBRANCH  10  13
ENDBRANCH   4   7
BRANCH   1  19
ATOM     19  C   UNL     1      -2.850   0.001  -0.430  0.00  0.00    +0.091 C 
BRANCH  19  20
ATOM     20  C   UNL     1      -1.550  -0.485   0.213  0.00  0.00    -0.048 C 
BRANCH  20  22
ATOM     21  C   UNL     1      -0.781  -0.993  -2.002  0.00  0.00    -0.096 C 
ATOM     22  N   UNL     1      -0.443  -0.323  -0.739  0.00  0.00    +0.379 N 
ATOM     23  C   UNL     1      -0.216   1.107  -0.988  0.00  0.00    -0.096 C 
ATOM     24  H   UNL     1       0.395  -0.734  -0.353  0.00  0.00    -0.082 HD
ENDBRANCH  20  22
BRANCH  20  25
ATOM     25  C   UNL     1      -1.688  -1.962   0.589  0.00  0.00    +0.021 C 
BRANCH  25  26
ATOM     26  C   UNL     1      -0.453  -2.410   1.327  0.00  0.00    -0.049 A 
ATOM     27  C   UNL     1       0.641  -2.877   0.623  0.00  0.00    +0.003 A 
ATOM     28  C   UNL     1       1.774  -3.288   1.300  0.00  0.00    +0.000 A 
ATOM     29  C   UNL     1       1.813  -3.231   2.681  0.00  0.00    +0.000 A 
ATOM     30  C   UNL     1       0.719  -2.763   3.385  0.00  0.00    +0.000 A 
ATOM     31  C   UNL     1      -0.412  -2.348   2.707  0.00  0.00    +0.003 A 
ENDBRANCH  25  26
ENDBRANCH  20  25
ENDBRANCH  19  20
ENDBRANCH   1  19
TORSDOF 8
