REMARK  Name = ZINC32806277
REMARK  4 active torsions:
REMARK  status: ('A' for Active; 'I' for Inactive)
REMARK    1  A    between atoms: C_6  and  C_7
REMARK    2  A    between atoms: C_12  and  N_16
REMARK    3  A    between atoms: C_18  and  O_26
REMARK    4  A    between atoms: C_21  and  C_23
REMARK                            x       y       z     vdW  Elec       q    Type
REMARK                         _______ _______ _______ _____ _____    ______ ____
ROOT
ATOM      1  C   UNL     1       0.554   3.116   4.682  0.00  0.00    +0.022 A 
ATOM      2  C   UNL     1       1.013   4.294   4.179  0.00  0.00    +0.044 A 
ATOM      3  C   UNL     1       1.373   4.384   2.827  0.00  0.00    +0.084 A 
ATOM      4  C   UNL     1       1.220   3.197   2.076  0.00  0.00    +0.078 A 
ATOM      5  S   UNL     1       0.597   2.035   3.261  0.00  0.00    -0.083 S 
ATOM      6  C   UNL     1       1.541   3.156   0.731  0.00  0.00    +0.140 A 
ATOM      7  N   UNL     1       2.005   4.267   0.157  0.00  0.00    -0.220 NA
ATOM      8  C   UNL     1       2.137   5.373   0.867  0.00  0.00    +0.224 A 
ATOM      9  N   UNL     1       1.847   5.455   2.140  0.00  0.00    -0.235 NA
ENDROOT
BRANCH   1  15
ATOM     10  C   UNL     1       0.170   3.795   7.048  0.00  0.00    +0.010 A 
ATOM     11  C   UNL     1      -0.236   3.502   8.333  0.00  0.00    +0.016 A 
ATOM     12  C   UNL     1      -0.676   2.229   8.650  0.00  0.00    +0.018 A 
ATOM     13  C   UNL     1      -0.718   1.243   7.678  0.00  0.00    +0.016 A 
ATOM     14  C   UNL     1      -0.320   1.525   6.388  0.00  0.00    +0.010 A 
ATOM     15  C   UNL     1       0.126   2.807   6.063  0.00  0.00    -0.011 A 
ATOM     16 BR   UNL     1      -1.224   1.833  10.416  0.00  0.00    -0.050 Br
ENDBRANCH   1  15
BRANCH   6  17
ATOM     17  N   UNL     1       1.389   1.989  -0.001  0.00  0.00    -0.300 N 
ATOM     18  C   UNL     1      -0.019   1.536   0.011  0.00  0.00    +0.138 C 
ATOM     19  C   UNL     1       0.002  -0.004   0.002  0.00  0.00    +0.134 C 
ATOM     20  C   UNL     1       1.500  -0.388   0.018  0.00  0.00    +0.064 C 
ATOM     21  C   UNL     1       2.176   0.880   0.598  0.00  0.00    +0.163 C 
BRANCH  21  22
ATOM     22  C   UNL     1       3.619   0.956   0.170  0.00  0.00    +0.231 C 
ATOM     23  O   UNL     1       4.005   1.891  -0.499  0.00  0.00    -0.274 OA
ATOM     24  N   UNL     1       4.481  -0.016   0.529  0.00  0.00    -0.328 N 
ATOM     25  H   UNL     1       5.534   0.040   0.217  0.00  0.00    +0.145 HD
ATOM     26  H   UNL     1       4.131  -0.864   1.136  0.00  0.00    +0.145 HD
ENDBRANCH  21  22
BRANCH  19  27
ATOM     27  O   UNL     1      -0.627  -0.502  -1.180  0.00  0.00    -0.390 OA
ATOM     28  H   UNL     1      -0.701  -1.587  -1.349  0.00  0.00    +0.210 HD
ENDBRANCH  19  27
ENDBRANCH   6  17
TORSDOF 4
