REMARK  Name = ZINC00182418
REMARK  4 active torsions:
REMARK  status: ('A' for Active; 'I' for Inactive)
REMARK    1  A    between atoms: C_1  and  C_2
REMARK    2  A    between atoms: N_12  and  C_15
REMARK    3  A    between atoms: C_18  and  S_21
REMARK    4  A    between atoms: S_21  and  N_24
REMARK                            x       y       z     vdW  Elec       q    Type
REMARK                         _______ _______ _______ _____ _____    ______ ____
ROOT
ATOM      1  C   UNL     1      -0.018   1.503   0.010  0.00  0.00    +0.039 C 
ATOM      2  C   UNL     1       0.002  -0.004   0.002  0.00  0.00    -0.076 C 
ATOM      3  C   UNL     1       0.005  -0.611  -1.138  0.00  0.00    -0.027 C 
ATOM      4  C   UNL     1       0.074  -2.088  -1.316  0.00  0.00    +0.040 C 
ATOM      5  C   UNL     1      -0.280  -2.870  -0.048  0.00  0.00    +0.092 C 
ATOM      6  C   UNL     1       0.282  -2.168   1.199  0.00  0.00    +0.092 C 
ATOM      7  C   UNL     1       0.024  -0.722   1.315  0.00  0.00    +0.043 C 
ATOM      8  C   UNL     1       1.734  -2.555   1.175  0.00  0.00    +0.230 C 
ATOM      9  O   UNL     1       2.660  -1.931   1.647  0.00  0.00    -0.274 OA
ATOM     10  N   UNL     1       1.801  -3.737   0.523  0.00  0.00    -0.210 N 
ATOM     11  C   UNL     1       0.628  -4.111  -0.086  0.00  0.00    +0.230 C 
ATOM     12  O   UNL     1       0.348  -5.193  -0.556  0.00  0.00    -0.274 OA
ENDROOT
BRANCH  10  13
ATOM     13  C   UNL     1       2.965  -4.517   0.470  0.00  0.00    +0.044 A 
ATOM     14  C   UNL     1       4.119  -4.088   1.111  0.00  0.00    +0.026 A 
ATOM     15  C   UNL     1       5.264  -4.859   1.057  0.00  0.00    +0.030 A 
ATOM     16  C   UNL     1       5.261  -6.056   0.366  0.00  0.00    +0.105 A 
ATOM     17  C   UNL     1       4.113  -6.486  -0.274  0.00  0.00    +0.030 A 
ATOM     18  C   UNL     1       2.963  -5.723  -0.218  0.00  0.00    +0.026 A 
BRANCH  16  19
ATOM     19  S   UNL     1       6.724  -7.036   0.299  0.00  0.00    +0.056 S 
ATOM     20  O   UNL     1       6.619  -7.844  -0.866  0.00  0.00    -0.153 OA
ATOM     21  O   UNL     1       7.815  -6.152   0.517  0.00  0.00    -0.153 OA
BRANCH  19  22
ATOM     22  N   UNL     1       6.683  -8.066   1.595  0.00  0.00    -0.204 NA
ATOM     23  H   UNL     1       5.935  -8.040   2.211  0.00  0.00    +0.144 HD
ATOM     24  H   UNL     1       7.408  -8.695   1.737  0.00  0.00    +0.144 HD
ENDBRANCH  19  22
ENDBRANCH  16  19
ENDBRANCH  10  13
TORSDOF 3
