REMARK  Name = ZINC37516577
REMARK  4 active torsions:
REMARK  status: ('A' for Active; 'I' for Inactive)
REMARK    1  A    between atoms: C_1  and  C_2
REMARK    2  A    between atoms: C_2  and  C_4
REMARK    3  A    between atoms: C_2  and  N_11
REMARK    4  A    between atoms: C_9  and  N_10
REMARK                            x       y       z     vdW  Elec       q    Type
REMARK                         _______ _______ _______ _____ _____    ______ ____
ROOT
ATOM      1  C   UNL     1       0.104   1.489  -0.317  0.00  0.00    +0.034 C 
ATOM      2  C   UNL     1       0.002  -0.004   0.002  0.00  0.00    +0.113 C 
ENDROOT
BRANCH   2   3
ATOM      3  N   UNL     1      -1.409  -0.390   0.086  0.00  0.00    -0.234 N 
ATOM      4  C   UNL     1      -2.233   0.081   1.030  0.00  0.00    +0.226 C 
ATOM      5  O   UNL     1      -1.926   0.862   1.905  0.00  0.00    -0.275 OA
ATOM      6  C   UNL     1      -3.610  -0.514   0.830  0.00  0.00    +0.088 C 
ATOM      7  C   UNL     1      -3.783  -2.027   0.984  0.00  0.00    +0.027 C 
ATOM      8  C   UNL     1      -3.436  -1.421  -0.405  0.00  0.00    +0.088 C 
ATOM      9  C   UNL     1      -1.981  -1.238  -0.777  0.00  0.00    +0.226 C 
ATOM     10  O   UNL     1      -1.421  -1.776  -1.708  0.00  0.00    -0.275 OA
ENDBRANCH   2   3
BRANCH   2  11
ATOM     11  C   UNL     1       0.679  -0.284   1.319  0.00  0.00    -0.006 A 
ATOM     12  C   UNL     1       0.973   0.756   2.180  0.00  0.00    +0.007 A 
ATOM     13  C   UNL     1       1.594   0.500   3.388  0.00  0.00    +0.000 A 
ATOM     14  C   UNL     1       1.923  -0.797   3.740  0.00  0.00    +0.002 A 
ATOM     15  C   UNL     1       1.632  -1.841   2.884  0.00  0.00    +0.023 A 
ATOM     16  C   UNL     1       1.003  -1.588   1.671  0.00  0.00    +0.030 A 
BRANCH  16  17
ATOM     17  N   UNL     1       0.702  -2.642   0.806  0.00  0.00    -0.358 N 
ATOM     18  H   UNL     1       0.266  -2.464  -0.043  0.00  0.00    +0.142 HD
ATOM     19  H   UNL     1       0.928  -3.552   1.053  0.00  0.00    +0.142 HD
ENDBRANCH  16  17
ENDBRANCH   2  11
TORSDOF 3
