REMARK  Name = ZINC50200398
REMARK  7 active torsions:
REMARK  status: ('A' for Active; 'I' for Inactive)
REMARK    1  A    between atoms: C_1  and  C_2
REMARK    2  A    between atoms: C_4  and  N_12
REMARK    3  A    between atoms: C_7  and  C_8
REMARK    4  A    between atoms: C_9  and  C_10
REMARK    5  A    between atoms: C_10  and  N_11
REMARK    6  A    between atoms: N_12  and  S_13
REMARK    7  A    between atoms: S_13  and  C_16
REMARK                            x       y       z     vdW  Elec       q    Type
REMARK                         _______ _______ _______ _____ _____    ______ ____
ROOT
ATOM      1  C   UNL     1      -0.018   1.503   0.010  0.00  0.00    +0.045 C 
ATOM      2  C   UNL     1       0.002  -0.004   0.002  0.00  0.00    -0.033 A 
ATOM      3  C   UNL     1       0.006  -0.687  -1.195  0.00  0.00    +0.031 A 
ATOM      4  C   UNL     1       0.025  -2.077  -1.203  0.00  0.00    +0.074 A 
ATOM      5  C   UNL     1       0.039  -2.783  -0.005  0.00  0.00    +0.028 A 
ATOM      6  C   UNL     1       0.035  -2.105   1.195  0.00  0.00    +0.019 A 
ATOM      7  C   UNL     1       0.023  -0.709   1.207  0.00  0.00    +0.028 A 
ENDROOT
BRANCH   7   8
ATOM      8  C   UNL     1       0.025  -0.002   2.452  0.00  0.00    -0.068 C 
ATOM      9  C   UNL     1       0.027   0.578   3.473  0.00  0.00    -0.117 C 
BRANCH   9  10
ATOM     10  C   UNL     1       0.029   1.304   4.753  0.00  0.00    +0.005 C 
BRANCH  10  11
ATOM     11  N   UNL     1       0.053   0.342   5.862  0.00  0.00    +0.385 N 
ATOM     12  H   UNL     1      -0.763  -0.249   5.812  0.00  0.00    -0.089 HD
ATOM     13  H   UNL     1       0.884  -0.226   5.797  0.00  0.00    -0.089 HD
ATOM     14  H   UNL     1       0.055   0.840   6.740  0.00  0.00    -0.089 HD
ENDBRANCH  10  11
ENDBRANCH   9  10
ENDBRANCH   7   8
BRANCH   4  15
ATOM     15  N   UNL     1       0.028  -2.766  -2.417  0.00  0.00    -0.102 NA
BRANCH  15  16
ATOM     16  S   UNL     1       0.051  -4.422  -2.429  0.00  0.00    +0.065 S 
ATOM     17  O   UNL     1       1.293  -4.772  -1.834  0.00  0.00    -0.153 OA
ATOM     18  O   UNL     1      -1.176  -4.806  -1.823  0.00  0.00    -0.153 OA
BRANCH  16  19
ATOM     19  C   UNL     1       0.049  -4.876  -4.185  0.00  0.00    +0.157 C 
ATOM     20  C   UNL     1      -1.153  -4.227  -4.880  0.00  0.00    +0.056 C 
ATOM     21  C   UNL     1      -1.191  -4.678  -6.343  0.00  0.00    +0.162 C 
ATOM     22  O   UNL     1      -1.258  -6.105  -6.398  0.00  0.00    -0.380 OA
ATOM     23  C   UNL     1      -0.138  -6.765  -5.805  0.00  0.00    +0.162 C 
ATOM     24  C   UNL     1      -0.057  -6.398  -4.321  0.00  0.00    +0.056 C 
ENDBRANCH  16  19
ENDBRANCH  15  16
ENDBRANCH   4  15
TORSDOF 6
