REMARK  Name = ZINC40779335
REMARK  3 active torsions:
REMARK  status: ('A' for Active; 'I' for Inactive)
REMARK    1  A    between atoms: C_5  and  N_7
REMARK    2  A    between atoms: C_9  and  N_22
REMARK    3  A    between atoms: C_10  and  N_14
REMARK                            x       y       z     vdW  Elec       q    Type
REMARK                         _______ _______ _______ _____ _____    ______ ____
ROOT
ATOM      1  N   UNL     1       1.238  -2.079  -0.025  0.00  0.00    -0.297 N 
ATOM      2  C   UNL     1       0.051  -2.794   0.089  0.00  0.00    +0.149 A 
ATOM      3  C   UNL     1       0.069  -4.186   0.193  0.00  0.00    +0.106 A 
ATOM      4  C   UNL     1      -1.152  -4.854   0.306  0.00  0.00    +0.150 A 
ATOM      5  N   UNL     1      -2.278  -4.144   0.309  0.00  0.00    -0.219 NA
ATOM      6  C   UNL     1      -2.250  -2.831   0.208  0.00  0.00    +0.225 A 
ATOM      7  N   UNL     1      -1.120  -2.161   0.105  0.00  0.00    -0.219 NA
ATOM      8  H   UNL     1       2.080  -2.550  -0.120  0.00  0.00    +0.154 HD
ENDROOT
BRANCH   4   9
ATOM      9  N   UNL     1      -1.191  -6.241   0.412  0.00  0.00    -0.283 N 
ATOM     10  C   UNL     1      -2.414  -6.904   0.418  0.00  0.00    +0.124 A 
ATOM     11  C   UNL     1      -2.444  -8.295   0.419  0.00  0.00    +0.045 A 
ATOM     12  C   UNL     1      -3.667  -8.942   0.425  0.00  0.00    +0.025 A 
ATOM     13  C   UNL     1      -4.824  -8.173   0.431  0.00  0.00    +0.059 A 
ATOM     14  C   UNL     1      -4.720  -6.795   0.430  0.00  0.00    +0.132 A 
ATOM     15  N   UNL     1      -3.539  -6.206   0.429  0.00  0.00    -0.239 NA
ATOM     16 CL   UNL     1      -6.383  -8.935   0.438  0.00  0.00    -0.082 Cl
ATOM     17  H   UNL     1      -0.365  -6.745   0.482  0.00  0.00    +0.155 HD
ENDBRANCH   4   9
BRANCH   1  22
ATOM     18  C   UNL     1       0.155   1.370   0.641  0.00  0.00    +0.002 A 
ATOM     19  C   UNL     1       1.175   2.086   0.040  0.00  0.00    +0.001 A 
ATOM     20  C   UNL     1       2.216   1.422  -0.583  0.00  0.00    +0.017 A 
ATOM     21  C   UNL     1       2.240   0.040  -0.606  0.00  0.00    +0.039 A 
ATOM     22  C   UNL     1       1.217  -0.681  -0.003  0.00  0.00    +0.047 A 
ATOM     23  C   UNL     1       0.173  -0.011   0.621  0.00  0.00    +0.024 A 
ATOM     24 BR   UNL     1       3.663  -0.867  -1.458  0.00  0.00    -0.048 Br
ENDBRANCH   1  22
BRANCH   3  25
ATOM     25  N   UNL     1       1.280  -4.894   0.185  0.00  0.00    -0.353 N 
ATOM     26  H   UNL     1       2.121  -4.417   0.106  0.00  0.00    +0.143 HD
ATOM     27  H   UNL     1       1.277  -5.862   0.258  0.00  0.00    +0.143 HD
ENDBRANCH   3  25
TORSDOF 3
