REMARK  Name = ZINC33985089
REMARK  4 active torsions:
REMARK  status: ('A' for Active; 'I' for Inactive)
REMARK    1  A    between atoms: C_1  and  N_2
REMARK    2  A    between atoms: N_9  and  S_10
REMARK    3  A    between atoms: S_10  and  C_13
REMARK    4  A    between atoms: C_16  and  N_19
REMARK                            x       y       z     vdW  Elec       q    Type
REMARK                         _______ _______ _______ _____ _____    ______ ____
ROOT
ATOM      1  S   UNL     1       3.402  -1.557  -1.036  0.00  0.00    +0.100 S 
ATOM      2  O   UNL     1       4.236  -0.946  -0.061  0.00  0.00    -0.146 OA
ATOM      3  O   UNL     1       3.048  -2.932  -0.981  0.00  0.00    -0.146 OA
ENDROOT
BRANCH   1  12
ATOM      4  C   UNL     1      -0.018   1.461   0.010  0.00  0.00    +0.130 C 
ATOM      5  N   UNL     1       0.002  -0.004   0.002  0.00  0.00    -0.320 N 
ATOM      6  C   UNL     1      -1.211  -0.768   0.003  0.00  0.00    +0.106 C 
ATOM      7  C   UNL     1      -1.754  -1.162   1.387  0.00  0.00    +0.019 C 
ATOM      8  C   UNL     1      -0.595  -1.605   2.316  0.00  0.00    +0.002 C 
ATOM      9  C   UNL     1       0.437  -2.439   1.610  0.00  0.00    +0.008 C 
ATOM     10  C   UNL     1       1.553  -1.477   1.177  0.00  0.00    +0.073 C 
ATOM     11  C   UNL     1       1.210  -0.719  -0.013  0.00  0.00    +0.119 C 
ATOM     12  N   UNL     1       1.984  -0.703  -1.049  0.00  0.00    -0.118 NA
ENDBRANCH   1  12
BRANCH   1  13
ATOM     13  C   UNL     1       4.180  -1.300  -2.596  0.00  0.00    +0.113 A 
ATOM     14  C   UNL     1       3.908  -2.151  -3.652  0.00  0.00    +0.031 A 
ATOM     15  C   UNL     1       4.515  -1.952  -4.876  0.00  0.00    +0.024 A 
ATOM     16  C   UNL     1       5.400  -0.895  -5.046  0.00  0.00    +0.025 A 
ATOM     17  C   UNL     1       5.671  -0.041  -3.985  0.00  0.00    +0.024 A 
ATOM     18  C   UNL     1       5.056  -0.243  -2.765  0.00  0.00    +0.031 A 
BRANCH  16  19
ATOM     19  N   UNL     1       6.017  -0.691  -6.283  0.00  0.00    -0.358 N 
ATOM     20  H   UNL     1       5.827  -1.288  -7.024  0.00  0.00    +0.142 HD
ATOM     21  H   UNL     1       6.635   0.047  -6.401  0.00  0.00    +0.142 HD
ENDBRANCH  16  19
ENDBRANCH   1  13
TORSDOF 3
