REMARK  Name = ZINC02502843
REMARK  5 active torsions:
REMARK  status: ('A' for Active; 'I' for Inactive)
REMARK    1  A    between atoms: N_6  and  C_7
REMARK    2  A    between atoms: C_7  and  C_9
REMARK    3  A    between atoms: C_7  and  C_17
REMARK    4  A    between atoms: C_13  and  O_16
REMARK    5  A    between atoms: C_26  and  O_27
REMARK                            x       y       z     vdW  Elec       q    Type
REMARK                         _______ _______ _______ _____ _____    ______ ____
ROOT
ATOM      1  C   UNL     1       1.016   5.986   0.025  0.00  0.00    +0.137 C 
ENDROOT
BRANCH   1   2
ATOM      2  C   UNL     1       0.600   7.334  -0.505  0.00  0.00    +0.021 A 
ATOM      3  C   UNL     1       0.490   8.411   0.371  0.00  0.00    +0.010 A 
ATOM      4  C   UNL     1       0.117   9.642  -0.076  0.00  0.00    +0.010 A 
ATOM      5  C   UNL     1      -0.162   9.832  -1.440  0.00  0.00    +0.004 A 
ATOM      6  C   UNL     1      -0.551  11.090  -1.939  0.00  0.00    +0.011 A 
ATOM      7  C   UNL     1      -0.806  11.201  -3.276  0.00  0.00    +0.020 A 
ATOM      8  C   UNL     1      -0.679  10.087  -4.103  0.00  0.00    +0.111 A 
ATOM      9  N   UNL     1      -0.316   8.918  -3.634  0.00  0.00    -0.251 NA
ATOM     10  C   UNL     1      -0.052   8.742  -2.337  0.00  0.00    +0.113 A 
ATOM     11  C   UNL     1       0.342   7.482  -1.838  0.00  0.00    +0.148 A 
BRANCH  11  12
ATOM     12  O   UNL     1       0.460   6.422  -2.679  0.00  0.00    -0.504 OA
ATOM     13  H   UNL     1      -0.353   5.908  -2.781  0.00  0.00    +0.292 HD
ENDBRANCH  11  12
ENDBRANCH   1   2
BRANCH   1  19
ATOM     14  C   UNL     1       1.428   1.814  -0.146  0.00  0.00    +0.005 A 
ATOM     15  C   UNL     1       0.288   1.023  -0.072  0.00  0.00    +0.018 A 
ATOM     16  C   UNL     1      -0.947   1.627   0.050  0.00  0.00    +0.084 A 
ATOM     17  C   UNL     1       0.006   3.729   0.040  0.00  0.00    +0.097 A 
ATOM     18  C   UNL     1       1.282   3.188  -0.089  0.00  0.00    +0.041 A 
ATOM     19  N   UNL     1      -0.154   5.108   0.099  0.00  0.00    -0.320 N 
ATOM     20  H   UNL     1      -1.042   5.489   0.189  0.00  0.00    +0.148 HD
ATOM     21  N   UNL     1      -1.127   2.973   0.115  0.00  0.00    -0.350 N 
ATOM     22  H   UNL     1      -2.058   3.395   0.214  0.00  0.00    +0.166 HD
ENDBRANCH   1  19
BRANCH   1  23
ATOM     23  C   UNL     1       1.610   6.148   1.400  0.00  0.00    -0.001 A 
ATOM     24  C   UNL     1       0.823   5.955   2.520  0.00  0.00    +0.007 A 
ATOM     25  C   UNL     1       1.365   6.102   3.783  0.00  0.00    +0.004 A 
ATOM     26  C   UNL     1       2.696   6.444   3.930  0.00  0.00    +0.047 A 
ATOM     27  C   UNL     1       3.488   6.639   2.809  0.00  0.00    +0.135 A 
ATOM     28  C   UNL     1       2.943   6.485   1.541  0.00  0.00    +0.088 A 
ATOM     29 CL   UNL     1       3.933   6.722   0.135  0.00  0.00    -0.079 Cl
BRANCH  27  30
ATOM     30  O   UNL     1       4.798   6.976   2.950  0.00  0.00    -0.505 OA
ATOM     31  H   UNL     1       5.396   6.217   2.997  0.00  0.00    +0.292 HD
ENDBRANCH  27  30
ENDBRANCH   1  23
TORSDOF 5
