REMARK  Name = ZINC50226071
REMARK  7 active torsions:
REMARK  status: ('A' for Active; 'I' for Inactive)
REMARK    1  A    between atoms: C_1  and  C_2
REMARK    2  A    between atoms: C_5  and  N_20
REMARK    3  A    between atoms: C_7  and  N_8
REMARK    4  A    between atoms: C_9  and  C_11
REMARK    5  A    between atoms: C_11  and  N_12
REMARK    6  A    between atoms: C_13  and  C_19
REMARK    7  A    between atoms: C_15  and  C_17
REMARK                            x       y       z     vdW  Elec       q    Type
REMARK                         _______ _______ _______ _____ _____    ______ ____
ROOT
ATOM      1  N   UNL     1       0.025  -0.011   2.417  0.00  0.00    -0.284 N 
ATOM      2  C   UNL     1      -0.057  -0.689   3.579  0.00  0.00    +0.239 C 
ATOM      3  O   UNL     1      -0.040  -1.901   3.577  0.00  0.00    -0.273 OA
ATOM      4  H   UNL     1       0.078   0.958   2.423  0.00  0.00    +0.155 HD
ENDROOT
BRANCH   1  11
ATOM      5  C   UNL     1      -1.265   1.183   0.182  0.00  0.00    +0.045 C 
ATOM      6  C   UNL     1      -0.585  -0.158   0.085  0.00  0.00    -0.029 A 
ATOM      7  C   UNL     1      -0.572  -0.840  -1.117  0.00  0.00    +0.007 A 
ATOM      8  C   UNL     1       0.050  -2.069  -1.210  0.00  0.00    +0.023 A 
ATOM      9  C   UNL     1       0.666  -2.625  -0.095  0.00  0.00    +0.026 A 
ATOM     10  C   UNL     1       0.655  -1.942   1.113  0.00  0.00    +0.046 A 
ATOM     11  C   UNL     1       0.033  -0.705   1.202  0.00  0.00    +0.038 A 
BRANCH   9  12
ATOM     12  N   UNL     1       1.294  -3.869  -0.190  0.00  0.00    -0.358 N 
ATOM     13  H   UNL     1       1.301  -4.345  -1.035  0.00  0.00    +0.142 HD
ATOM     14  H   UNL     1       1.723  -4.256   0.589  0.00  0.00    +0.142 HD
ENDBRANCH   9  12
ENDBRANCH   1  11
BRANCH   2  15
ATOM     15  C   UNL     1      -0.168   0.061   4.882  0.00  0.00    +0.239 C 
BRANCH  15  16
ATOM     16  N   UNL     1      -0.242  -0.895   5.990  0.00  0.00    -0.258 N 
ATOM     17  C   UNL     1      -1.370  -1.431   6.503  0.00  0.00    +0.055 A 
ATOM     18  C   UNL     1      -1.010  -2.263   7.509  0.00  0.00    +0.084 A 
ATOM     19  C   UNL     1       0.385  -2.233   7.615  0.00  0.00    +0.078 A 
ATOM     20  N   UNL     1       0.846  -1.417   6.701  0.00  0.00    -0.174 NA
ATOM     21  C   UNL     1       1.212  -3.010   8.605  0.00  0.00    +0.069 C 
ATOM     22 CL   UNL     1      -2.090  -3.200   8.495  0.00  0.00    -0.080 Cl
ATOM     23  C   UNL     1      -2.776  -1.154   6.039  0.00  0.00    +0.067 C 
ENDBRANCH  15  16
ENDBRANCH   2  15
TORSDOF 4
