REMARK  Name = ZINC40381590
REMARK  4 active torsions:
REMARK  status: ('A' for Active; 'I' for Inactive)
REMARK    1  A    between atoms: C_4  and  N_11
REMARK    2  A    between atoms: C_6  and  S_7
REMARK    3  A    between atoms: S_7  and  N_10
REMARK    4  A    between atoms: C_12  and  C_14
REMARK                            x       y       z     vdW  Elec       q    Type
REMARK                         _______ _______ _______ _____ _____    ______ ____
ROOT
ATOM      1  C   UNL     1      -0.023   1.366   0.040  0.00  0.00    +0.031 A 
ATOM      2  C   UNL     1       1.161   2.081   0.026  0.00  0.00    +0.042 A 
ATOM      3  C   UNL     1       2.372   1.415   0.000  0.00  0.00    +0.145 A 
ATOM      4  C   UNL     1       2.398   0.024  -0.011  0.00  0.00    +0.071 A 
ATOM      5  C   UNL     1       1.207  -0.689   0.004  0.00  0.00    +0.054 A 
ATOM      6  C   UNL     1       0.000  -0.017   0.029  0.00  0.00    +0.107 A 
ATOM      7  F   UNL     1       3.528   2.113  -0.015  0.00  0.00    -0.204 F 
ENDROOT
BRANCH   4   8
ATOM      8  N   UNL     1       3.621  -0.655  -0.037  0.00  0.00    -0.278 N 
ATOM      9  C   UNL     1       3.688  -1.904  -0.539  0.00  0.00    +0.265 C 
ATOM     10  O   UNL     1       2.709  -2.405  -1.059  0.00  0.00    -0.268 OA
ATOM     11  H   UNL     1       4.421  -0.226   0.305  0.00  0.00    +0.155 HD
BRANCH   9  12
ATOM     12  C   UNL     1       4.942  -2.661  -0.456  0.00  0.00    +0.103 A 
ATOM     13  C   UNL     1       5.155  -3.939  -0.930  0.00  0.00    +0.047 A 
ATOM     14  C   UNL     1       6.484  -4.268  -0.641  0.00  0.00    +0.036 A 
ATOM     15  C   UNL     1       7.046  -3.208  -0.011  0.00  0.00    +0.098 A 
ATOM     16  N   UNL     1       6.121  -2.223   0.102  0.00  0.00    -0.356 N 
ATOM     17  H   UNL     1       6.266  -1.355   0.510  0.00  0.00    +0.165 HD
ATOM     18 BR   UNL     1       7.342  -5.901  -1.057  0.00  0.00    -0.049 Br
ENDBRANCH   9  12
ENDBRANCH   4   8
BRANCH   6  19
ATOM     19  S   UNL     1      -1.511  -0.922   0.048  0.00  0.00    +0.056 S 
ATOM     20  O   UNL     1      -1.210  -2.203   0.584  0.00  0.00    -0.153 OA
ATOM     21  O   UNL     1      -2.490  -0.066   0.622  0.00  0.00    -0.153 OA
BRANCH  19  22
ATOM     22  N   UNL     1      -1.958  -1.161  -1.528  0.00  0.00    -0.204 NA
ATOM     23  H   UNL     1      -2.466  -1.951  -1.774  0.00  0.00    +0.144 HD
ATOM     24  H   UNL     1      -1.712  -0.513  -2.206  0.00  0.00    +0.144 HD
ENDBRANCH  19  22
ENDBRANCH   6  19
TORSDOF 4
