REMARK  Name = ZINC09738958
REMARK  11 active torsions:
REMARK  status: ('A' for Active; 'I' for Inactive)
REMARK    1  A    between atoms: C_1  and  C_2
REMARK    2  A    between atoms: C_2  and  O_3
REMARK    3  A    between atoms: O_3  and  C_4
REMARK    4  A    between atoms: C_8  and  C_11
REMARK    5  A    between atoms: C_9  and  O_10
REMARK    6  A    between atoms: C_13  and  C_32
REMARK    7  A    between atoms: N_17  and  C_22
REMARK    8  A    between atoms: C_25  and  C_28
REMARK    9  A    between atoms: C_28  and  C_29
REMARK   10  A    between atoms: C_28  and  C_30
REMARK   11  A    between atoms: C_28  and  C_31
REMARK                            x       y       z     vdW  Elec       q    Type
REMARK                         _______ _______ _______ _____ _____    ______ ____
ROOT
ATOM      1  C   UNL     1      -0.828   1.653   6.058  0.00  0.00    +0.166 A 
ATOM      2  N   UNL     1      -1.915   2.407   6.005  0.00  0.00    -0.220 NA
ATOM      3  C   UNL     1      -2.519   2.818   7.120  0.00  0.00    +0.154 A 
ATOM      4  C   UNL     1      -1.976   2.446   8.350  0.00  0.00    +0.117 A 
ATOM      5  C   UNL     1      -0.816   1.649   8.360  0.00  0.00    +0.170 A 
ATOM      6  N   UNL     1      -0.281   1.280   7.210  0.00  0.00    -0.207 NA
ATOM      7  N   UNL     1      -0.497   1.431   9.689  0.00  0.00    -0.245 N 
ATOM      8  C   UNL     1      -1.409   2.060  10.455  0.00  0.00    +0.333 A 
ATOM      9  O   UNL     1      -1.417   2.067  11.671  0.00  0.00    -0.246 OA
ATOM     10  N   UNL     1      -2.313   2.680   9.671  0.00  0.00    -0.303 N 
ATOM     11  H   UNL     1      -3.070   3.201   9.980  0.00  0.00    +0.171 HD
ENDROOT
BRANCH   1  16
ATOM     12  C   UNL     1      -0.148   1.182   2.381  0.00  0.00    +0.162 A 
ATOM     13  C   UNL     1       0.993   0.398   2.421  0.00  0.00    +0.049 A 
ATOM     14  C   UNL     1       1.540   0.023   3.635  0.00  0.00    +0.004 A 
ATOM     15  C   UNL     1       0.954   0.428   4.817  0.00  0.00    +0.015 A 
ATOM     16  C   UNL     1      -0.195   1.218   4.790  0.00  0.00    +0.064 A 
ATOM     17  C   UNL     1      -0.745   1.600   3.564  0.00  0.00    +0.169 A 
BRANCH  17  18
ATOM     18  O   UNL     1      -1.862   2.374   3.529  0.00  0.00    -0.503 OA
ATOM     19  H   UNL     1      -2.688   1.872   3.522  0.00  0.00    +0.292 HD
ENDBRANCH  17  18
BRANCH  12  20
ATOM     20  O   UNL     1      -0.682   1.547   1.184  0.00  0.00    -0.489 OA
BRANCH  20  22
ATOM     21  C   UNL     1      -0.753   1.593  -1.232  0.00  0.00    +0.048 C 
ATOM     22  C   UNL     1      -0.013   1.086   0.008  0.00  0.00    +0.226 C 
ENDBRANCH  20  22
ENDBRANCH  12  20
ENDBRANCH   1  16
BRANCH   7  23
ATOM     23  C   UNL     1       0.591   0.683  10.159  0.00  0.00    +0.053 A 
ATOM     24  C   UNL     1       1.458   0.078   9.259  0.00  0.00    +0.026 A 
ATOM     25  C   UNL     1       2.534  -0.654   9.725  0.00  0.00    +0.006 A 
ATOM     26  C   UNL     1       2.740  -0.793  11.085  0.00  0.00    -0.042 A 
ATOM     27  C   UNL     1       1.874  -0.197  11.983  0.00  0.00    +0.006 A 
ATOM     28  C   UNL     1       0.800   0.541  11.524  0.00  0.00    +0.026 A 
BRANCH  26  29
ATOM     29  C   UNL     1       3.910  -1.598  11.590  0.00  0.00    -0.013 C 
ATOM     30  C   UNL     1       3.399  -2.762  12.441  0.00  0.00    +0.015 C 
ATOM     31  C   UNL     1       4.703  -2.145  10.401  0.00  0.00    +0.015 C 
ATOM     32  C   UNL     1       4.815  -0.703  12.439  0.00  0.00    +0.015 C 
ENDBRANCH  26  29
ENDBRANCH   7  23
BRANCH   3  33
ATOM     33  C   UNL     1      -3.739   3.656   7.055  0.00  0.00    +0.262 C 
ATOM     34  O   UNL     1      -4.277   4.027   8.079  0.00  0.00    -0.269 OA
ATOM     35  N   UNL     1      -4.252   4.007   5.859  0.00  0.00    -0.324 N 
ATOM     36  H   UNL     1      -3.822   3.711   5.041  0.00  0.00    +0.145 HD
ATOM     37  H   UNL     1      -5.050   4.556   5.816  0.00  0.00    +0.145 HD
ENDBRANCH   3  33
TORSDOF 7
