REMARK  Name = ZINC40233881
REMARK  5 active torsions:
REMARK  status: ('A' for Active; 'I' for Inactive)
REMARK    1  A    between atoms: C_3  and  C_10
REMARK    2  A    between atoms: C_5  and  C_6
REMARK    3  A    between atoms: C_7  and  C_8
REMARK    4  A    between atoms: C_8  and  N_9
REMARK    5  A    between atoms: C_16  and  C_19
REMARK                            x       y       z     vdW  Elec       q    Type
REMARK                         _______ _______ _______ _____ _____    ______ ____
ROOT
ATOM      1  C   UNL     1       3.734   1.809  -0.024  0.00  0.00    +0.253 C 
ATOM      2  O   UNL     1       3.961   3.000  -0.141  0.00  0.00    -0.269 OA
ATOM      3  N   UNL     1       4.755   0.934   0.063  0.00  0.00    -0.296 N 
ATOM      4  C   UNL     1       4.503  -0.513   0.054  0.00  0.00    +0.108 C 
ATOM      5  C   UNL     1       5.356  -1.155  -1.045  0.00  0.00    +0.020 C 
ATOM      6  C   UNL     1       6.823  -0.774  -0.835  0.00  0.00    +0.016 C 
ATOM      7  C   UNL     1       6.976   0.746  -0.931  0.00  0.00    +0.092 C 
ATOM      8  C   UNL     1       6.142   1.409   0.163  0.00  0.00    +0.120 C 
ENDROOT
BRANCH   1  11
ATOM      9  C   UNL     1       0.003   1.301  -0.293  0.00  0.00    +0.025 A 
ATOM     10  C   UNL     1       1.198   1.945  -0.444  0.00  0.00    +0.022 A 
ATOM     11  C   UNL     1       2.351   1.328   0.021  0.00  0.00    +0.075 A 
ATOM     12  S   UNL     1       1.717  -0.202   0.687  0.00  0.00    -0.075 S 
ATOM     13  C   UNL     1      -0.011   0.055   0.319  0.00  0.00    +0.063 A 
BRANCH  13  14
ATOM     14  C   UNL     1      -1.125  -0.803   0.587  0.00  0.00    -0.061 C 
ATOM     15  C   UNL     1      -2.039  -1.507   0.806  0.00  0.00    -0.116 C 
BRANCH  15  16
ATOM     16  C   UNL     1      -3.184  -2.389   1.082  0.00  0.00    +0.005 C 
BRANCH  16  17
ATOM     17  N   UNL     1      -2.712  -3.610   1.750  0.00  0.00    +0.385 N 
ATOM     18  H   UNL     1      -2.056  -4.088   1.151  0.00  0.00    -0.089 HD
ATOM     19  H   UNL     1      -2.260  -3.365   2.618  0.00  0.00    -0.089 HD
ATOM     20  H   UNL     1      -3.498  -4.215   1.938  0.00  0.00    -0.089 HD
ENDBRANCH  16  17
ENDBRANCH  15  16
ENDBRANCH  13  14
ENDBRANCH   1  11
BRANCH   7  21
ATOM     21  C   UNL     1       8.426   1.118  -0.756  0.00  0.00    +0.215 C 
ATOM     22  O   UNL     1       9.256   0.253  -0.574  0.00  0.00    -0.276 OA
ATOM     23  N   UNL     1       8.800   2.412  -0.804  0.00  0.00    -0.329 N 
ATOM     24  H   UNL     1       8.136   3.104  -0.950  0.00  0.00    +0.145 HD
ATOM     25  H   UNL     1       9.733   2.651  -0.692  0.00  0.00    +0.145 HD
ENDBRANCH   7  21
TORSDOF 5
