REMARK  Name = ZINC39015560
REMARK  6 active torsions:
REMARK  status: ('A' for Active; 'I' for Inactive)
REMARK    1  A    between atoms: C_4  and  N_7
REMARK    2  A    between atoms: C_8  and  C_10
REMARK    3  A    between atoms: C_12  and  N_21
REMARK    4  A    between atoms: C_22  and  C_24
REMARK    5  A    between atoms: C_27  and  C_29
REMARK    6  A    between atoms: C_34  and  O_35
REMARK                            x       y       z     vdW  Elec       q    Type
REMARK                         _______ _______ _______ _____ _____    ______ ____
ROOT
ATOM      1  C   UNL     1       4.962  -2.721   0.153  0.00  0.00    +0.283 C 
ATOM      2  C   UNL     1       5.755  -2.594  -1.169  0.00  0.00    +0.157 C 
ATOM      3  C   UNL     1       6.417  -3.955  -1.269  0.00  0.00    +0.019 A 
ATOM      4  C   UNL     1       7.460  -4.422  -2.039  0.00  0.00    +0.009 A 
ATOM      5  C   UNL     1       7.872  -5.737  -1.919  0.00  0.00    +0.001 A 
ATOM      6  C   UNL     1       7.234  -6.578  -1.026  0.00  0.00    +0.004 A 
ATOM      7  C   UNL     1       6.188  -6.114  -0.257  0.00  0.00    +0.046 A 
ATOM      8  C   UNL     1       5.764  -4.792  -0.374  0.00  0.00    +0.127 A 
ATOM      9  O   UNL     1       4.754  -4.139   0.270  0.00  0.00    -0.477 OA
ENDROOT
BRANCH   1  11
ATOM     10  N   UNL     1       3.622  -0.651  -0.037  0.00  0.00    -0.282 N 
ATOM     11  C   UNL     1       3.645  -1.995   0.057  0.00  0.00    +0.260 C 
ATOM     12  O   UNL     1       2.606  -2.620   0.064  0.00  0.00    -0.271 OA
ATOM     13  H   UNL     1       4.452  -0.156  -0.121  0.00  0.00    +0.155 HD
BRANCH  10  17
ATOM     14  C   UNL     1      -0.015   1.381   0.029  0.00  0.00    +0.000 A 
ATOM     15  C   UNL     1       0.140   0.218   0.763  0.00  0.00    +0.002 A 
ATOM     16  C   UNL     1       1.344  -0.457   0.743  0.00  0.00    +0.023 A 
ATOM     17  C   UNL     1       2.400   0.031  -0.015  0.00  0.00    +0.033 A 
ATOM     18  C   UNL     1       2.241   1.198  -0.751  0.00  0.00    +0.023 A 
ATOM     19  C   UNL     1       1.034   1.869  -0.727  0.00  0.00    +0.002 A 
ENDBRANCH  10  17
ENDBRANCH   1  11
BRANCH   2  20
ATOM     20  N   UNL     1       6.757  -1.529  -1.079  0.00  0.00    -0.299 N 
ATOM     21  C   UNL     1       7.191  -0.915  -2.198  0.00  0.00    +0.261 C 
ATOM     22  O   UNL     1       6.750  -1.246  -3.283  0.00  0.00    -0.269 OA
ATOM     23  H   UNL     1       7.108  -1.266  -0.214  0.00  0.00    +0.150 HD
BRANCH  21  24
ATOM     24  C   UNL     1       8.193   0.150  -2.107  0.00  0.00    +0.131 C 
ATOM     25  N   UNL     1       8.765   0.615  -1.027  0.00  0.00    -0.148 NA
ATOM     26  N   UNL     1       9.607   1.550  -1.237  0.00  0.00    -0.153 NA
ATOM     27  C   UNL     1       9.745   1.876  -2.503  0.00  0.00    +0.080 C 
ATOM     28  C   UNL     1       8.798   0.951  -3.249  0.00  0.00    +0.120 C 
BRANCH  27  29
ATOM     29  C   UNL     1      10.624   2.901  -3.070  0.00  0.00    +0.040 A 
ATOM     30  C   UNL     1      10.645   3.126  -4.454  0.00  0.00    +0.013 A 
ATOM     31  C   UNL     1      11.473   4.092  -4.979  0.00  0.00    +0.001 A 
ATOM     32  C   UNL     1      12.289   4.843  -4.146  0.00  0.00    +0.004 A 
ATOM     33  C   UNL     1      12.280   4.634  -2.781  0.00  0.00    +0.046 A 
ATOM     34  C   UNL     1      11.449   3.671  -2.230  0.00  0.00    +0.126 A 
BRANCH  34  35
ATOM     35  O   UNL     1      11.436   3.468  -0.889  0.00  0.00    -0.506 OA
ATOM     36  H   UNL     1      12.076   2.810  -0.585  0.00  0.00    +0.292 HD
ENDBRANCH  34  35
ENDBRANCH  27  29
ENDBRANCH  21  24
ENDBRANCH   2  20
TORSDOF 6
