REMARK  Name = ZINC07010239
REMARK  7 active torsions:
REMARK  status: ('A' for Active; 'I' for Inactive)
REMARK    1  A    between atoms: C_1  and  C_2
REMARK    2  A    between atoms: C_2  and  C_28
REMARK    3  A    between atoms: C_7  and  C_11
REMARK    4  A    between atoms: N_13  and  N_14
REMARK    5  A    between atoms: C_15  and  C_17
REMARK    6  A    between atoms: C_23  and  C_26
REMARK    7  A    between atoms: C_23  and  C_27
REMARK                            x       y       z     vdW  Elec       q    Type
REMARK                         _______ _______ _______ _____ _____    ______ ____
ROOT
ATOM      1  C   UNL     1      -3.072   3.423   2.366  0.00  0.00    +0.239 C 
ATOM      2  O   UNL     1      -3.137   4.579   2.004  0.00  0.00    -0.273 OA
ATOM      3  N   UNL     1      -3.158   3.121   3.677  0.00  0.00    -0.234 N 
ATOM      4  H   UNL     1      -3.107   2.197   3.966  0.00  0.00    +0.173 HD
ENDROOT
BRANCH   1  10
ATOM      5  C   UNL     1      -5.151   0.836  -0.903  0.00  0.00    +0.016 C 
ATOM      6  C   UNL     1      -3.884   0.618  -0.073  0.00  0.00    -0.010 C 
ATOM      7  C   UNL     1      -2.668   1.329  -0.743  0.00  0.00    +0.000 C 
ATOM      8  C   UNL     1      -1.433   0.825   0.066  0.00  0.00    +0.006 C 
ATOM      9  C   UNL     1      -1.586   1.481   1.458  0.00  0.00    +0.021 C 
ATOM     10  C   UNL     1      -2.897   2.324   1.350  0.00  0.00    +0.070 C 
ATOM     11  C   UNL     1      -2.830   2.774  -0.152  0.00  0.00    +0.025 C 
ATOM     12  C   UNL     1      -4.023   1.282   1.289  0.00  0.00    -0.056 C 
ATOM     13  C   UNL     1      -4.914   1.021   2.213  0.00  0.00    +0.009 C 
ATOM     14  C   UNL     1      -3.604  -0.878   0.088  0.00  0.00    +0.016 C 
ENDBRANCH   1  10
BRANCH   3  15
ATOM     15  N   UNL     1      -3.321   4.143   4.621  0.00  0.00    -0.234 N 
ATOM     16  C   UNL     1      -3.407   3.842   5.932  0.00  0.00    +0.242 C 
ATOM     17  O   UNL     1      -3.342   2.686   6.294  0.00  0.00    -0.273 OA
ATOM     18  H   UNL     1      -3.373   5.067   4.332  0.00  0.00    +0.173 HD
BRANCH  16  19
ATOM     19  C   UNL     1      -3.583   4.941   6.948  0.00  0.00    +0.107 C 
ATOM     20  C   UNL     1      -4.890   5.781   6.821  0.00  0.00    +0.024 C 
ATOM     21  C   UNL     1      -5.069   6.436   8.210  0.00  0.00    +0.006 C 
ATOM     22  C   UNL     1      -3.846   5.933   9.038  0.00  0.00    +0.003 C 
ATOM     23  C   UNL     1      -3.672   4.488   8.448  0.00  0.00    +0.028 C 
ATOM     24  C   UNL     1      -2.621   6.647   8.388  0.00  0.00    +0.027 C 
ATOM     25  C   UNL     1      -2.446   5.970   7.024  0.00  0.00    +0.154 C 
ATOM     26  O   UNL     1      -1.612   6.203   6.182  0.00  0.00    -0.296 OA
ATOM     27  C   UNL     1      -2.902   8.141   8.223  0.00  0.00    +0.019 C 
ATOM     28  C   UNL     1      -1.367   6.433   9.239  0.00  0.00    +0.019 C 
ENDBRANCH  16  19
ENDBRANCH   3  15
TORSDOF 3
