REMARK  Name = ZINC35664237
REMARK  13 active torsions:
REMARK  status: ('A' for Active; 'I' for Inactive)
REMARK    1  A    between atoms: C_1  and  C_2
REMARK    2  A    between atoms: C_2  and  N_3
REMARK    3  A    between atoms: C_4  and  C_23
REMARK    4  A    between atoms: C_5  and  C_18
REMARK    5  A    between atoms: C_6  and  C_11
REMARK    6  A    between atoms: C_18  and  O_20
REMARK    7  A    between atoms: O_20  and  C_21
REMARK    8  A    between atoms: C_21  and  C_22
REMARK    9  A    between atoms: C_23  and  N_24
REMARK   10  A    between atoms: N_33  and  C_34
REMARK   11  A    between atoms: C_34  and  C_35
REMARK   12  A    between atoms: C_34  and  C_36
REMARK   13  A    between atoms: C_34  and  C_37
REMARK                            x       y       z     vdW  Elec       q    Type
REMARK                         _______ _______ _______ _____ _____    ______ ____
ROOT
ATOM      1  N   UNL     1      -1.786  -0.009   0.280  0.00  0.00    -0.261 N 
ATOM      2  C   UNL     1      -1.786  -0.888   1.325  0.00  0.00    +0.010 C 
ATOM      3  C   UNL     1      -2.569  -1.988   1.311  0.00  0.00    +0.076 C 
ATOM      4  C   UNL     1      -3.447  -2.213   0.098  0.00  0.00    +0.144 C 
ATOM      5  N   UNL     1      -3.375  -1.206  -0.975  0.00  0.00    -0.288 N 
ATOM      6  C   UNL     1      -2.546  -0.156  -0.813  0.00  0.00    +0.307 C 
ATOM      7  O   UNL     1      -2.481   0.683  -1.690  0.00  0.00    -0.252 OA
ATOM      8  H   UNL     1      -3.913  -1.295  -1.776  0.00  0.00    +0.151 HD
ENDROOT
BRANCH   4   9
ATOM      9  C   UNL     1      -4.877  -2.289   0.567  0.00  0.00    -0.020 A 
ATOM     10  C   UNL     1      -5.579  -1.128   0.834  0.00  0.00    +0.006 A 
ATOM     11  C   UNL     1      -6.891  -1.195   1.265  0.00  0.00    +0.003 A 
ATOM     12  C   UNL     1      -7.502  -2.424   1.429  0.00  0.00    +0.038 A 
ATOM     13  C   UNL     1      -6.801  -3.587   1.162  0.00  0.00    +0.124 A 
ATOM     14  C   UNL     1      -5.489  -3.518   0.725  0.00  0.00    +0.044 A 
ATOM     15  F   UNL     1      -7.397  -4.788   1.322  0.00  0.00    -0.205 F 
ENDBRANCH   4   9
BRANCH   1  17
ATOM     16  C   UNL     1      -1.666   2.316   1.030  0.00  0.00    +0.025 C 
ATOM     17  C   UNL     1      -0.912   1.163   0.362  0.00  0.00    +0.111 C 
ENDBRANCH   1  17
BRANCH   3  18
ATOM     18  C   UNL     1      -2.568  -2.900   2.393  0.00  0.00    +0.339 C 
ATOM     19  O   UNL     1      -1.921  -2.656   3.394  0.00  0.00    -0.245 OA
BRANCH  18  20
ATOM     20  O   UNL     1      -3.285  -4.041   2.314  0.00  0.00    -0.462 OA
BRANCH  20  21
ATOM     21  C   UNL     1      -3.238  -4.916   3.443  0.00  0.00    +0.229 C 
ATOM     22  C   UNL     1      -4.105  -6.147   3.170  0.00  0.00    +0.048 C 
ENDBRANCH  20  21
ENDBRANCH  18  20
ENDBRANCH   3  18
BRANCH   2  23
ATOM     23  C   UNL     1      -0.896  -0.626   2.513  0.00  0.00    -0.026 C 
BRANCH  23  24
ATOM     24  N   UNL     1       0.313  -1.455   2.412  0.00  0.00    +0.384 N 
ATOM     25  C   UNL     1       1.029  -1.383   3.684  0.00  0.00    -0.077 C 
ATOM     26  C   UNL     1       1.792  -2.672   3.900  0.00  0.00    +0.000 C 
ATOM     27  C   UNL     1       3.229  -2.511   3.372  0.00  0.00    +0.107 C 
ATOM     28  N   UNL     1       3.248  -1.748   2.107  0.00  0.00    -0.287 N 
ATOM     29  C   UNL     1       2.268  -1.956   1.061  0.00  0.00    +0.091 C 
ATOM     30  C   UNL     1       1.053  -1.027   1.287  0.00  0.00    -0.059 C 
ATOM     31  C   UNL     1       4.211  -0.824   1.921  0.00  0.00    +0.303 C 
ATOM     32  O   UNL     1       5.097  -0.695   2.743  0.00  0.00    -0.253 OA
ATOM     33  N   UNL     1       4.191  -0.043   0.823  0.00  0.00    -0.294 N 
ATOM     34  H   UNL     1       3.446  -0.094   0.204  0.00  0.00    +0.151 HD
ATOM     35  H   UNL     1       0.030  -2.412   2.261  0.00  0.00    -0.081 HD
BRANCH  33  36
ATOM     36  C   UNL     1       5.295   0.884   0.563  0.00  0.00    +0.028 C 
ATOM     37  C   UNL     1       6.602   0.098   0.434  0.00  0.00    +0.031 C 
ATOM     38  C   UNL     1       5.028   1.646  -0.737  0.00  0.00    +0.031 C 
ATOM     39  C   UNL     1       5.410   1.878   1.722  0.00  0.00    +0.031 C 
ENDBRANCH  33  36
ENDBRANCH  23  24
ENDBRANCH   2  23
TORSDOF 8
