REMARK  Name = ZINC26600050
REMARK  3 active torsions:
REMARK  status: ('A' for Active; 'I' for Inactive)
REMARK    1  A    between atoms: C_10  and  C_13
REMARK    2  A    between atoms: C_16  and  O_19
REMARK    3  A    between atoms: N_26  and  C_29
REMARK                            x       y       z     vdW  Elec       q    Type
REMARK                         _______ _______ _______ _____ _____    ______ ____
ROOT
ATOM      1  C   UNL     1      -0.926   0.705   2.250  0.00  0.00    +0.002 A 
ATOM      2  C   UNL     1       0.165   1.470   2.624  0.00  0.00    +0.001 A 
ATOM      3  C   UNL     1       1.428   0.939   2.520  0.00  0.00    +0.016 A 
ATOM      4  C   UNL     1       1.644  -0.361   2.043  0.00  0.00    +0.030 A 
ATOM      5  C   UNL     1       0.553  -1.131   1.669  0.00  0.00    +0.045 A 
ATOM      6  C   UNL     1      -0.731  -0.571   1.781  0.00  0.00    +0.024 A 
ATOM      7  N   UNL     1       0.574  -2.413   1.191  0.00  0.00    -0.316 N 
ATOM      8  C   UNL     1       1.382  -3.299   0.723  0.00  0.00    +0.027 C 
ATOM      9  C   UNL     1       2.869  -3.338   0.755  0.00  0.00    +0.071 C 
ATOM     10  C   UNL     1       3.481  -1.981   0.556  0.00  0.00    +0.087 C 
ATOM     11  S   UNL     1       3.306  -0.896   1.964  0.00  0.00    -0.115 S 
ATOM     12  C   UNL     1       0.777  -4.374   0.095  0.00  0.00    +0.117 C 
ATOM     13  C   UNL     1       1.497  -5.642  -0.121  0.00  0.00    +0.258 C 
ATOM     14  N   UNL     1       0.844  -6.647  -0.740  0.00  0.00    -0.235 N 
ATOM     15  H   UNL     1       1.303  -7.489  -0.889  0.00  0.00    +0.159 HD
ATOM     16  C   UNL     1      -0.424  -6.510  -1.153  0.00  0.00    +0.320 C 
ATOM     17  O   UNL     1      -0.955  -7.455  -1.704  0.00  0.00    -0.251 OA
ATOM     18  N   UNL     1      -1.137  -5.388  -0.989  0.00  0.00    -0.190 N 
ATOM     19  C   UNL     1      -0.615  -4.303  -0.381  0.00  0.00    +0.265 C 
ATOM     20  O   UNL     1      -1.275  -3.291  -0.234  0.00  0.00    -0.269 OA
ATOM     21  O   UNL     1       2.648  -5.778   0.249  0.00  0.00    -0.270 OA
ATOM     22  H   UNL     1      -0.324  -2.778   1.213  0.00  0.00    +0.152 HD
ENDROOT
BRANCH  18  23
ATOM     23  C   UNL     1      -2.458  -5.342  -1.456  0.00  0.00    +0.046 A 
ATOM     24  C   UNL     1      -2.724  -4.917  -2.750  0.00  0.00    +0.025 A 
ATOM     25  C   UNL     1      -4.027  -4.873  -3.208  0.00  0.00    +0.022 A 
ATOM     26  C   UNL     1      -5.066  -5.252  -2.377  0.00  0.00    +0.041 A 
ATOM     27  C   UNL     1      -4.804  -5.675  -1.085  0.00  0.00    +0.022 A 
ATOM     28  C   UNL     1      -3.503  -5.727  -0.625  0.00  0.00    +0.025 A 
ATOM     29 CL   UNL     1      -6.702  -5.195  -2.954  0.00  0.00    -0.084 Cl
ENDBRANCH  18  23
BRANCH  10  30
ATOM     30  C   UNL     1       4.949  -2.155   0.266  0.00  0.00    -0.034 A 
ATOM     31  C   UNL     1       5.767  -2.777   1.190  0.00  0.00    +0.008 A 
ATOM     32  C   UNL     1       7.114  -2.937   0.927  0.00  0.00    +0.046 A 
ATOM     33  C   UNL     1       7.645  -2.472  -0.267  0.00  0.00    +0.117 A 
ATOM     34  C   UNL     1       6.823  -1.847  -1.194  0.00  0.00    +0.046 A 
ATOM     35  C   UNL     1       5.476  -1.695  -0.927  0.00  0.00    +0.008 A 
BRANCH  33  36
ATOM     36  O   UNL     1       8.970  -2.627  -0.529  0.00  0.00    -0.507 OA
ATOM     37  H   UNL     1       9.187  -3.453  -0.983  0.00  0.00    +0.292 HD
ENDBRANCH  33  36
ENDBRANCH  10  30
TORSDOF 3
