REMARK  Name = ZINC49115057
REMARK  6 active torsions:
REMARK  status: ('A' for Active; 'I' for Inactive)
REMARK    1  A    between atoms: C_1  and  C_2
REMARK    2  A    between atoms: C_2  and  C_3
REMARK    3  A    between atoms: C_3  and  C_4
REMARK    4  A    between atoms: C_4  and  C_6
REMARK    5  A    between atoms: C_4  and  N_20
REMARK    6  A    between atoms: N_8  and  C_9
REMARK                            x       y       z     vdW  Elec       q    Type
REMARK                         _______ _______ _______ _____ _____    ______ ____
ROOT
ATOM      1  C   UNL     1       1.550  -2.512  -2.439  0.00  0.00    +0.234 C 
ATOM      2  O   UNL     1       0.991  -2.888  -3.448  0.00  0.00    -0.274 OA
ATOM      3  N   UNL     1       2.895  -2.528  -2.369  0.00  0.00    -0.313 N 
ATOM      4  H   UNL     1       3.342  -2.227  -1.562  0.00  0.00    +0.149 HD
ENDROOT
BRANCH   3   5
ATOM      5  C   UNL     1       3.683  -2.999  -3.510  0.00  0.00    +0.058 C 
ATOM      6  C   UNL     1       3.896  -4.533  -3.428  0.00  0.00    +0.002 C 
ATOM      7  C   UNL     1       5.428  -4.715  -3.265  0.00  0.00    -0.077 C 
ATOM      8  N   UNL     1       5.866  -3.437  -2.682  0.00  0.00    +0.383 N 
ATOM      9  C   UNL     1       5.101  -2.420  -3.460  0.00  0.00    -0.048 C 
ATOM     10  C   UNL     1       5.208  -1.095  -2.721  0.00  0.00    -0.014 C 
ATOM     11  C   UNL     1       6.689  -0.683  -2.727  0.00  0.00    -0.003 C 
ATOM     12  C   UNL     1       7.557  -1.791  -2.132  0.00  0.00    -0.019 C 
ATOM     13  C   UNL     1       7.284  -3.139  -2.828  0.00  0.00    -0.078 C 
ATOM     14  H   UNL     1       5.605  -3.397  -1.708  0.00  0.00    -0.081 HD
ENDBRANCH   3   5
BRANCH   1  15
ATOM     15  C   UNL     1       0.739  -2.027  -1.265  0.00  0.00    +0.160 C 
BRANCH  15  16
ATOM     16  N   UNL     1      -0.631  -2.534  -1.375  0.00  0.00    -0.288 N 
ATOM     17  C   UNL     1      -1.385  -2.212  -2.446  0.00  0.00    +0.298 C 
ATOM     18  O   UNL     1      -0.927  -1.502  -3.320  0.00  0.00    -0.253 OA
ATOM     19  N   UNL     1      -2.645  -2.678  -2.547  0.00  0.00    -0.313 N 
ATOM     20  H   UNL     1      -0.997  -3.100  -0.678  0.00  0.00    +0.151 HD
ATOM     21  H   UNL     1      -3.010  -3.245  -1.849  0.00  0.00    +0.146 HD
ATOM     22  H   UNL     1      -3.187  -2.447  -3.317  0.00  0.00    +0.146 HD
ENDBRANCH  15  16
BRANCH  15  23
ATOM     23  C   UNL     1       0.718  -0.497  -1.257  0.00  0.00    +0.031 C 
BRANCH  23  25
ATOM     24  C   UNL     1      -0.019   1.526   0.010  0.00  0.00    +0.004 C 
ATOM     25  C   UNL     1       0.002  -0.004   0.002  0.00  0.00    -0.001 C 
ENDBRANCH  23  25
ENDBRANCH  15  23
ENDBRANCH   1  15
TORSDOF 5
