REMARK  Name = ZINC04147341
REMARK  8 active torsions:
REMARK  status: ('A' for Active; 'I' for Inactive)
REMARK    1  A    between atoms: C_1  and  C_2
REMARK    2  A    between atoms: C_3  and  C_9
REMARK    3  A    between atoms: C_4  and  O_8
REMARK    4  A    between atoms: C_9  and  C_10
REMARK    5  A    between atoms: C_9  and  C_22
REMARK    6  A    between atoms: C_13  and  C_15
REMARK    7  A    between atoms: C_23  and  C_29
REMARK    8  A    between atoms: C_27  and  O_28
REMARK                            x       y       z     vdW  Elec       q    Type
REMARK                         _______ _______ _______ _____ _____    ______ ____
ROOT
ATOM      1  C   UNL     1      -0.005  -0.327  -2.527  0.00  0.00    +0.129 C 
ENDROOT
BRANCH   1   4
ATOM      2  C   UNL     1      -0.042   1.869  -0.300  0.00  0.00    +0.065 C 
ATOM      3  C   UNL     1      -0.165   0.383  -0.083  0.00  0.00    +0.041 A 
ATOM      4  C   UNL     1      -0.148  -0.568  -1.046  0.00  0.00    +0.051 A 
ATOM      5  C   UNL     1      -0.289  -1.816  -0.421  0.00  0.00    +0.236 A 
ATOM      6  N   UNL     1      -0.386  -1.616   0.871  0.00  0.00    -0.136 NA
ATOM      7  N   UNL     1      -0.305  -0.238   1.107  0.00  0.00    -0.278 N 
ATOM      8  H   UNL     1      -0.344   0.195   1.974  0.00  0.00    +0.189 HD
BRANCH   5   9
ATOM      9  O   UNL     1      -0.319  -3.023  -1.047  0.00  0.00    -0.491 OA
ATOM     10  H   UNL     1       0.550  -3.433  -1.153  0.00  0.00    +0.294 HD
ENDBRANCH   5   9
ENDBRANCH   1   4
BRANCH   1  11
ATOM     11  C   UNL     1      -1.164  -0.961  -3.253  0.00  0.00    +0.051 A 
ATOM     12  C   UNL     1      -1.174  -1.354  -4.547  0.00  0.00    +0.041 A 
ATOM     13  N   UNL     1      -2.392  -1.871  -4.812  0.00  0.00    -0.278 N 
ATOM     14  H   UNL     1      -2.685  -2.232  -5.663  0.00  0.00    +0.189 HD
ATOM     15  N   UNL     1      -3.160  -1.793  -3.643  0.00  0.00    -0.136 NA
ATOM     16  C   UNL     1      -2.422  -1.252  -2.704  0.00  0.00    +0.236 A 
ATOM     17  C   UNL     1      -0.029  -1.237  -5.519  0.00  0.00    +0.065 C 
BRANCH  16  18
ATOM     18  O   UNL     1      -2.810  -1.011  -1.423  0.00  0.00    -0.491 OA
ATOM     19  H   UNL     1      -3.280  -0.174  -1.305  0.00  0.00    +0.294 HD
ENDBRANCH  16  18
ENDBRANCH   1  11
BRANCH   1  20
ATOM     20  C   UNL     1       1.285  -0.937  -3.012  0.00  0.00    +0.118 A 
ATOM     21  C   UNL     1       2.300  -0.268  -3.593  0.00  0.00    +0.046 A 
ATOM     22  C   UNL     1       3.302  -1.214  -3.888  0.00  0.00    +0.050 A 
ATOM     23  C   UNL     1       2.838  -2.420  -3.467  0.00  0.00    +0.135 A 
ATOM     24  O   UNL     1       1.616  -2.236  -2.933  0.00  0.00    -0.459 OA
BRANCH  23  25
ATOM     25  C   UNL     1       3.554  -3.709  -3.572  0.00  0.00    +0.017 A 
ATOM     26  C   UNL     1       4.827  -3.759  -4.141  0.00  0.00    +0.014 A 
ATOM     27  C   UNL     1       5.490  -4.965  -4.237  0.00  0.00    +0.039 A 
ATOM     28  C   UNL     1       4.894  -6.125  -3.770  0.00  0.00    +0.123 A 
ATOM     29  C   UNL     1       3.630  -6.082  -3.204  0.00  0.00    +0.039 A 
ATOM     30  C   UNL     1       2.960  -4.880  -3.098  0.00  0.00    +0.014 A 
ATOM     31  F   UNL     1       5.548  -7.304  -3.867  0.00  0.00    -0.205 F 
ENDBRANCH  23  25
ENDBRANCH   1  20
TORSDOF 6
