REMARK  Name = ZINC04301275
REMARK  6 active torsions:
REMARK  status: ('A' for Active; 'I' for Inactive)
REMARK    1  A    between atoms: C_5  and  C_6
REMARK    2  A    between atoms: C_5  and  N_14
REMARK    3  A    between atoms: C_6  and  S_10
REMARK    4  A    between atoms: S_10  and  C_11
REMARK    5  A    between atoms: C_11  and  C_12
REMARK    6  A    between atoms: C_12  and  O_13
REMARK                            x       y       z     vdW  Elec       q    Type
REMARK                         _______ _______ _______ _____ _____    ______ ____
ROOT
ATOM      1  C   UNL     1      -3.883   1.693   0.291  0.00  0.00    +0.121 C 
ATOM      2  C   UNL     1      -4.625   0.346   0.397  0.00  0.00    +0.121 C 
ATOM      3  N   UNL     1      -3.552  -0.655   0.296  0.00  0.00    -0.329 N 
ATOM      4  C   UNL     1      -2.377  -0.028   0.155  0.00  0.00    +0.116 C 
ATOM      5  C   UNL     1      -1.102  -0.741   0.027  0.00  0.00    +0.177 C 
ATOM      6  N   UNL     1      -2.471   1.307   0.148  0.00  0.00    -0.329 N 
ATOM      7  H   UNL     1      -3.676  -1.616   0.327  0.00  0.00    +0.147 HD
ATOM      8  H   UNL     1      -1.726   1.922   0.060  0.00  0.00    +0.147 HD
ENDROOT
BRANCH   5   9
ATOM      9  C   UNL     1       0.082  -0.036   0.004  0.00  0.00    +0.071 C 
ATOM     10  C   UNL     1       0.395   0.833  -1.132  0.00  0.00    +0.122 C 
ATOM     11 CL   UNL     1       1.918   1.664  -1.195  0.00  0.00    -0.069 Cl
ATOM     12 CL   UNL     1      -0.756   1.032  -2.416  0.00  0.00    -0.069 Cl
BRANCH   9  13
ATOM     13  S   UNL     1       1.219  -0.180   1.343  0.00  0.00    -0.118 S 
BRANCH  13  14
ATOM     14  C   UNL     1       0.233   0.553   2.673  0.00  0.00    +0.102 C 
BRANCH  14  15
ATOM     15  C   UNL     1       1.082   0.651   3.942  0.00  0.00    +0.167 C 
BRANCH  15  16
ATOM     16  O   UNL     1       0.304   1.230   4.992  0.00  0.00    -0.394 OA
ATOM     17  H   UNL     1       0.780   1.323   5.828  0.00  0.00    +0.209 HD
ENDBRANCH  15  16
ENDBRANCH  14  15
ENDBRANCH  13  14
ENDBRANCH   9  13
ENDBRANCH   5   9
BRANCH   5  18
ATOM     18  N   UNL     1      -1.086  -2.217  -0.078  0.00  0.00    +0.061 N 
ATOM     19  O   UNL     1      -2.219  -2.884  -0.163  0.00  0.00    -0.126 OA
ATOM     20  O   UNL     1       0.061  -2.865  -0.088  0.00  0.00    -0.126 OA
ENDBRANCH   5  18
TORSDOF 6
