REMARK  Name = ZINC61760058
REMARK  5 active torsions:
REMARK  status: ('A' for Active; 'I' for Inactive)
REMARK    1  A    between atoms: C_4  and  C_7
REMARK    2  A    between atoms: C_7  and  C_8
REMARK    3  A    between atoms: C_7  and  N_14
REMARK    4  A    between atoms: C_15  and  C_17
REMARK    5  A    between atoms: N_19  and  C_20
REMARK                            x       y       z     vdW  Elec       q    Type
REMARK                         _______ _______ _______ _____ _____    ______ ____
ROOT
ATOM      1  N   UNL     1       3.611  -1.861  -0.933  0.00  0.00    -0.297 N 
ATOM      2  C   UNL     1       4.721  -2.366  -1.509  0.00  0.00    +0.300 C 
ATOM      3  O   UNL     1       5.801  -1.858  -1.294  0.00  0.00    -0.265 OA
ATOM      4  H   UNL     1       2.748  -2.268  -1.106  0.00  0.00    +0.150 HD
ENDROOT
BRANCH   2   5
ATOM      5  C   UNL     1       4.620  -3.551  -2.412  0.00  0.00    +0.303 C 
ATOM      6  O   UNL     1       3.539  -4.060  -2.628  0.00  0.00    -0.265 OA
ATOM      7  N   UNL     1       5.729  -4.056  -2.988  0.00  0.00    -0.278 N 
ATOM      8  H   UNL     1       6.582  -3.611  -2.869  0.00  0.00    +0.155 HD
BRANCH   7   9
ATOM      9  C   UNL     1       5.650  -5.222  -3.755  0.00  0.00    +0.034 A 
ATOM     10  C   UNL     1       6.696  -6.137  -3.740  0.00  0.00    +0.025 A 
ATOM     11  C   UNL     1       6.617  -7.288  -4.497  0.00  0.00    +0.025 A 
ATOM     12  C   UNL     1       5.492  -7.533  -5.274  0.00  0.00    +0.037 A 
ATOM     13  C   UNL     1       4.447  -6.619  -5.289  0.00  0.00    -0.024 A 
ATOM     14  C   UNL     1       4.522  -5.470  -4.528  0.00  0.00    +0.028 A 
ATOM     15  C   UNL     1       3.227  -6.888  -6.133  0.00  0.00    +0.046 C 
ATOM     16  C   UNL     1       3.640  -7.626  -7.407  0.00  0.00    +0.101 C 
ATOM     17  C   UNL     1       4.535  -8.785  -7.061  0.00  0.00    +0.218 C 
ATOM     18  O   UNL     1       4.466  -9.809  -7.708  0.00  0.00    -0.275 OA
ATOM     19  N   UNL     1       5.410  -8.700  -6.042  0.00  0.00    -0.285 N 
ATOM     20  H   UNL     1       5.987  -9.452  -5.839  0.00  0.00    +0.155 HD
ENDBRANCH   7   9
ENDBRANCH   2   5
BRANCH   1  21
ATOM     21  C   UNL     1       3.710  -0.699  -0.048  0.00  0.00    +0.134 C 
BRANCH  21  25
ATOM     22  C   UNL     1      -0.026   1.372   0.003  0.00  0.00    +0.000 A 
ATOM     23  C   UNL     1       1.159   2.084  -0.013  0.00  0.00    +0.000 A 
ATOM     24  C   UNL     1       2.368   1.414  -0.029  0.00  0.00    +0.006 A 
ATOM     25  C   UNL     1       2.392   0.032  -0.029  0.00  0.00    -0.023 A 
ATOM     26  C   UNL     1       1.207  -0.680  -0.012  0.00  0.00    +0.006 A 
ATOM     27  C   UNL     1      -0.002  -0.010   0.003  0.00  0.00    +0.000 A 
ENDBRANCH  21  25
BRANCH  21  28
ATOM     28  C   UNL     1       4.050  -1.158   1.347  0.00  0.00    -0.023 A 
ATOM     29  C   UNL     1       3.468  -2.302   1.859  0.00  0.00    +0.006 A 
ATOM     30  C   UNL     1       3.780  -2.723   3.139  0.00  0.00    +0.000 A 
ATOM     31  C   UNL     1       4.674  -1.999   3.905  0.00  0.00    +0.000 A 
ATOM     32  C   UNL     1       5.257  -0.855   3.393  0.00  0.00    +0.000 A 
ATOM     33  C   UNL     1       4.948  -0.437   2.112  0.00  0.00    +0.006 A 
ENDBRANCH  21  28
ENDBRANCH   1  21
TORSDOF 5
