REMARK  Name = ZINC51104953
REMARK  8 active torsions:
REMARK  status: ('A' for Active; 'I' for Inactive)
REMARK    1  A    between atoms: C_1  and  C_2
REMARK    2  A    between atoms: C_2  and  C_3
REMARK    3  A    between atoms: C_3  and  C_4
REMARK    4  A    between atoms: C_4  and  N_5
REMARK    5  A    between atoms: C_9  and  C_11
REMARK    6  A    between atoms: C_11  and  C_13
REMARK    7  A    between atoms: C_11  and  N_14
REMARK    8  A    between atoms: C_18  and  C_21
REMARK                            x       y       z     vdW  Elec       q    Type
REMARK                         _______ _______ _______ _____ _____    ______ ____
ROOT
ATOM      1  C   UNL     1      -5.922  -6.215   0.025  0.00  0.00    +0.141 C 
ATOM      2  C   UNL     1      -6.661  -5.825   1.307  0.00  0.00    +0.034 C 
ENDROOT
BRANCH   1   7
ATOM      3  N   UNL     1      -2.747  -2.615  -0.231  0.00  0.00    -0.299 N 
ATOM      4  C   UNL     1      -2.994  -3.927  -0.047  0.00  0.00    +0.306 C 
ATOM      5  O   UNL     1      -2.076  -4.694   0.166  0.00  0.00    -0.252 OA
ATOM      6  N   UNL     1      -4.260  -4.388  -0.100  0.00  0.00    -0.239 N 
ATOM      7  C   UNL     1      -4.507  -5.700   0.084  0.00  0.00    +0.237 C 
ATOM      8  O   UNL     1      -3.591  -6.465   0.297  0.00  0.00    -0.274 OA
ATOM      9  H   UNL     1      -3.479  -2.002  -0.402  0.00  0.00    +0.150 HD
ATOM     10  H   UNL     1      -4.992  -3.775  -0.271  0.00  0.00    +0.159 HD
BRANCH   3  11
ATOM     11  C   UNL     1      -1.371  -2.114  -0.174  0.00  0.00    +0.106 C 
BRANCH  11  12
ATOM     12  C   UNL     1      -1.369  -0.603  -0.414  0.00  0.00    +0.018 C 
BRANCH  12  14
ATOM     13  C   UNL     1       0.071   1.432  -0.595  0.00  0.00    +0.004 C 
ATOM     14  C   UNL     1       0.068  -0.079  -0.354  0.00  0.00    -0.002 C 
ENDBRANCH  12  14
ENDBRANCH  11  12
ENDBRANCH   3  11
ENDBRANCH   1   7
BRANCH   1  15
ATOM     15  N   UNL     1      -5.905  -7.678  -0.103  0.00  0.00    -0.287 NA
ATOM     16  C   UNL     1      -7.215  -8.184  -0.536  0.00  0.00    +0.113 C 
ATOM     17  C   UNL     1      -7.137  -9.703  -0.715  0.00  0.00    +0.176 C 
ATOM     18  O   UNL     1      -6.703 -10.300   0.510  0.00  0.00    -0.365 OA
ATOM     19  C   UNL     1      -5.430  -9.831   0.961  0.00  0.00    +0.217 C 
ATOM     20  C   UNL     1      -5.491  -8.313   1.156  0.00  0.00    +0.126 C 
BRANCH  19  21
ATOM     21  C   UNL     1      -5.082 -10.494   2.268  0.00  0.00    +0.241 C 
ATOM     22  O   UNL     1      -5.887 -11.220   2.812  0.00  0.00    -0.273 OA
ATOM     23  N   UNL     1      -3.878 -10.280   2.834  0.00  0.00    -0.327 N 
ATOM     24  H   UNL     1      -3.235  -9.699   2.399  0.00  0.00    +0.145 HD
ATOM     25  H   UNL     1      -3.655 -10.707   3.676  0.00  0.00    +0.145 HD
ENDBRANCH  19  21
ENDBRANCH   1  15
TORSDOF 6
