REMARK  Name = ZINC35642973
REMARK  11 active torsions:
REMARK  status: ('A' for Active; 'I' for Inactive)
REMARK    1  A    between atoms: C_1  and  C_2
REMARK    2  A    between atoms: C_2  and  C_3
REMARK    3  A    between atoms: C_3  and  N_4
REMARK    4  A    between atoms: N_11  and  C_14
REMARK    5  A    between atoms: C_14  and  C_15
REMARK    6  A    between atoms: C_16  and  C_31
REMARK    7  A    between atoms: C_17  and  C_24
REMARK    8  A    between atoms: N_22  and  C_23
REMARK    9  A    between atoms: C_31  and  O_33
REMARK   10  A    between atoms: O_33  and  C_34
REMARK   11  A    between atoms: C_34  and  C_35
REMARK                            x       y       z     vdW  Elec       q    Type
REMARK                         _______ _______ _______ _____ _____    ______ ____
ROOT
ATOM      1  C   UNL     1       0.018  -6.459  -6.525  0.00  0.00    +0.010 C 
ATOM      2  C   UNL     1       0.170  -7.795  -6.395  0.00  0.00    +0.076 C 
ATOM      3  C   UNL     1       0.820  -8.545  -7.540  0.00  0.00    +0.143 C 
ATOM      4  N   UNL     1       1.236  -7.751  -8.708  0.00  0.00    -0.288 N 
ATOM      5  C   UNL     1       1.017  -6.421  -8.690  0.00  0.00    +0.307 C 
ATOM      6  O   UNL     1       1.357  -5.757  -9.650  0.00  0.00    -0.252 OA
ATOM      7  N   UNL     1       0.432  -5.809  -7.653  0.00  0.00    -0.264 N 
ATOM      8  C   UNL     1       0.231  -4.360  -7.729  0.00  0.00    +0.139 C 
ATOM      9  H   UNL     1       1.658  -8.175  -9.471  0.00  0.00    +0.151 HD
ENDROOT
BRANCH   3  10
ATOM     10  C   UNL     1      -0.148  -9.597  -8.015  0.00  0.00    -0.022 A 
ATOM     11  C   UNL     1      -1.186  -9.250  -8.860  0.00  0.00    +0.007 A 
ATOM     12  C   UNL     1      -2.075 -10.214  -9.296  0.00  0.00    +0.020 A 
ATOM     13  C   UNL     1      -1.926 -11.527  -8.887  0.00  0.00    +0.041 A 
ATOM     14  C   UNL     1      -0.887 -11.874  -8.042  0.00  0.00    +0.020 A 
ATOM     15  C   UNL     1       0.004 -10.910  -7.611  0.00  0.00    +0.007 A 
ATOM     16 CL   UNL     1      -3.042 -12.739  -9.435  0.00  0.00    -0.084 Cl
ENDBRANCH   3  10
BRANCH   2  17
ATOM     17  C   UNL     1      -0.263  -8.470  -5.230  0.00  0.00    +0.339 C 
ATOM     18  O   UNL     1      -0.826  -7.854  -4.344  0.00  0.00    -0.245 OA
BRANCH  17  19
ATOM     19  O   UNL     1      -0.052  -9.796  -5.101  0.00  0.00    -0.462 OA
BRANCH  19  20
ATOM     20  C   UNL     1      -0.515 -10.413  -3.898  0.00  0.00    +0.229 C 
ATOM     21  C   UNL     1      -0.189 -11.908  -3.933  0.00  0.00    +0.048 C 
ENDBRANCH  19  20
ENDBRANCH  17  19
ENDBRANCH   2  17
BRANCH   1  22
ATOM     22  C   UNL     1      -0.623  -5.674  -5.410  0.00  0.00    -0.026 C 
BRANCH  22  30
ATOM     23  N   UNL     1       2.907  -1.804  -4.101  0.00  0.00    -0.299 N 
ATOM     24  C   UNL     1       2.362  -2.275  -2.961  0.00  0.00    +0.302 C 
ATOM     25  O   UNL     1       2.083  -1.508  -2.059  0.00  0.00    -0.253 OA
ATOM     26  N   UNL     1       2.127  -3.594  -2.821  0.00  0.00    -0.287 N 
ATOM     27  C   UNL     1       1.437  -4.070  -1.605  0.00  0.00    +0.107 C 
ATOM     28  C   UNL     1       0.402  -5.157  -1.945  0.00  0.00    +0.000 C 
ATOM     29  C   UNL     1      -0.312  -4.789  -3.227  0.00  0.00    -0.077 C 
ATOM     30  N   UNL     1       0.367  -5.422  -4.355  0.00  0.00    +0.384 N 
ATOM     31  C   UNL     1       1.428  -4.671  -4.909  0.00  0.00    -0.059 C 
ATOM     32  C   UNL     1       2.554  -4.495  -3.872  0.00  0.00    +0.091 C 
ATOM     33  H   UNL     1       3.198  -2.421  -4.790  0.00  0.00    +0.150 HD
ATOM     34  H   UNL     1       0.733  -6.311  -4.049  0.00  0.00    -0.081 HD
BRANCH  23  35
ATOM     35  C   UNL     1       3.061  -0.361  -4.297  0.00  0.00    +0.105 C 
BRANCH  35  37
ATOM     36  C   UNL     1       3.861   1.410  -5.868  0.00  0.00    +0.005 C 
ATOM     37  C   UNL     1       3.701  -0.098  -5.662  0.00  0.00    +0.015 C 
ENDBRANCH  35  37
ENDBRANCH  23  35
ENDBRANCH  22  30
ENDBRANCH   1  22
TORSDOF 8
