REMARK  Name = ZINC31163581
REMARK  12 active torsions:
REMARK  status: ('A' for Active; 'I' for Inactive)
REMARK    1  A    between atoms: C_1  and  C_2
REMARK    2  A    between atoms: C_2  and  C_4
REMARK    3  A    between atoms: C_6  and  O_35
REMARK    4  A    between atoms: C_9  and  C_34
REMARK    5  A    between atoms: C_10  and  C_33
REMARK    6  A    between atoms: C_14  and  C_32
REMARK    7  A    between atoms: C_19  and  C_26
REMARK    8  A    between atoms: C_20  and  C_22
REMARK    9  A    between atoms: C_22  and  C_23
REMARK   10  A    between atoms: C_26  and  C_27
REMARK   11  A    between atoms: C_26  and  C_28
REMARK   12  A    between atoms: C_26  and  C_29
REMARK                            x       y       z     vdW  Elec       q    Type
REMARK                         _______ _______ _______ _____ _____    ______ ____
ROOT
ATOM      1  C   UNL     1       0.366   7.029  -0.510  0.00  0.00    +0.090 C 
ATOM      2  C   UNL     1      -0.753   6.875   0.548  0.00  0.00    +0.126 C 
ATOM      3  C   UNL     1      -0.686   5.420   1.051  0.00  0.00    +0.039 C 
ATOM      4  C   UNL     1       0.440   4.730   0.230  0.00  0.00    -0.019 C 
ATOM      5  C   UNL     1       1.354   5.909  -0.141  0.00  0.00    -0.008 C 
ATOM      6  C   UNL     1       2.339   5.598  -1.241  0.00  0.00    +0.083 C 
ATOM      7  C   UNL     1       1.653   4.890  -2.385  0.00  0.00    +0.141 C 
ATOM      8  O   UNL     1       1.785   5.266  -3.525  0.00  0.00    -0.297 OA
ATOM      9  C   UNL     1       0.793   3.689  -2.045  0.00  0.00    +0.037 C 
ATOM     10  C   UNL     1      -0.229   4.125  -1.007  0.00  0.00    +0.013 C 
ATOM     11  C   UNL     1      -1.052   2.908  -0.575  0.00  0.00    +0.032 C 
ATOM     12  C   UNL     1      -1.543   2.159  -1.778  0.00  0.00    -0.026 C 
ATOM     13  C   UNL     1      -1.060   2.308  -2.970  0.00  0.00    -0.053 C 
ATOM     14  C   UNL     1       0.049   3.257  -3.314  0.00  0.00    +0.040 C 
ATOM     15  C   UNL     1       1.655   2.544  -1.510  0.00  0.00    +0.020 C 
ATOM     16  C   UNL     1       2.127   6.343   1.105  0.00  0.00    +0.013 C 
ATOM     17  C   UNL     1       1.181   3.671   1.049  0.00  0.00    +0.012 C 
ENDROOT
BRANCH   1  19
ATOM     18  C   UNL     1       0.743   9.446  -1.421  0.00  0.00    +0.086 C 
ATOM     19  C   UNL     1       1.025   8.379  -0.394  0.00  0.00    +0.136 C 
ATOM     20  O   UNL     1       1.779   8.606   0.521  0.00  0.00    -0.297 OA
ENDBRANCH   1  19
BRANCH  13  21
ATOM     21  C   UNL     1      -1.647   1.475  -4.080  0.00  0.00    +0.088 C 
ATOM     22  C   UNL     1      -2.773   0.602  -3.521  0.00  0.00    +0.027 C 
ATOM     23  C   UNL     1      -2.207   2.395  -5.167  0.00  0.00    +0.027 C 
BRANCH  21  24
ATOM     24  C   UNL     1      -0.575   0.595  -4.669  0.00  0.00    +0.365 C 
ATOM     25  O   UNL     1       0.551   0.640  -4.233  0.00  0.00    -0.245 OA
ATOM     26  O   UNL     1      -0.871  -0.238  -5.679  0.00  0.00    -0.245 OA
ENDBRANCH  21  24
ENDBRANCH  13  21
BRANCH   2  27
ATOM     27  O   UNL     1      -0.530   7.779   1.632  0.00  0.00    -0.391 OA
ATOM     28  H   UNL     1      -1.232   7.806   2.479  0.00  0.00    +0.210 HD
ENDBRANCH   2  27
BRANCH  14  29
ATOM     29  C   UNL     1      -0.540   4.491  -4.000  0.00  0.00    +0.134 C 
BRANCH  29  30
ATOM     30  C   UNL     1      -1.619   5.083  -3.130  0.00  0.00    +0.357 C 
ATOM     31  O   UNL     1      -2.384   4.359  -2.539  0.00  0.00    -0.246 OA
ATOM     32  O   UNL     1      -1.728   6.416  -3.011  0.00  0.00    -0.246 OA
ENDBRANCH  29  30
ENDBRANCH  14  29
TORSDOF 6
