REMARK  Name = ZINC05408939
REMARK  10 active torsions:
REMARK  status: ('A' for Active; 'I' for Inactive)
REMARK    1  A    between atoms: C_1  and  C_2
REMARK    2  A    between atoms: C_4  and  C_33
REMARK    3  A    between atoms: C_5  and  C_18
REMARK    4  A    between atoms: C_6  and  C_17
REMARK    5  A    between atoms: C_7  and  C_8
REMARK    6  A    between atoms: C_8  and  O_9
REMARK    7  A    between atoms: O_9  and  C_10
REMARK    8  A    between atoms: C_21  and  C_32
REMARK    9  A    between atoms: C_27  and  N_31
REMARK   10  A    between atoms: C_28  and  C_29
REMARK                            x       y       z     vdW  Elec       q    Type
REMARK                         _______ _______ _______ _____ _____    ______ ____
ROOT
ATOM      1  C   UNL     1      -0.139   7.926   2.607  0.00  0.00    +0.044 C 
ATOM      2  C   UNL     1      -0.596   8.473   1.279  0.00  0.00    -0.044 A 
ATOM      3  C   UNL     1      -0.719   9.838   1.099  0.00  0.00    +0.007 A 
ATOM      4  C   UNL     1      -1.142  10.338  -0.118  0.00  0.00    -0.046 A 
ATOM      5  C   UNL     1      -1.439   9.474  -1.156  0.00  0.00    -0.028 A 
ATOM      6  C   UNL     1      -1.312   8.110  -0.976  0.00  0.00    -0.039 A 
ATOM      7  C   UNL     1      -0.887   7.609   0.240  0.00  0.00    -0.004 A 
ATOM      8  C   UNL     1      -1.635   7.168  -2.107  0.00  0.00    +0.044 C 
ATOM      9  C   UNL     1      -1.281  11.826  -0.313  0.00  0.00    +0.044 C 
ENDROOT
BRANCH   5  10
ATOM     10  C   UNL     1      -1.901  10.020  -2.482  0.00  0.00    +0.102 C 
ATOM     11  C   UNL     1      -0.764  10.742  -3.159  0.00  0.00    +0.049 A 
ATOM     12  C   UNL     1       0.340  10.248  -3.739  0.00  0.00    +0.041 A 
ATOM     13  N   UNL     1       1.062  11.293  -4.205  0.00  0.00    -0.278 N 
ATOM     14  H   UNL     1       1.937  11.234  -4.685  0.00  0.00    +0.189 HD
ATOM     15  N   UNL     1       0.369  12.474  -3.897  0.00  0.00    -0.135 NA
ATOM     16  C   UNL     1      -0.726  12.150  -3.271  0.00  0.00    +0.245 A 
ATOM     17  O   UNL     1      -1.716  12.940  -2.777  0.00  0.00    -0.421 OA
ATOM     18  C   UNL     1      -2.867  12.339  -2.415  0.00  0.00    +0.201 C 
ATOM     19  C   UNL     1      -3.021  11.006  -2.264  0.00  0.00    +0.098 C 
ATOM     20  C   UNL     1       0.710   8.791  -3.850  0.00  0.00    +0.065 C 
BRANCH  18  21
ATOM     21  N   UNL     1      -3.960  13.137  -2.184  0.00  0.00    -0.328 N 
ATOM     22  H   UNL     1      -3.886  14.100  -2.283  0.00  0.00    +0.145 HD
ATOM     23  H   UNL     1      -4.804  12.739  -1.922  0.00  0.00    +0.145 HD
ENDBRANCH  18  21
BRANCH  19  24
ATOM     24  C   UNL     1      -4.306  10.505  -1.880  0.00  0.00    +0.101 C 
ATOM     25  N   UNL     1      -5.326  10.107  -1.575  0.00  0.00    -0.191 NA
ENDBRANCH  19  24
ENDBRANCH   5  10
BRANCH   7  26
ATOM     26  C   UNL     1      -0.748   6.121   0.436  0.00  0.00    +0.265 C 
BRANCH  26  27
ATOM     27  O   UNL     1       0.574   5.715   0.078  0.00  0.00    -0.487 OA
BRANCH  27  28
ATOM     28  C   UNL     1       0.867   4.393   0.197  0.00  0.00    +0.121 A 
ATOM     29  C   UNL     1       2.132   3.930  -0.133  0.00  0.00    +0.048 A 
ATOM     30  C   UNL     1       2.429   2.586  -0.011  0.00  0.00    +0.042 A 
ATOM     31  C   UNL     1       1.464   1.702   0.441  0.00  0.00    +0.124 A 
ATOM     32  C   UNL     1       0.199   2.162   0.765  0.00  0.00    +0.042 A 
ATOM     33  C   UNL     1      -0.098   3.506   0.650  0.00  0.00    +0.048 A 
ATOM     34  F   UNL     1       1.756   0.388   0.560  0.00  0.00    -0.205 F 
ENDBRANCH  27  28
ENDBRANCH  26  27
ENDBRANCH   7  26
TORSDOF 6
