REMARK  Name = ZINC08789042
REMARK  6 active torsions:
REMARK  status: ('A' for Active; 'I' for Inactive)
REMARK    1  A    between atoms: C_1  and  O_2
REMARK    2  A    between atoms: O_2  and  C_3
REMARK    3  A    between atoms: C_8  and  C_9
REMARK    4  A    between atoms: C_9  and  N_10
REMARK    5  A    between atoms: C_15  and  C_31
REMARK    6  A    between atoms: C_31  and  C_32
REMARK                            x       y       z     vdW  Elec       q    Type
REMARK                         _______ _______ _______ _____ _____    ______ ____
ROOT
ATOM      1  N   UNL     1       1.629  -1.101  -1.174  0.00  0.00    -0.237 N 
ATOM      2  C   UNL     1       2.941  -1.342  -1.062  0.00  0.00    +0.224 C 
ATOM      3  O   UNL     1       3.470  -2.421  -1.219  0.00  0.00    -0.275 OA
ATOM      4  C   UNL     1       3.659  -0.060  -0.707  0.00  0.00    +0.073 C 
ATOM      5  C   UNL     1       4.208  -0.164   0.731  0.00  0.00    -0.049 C 
ATOM      6  C   UNL     1       2.473   1.396   0.855  0.00  0.00    +0.050 C 
ATOM      7  C   UNL     1       2.510   0.983  -0.622  0.00  0.00    +0.088 C 
ATOM      8  C   UNL     1       1.277   0.170  -0.951  0.00  0.00    +0.225 C 
ATOM      9  O   UNL     1       0.146   0.604  -1.004  0.00  0.00    -0.275 OA
ATOM     10  C   UNL     1       1.069   1.663   1.317  0.00  0.00    -0.028 A 
ATOM     11  C   UNL     1      -0.074   0.897   1.372  0.00  0.00    +0.004 A 
ATOM     12  C   UNL     1      -1.251   1.442   1.853  0.00  0.00    +0.000 A 
ATOM     13  C   UNL     1      -1.274   2.754   2.290  0.00  0.00    +0.002 A 
ATOM     14  C   UNL     1      -0.131   3.525   2.239  0.00  0.00    +0.023 A 
ATOM     15  C   UNL     1       1.057   2.986   1.751  0.00  0.00    +0.036 A 
ATOM     16  N   UNL     1       2.324   3.555   1.602  0.00  0.00    -0.286 N 
ATOM     17  C   UNL     1       3.213   2.685   1.083  0.00  0.00    +0.211 C 
ATOM     18  O   UNL     1       4.383   2.901   0.846  0.00  0.00    -0.277 OA
ATOM     19  H   UNL     1       2.539   4.469   1.844  0.00  0.00    +0.155 HD
ATOM     20  N   UNL     1       3.098   0.296   1.569  0.00  0.00    +0.394 N 
ATOM     21  H   UNL     1       3.449   0.617   2.478  0.00  0.00    -0.083 HD
ATOM     22  H   UNL     1       2.423  -0.464   1.711  0.00  0.00    -0.083 HD
ENDROOT
BRANCH   1  23
ATOM     23  C   UNL     1       0.658  -2.144  -1.514  0.00  0.00    +0.155 C 
BRANCH  23  29
ATOM     24  C   UNL     1       1.439  -2.879  -3.780  0.00  0.00    +0.125 A 
ATOM     25  C   UNL     1       1.285  -2.944  -5.158  0.00  0.00    +0.046 A 
ATOM     26  C   UNL     1       0.201  -2.336  -5.760  0.00  0.00    +0.004 A 
ATOM     27  C   UNL     1      -0.734  -1.667  -4.991  0.00  0.00    +0.001 A 
ATOM     28  C   UNL     1      -0.585  -1.605  -3.618  0.00  0.00    +0.009 A 
ATOM     29  C   UNL     1       0.497  -2.212  -3.010  0.00  0.00    +0.012 A 
BRANCH  24  31
ATOM     30  C   UNL     1       3.437  -4.141  -4.041  0.00  0.00    +0.277 C 
ATOM     31  O   UNL     1       2.507  -3.472  -3.186  0.00  0.00    -0.495 OA
ENDBRANCH  24  31
ENDBRANCH  23  29
ENDBRANCH   1  23
BRANCH   5  32
ATOM     32  C   UNL     1       5.418   0.757   0.906  0.00  0.00    +0.080 C 
BRANCH  32  33
ATOM     33  C   UNL     1       6.681  -0.010   0.611  0.00  0.00    +0.209 C 
ATOM     34  O   UNL     1       6.620  -1.179   0.292  0.00  0.00    -0.276 OA
ATOM     35  N   UNL     1       7.878   0.602   0.702  0.00  0.00    -0.329 N 
ATOM     36  H   UNL     1       7.927   1.537   0.957  0.00  0.00    +0.145 HD
ATOM     37  H   UNL     1       8.691   0.108   0.512  0.00  0.00    +0.145 HD
ENDBRANCH  32  33
ENDBRANCH   5  32
TORSDOF 5
