REMARK  Name = ZINC37037182
REMARK  4 active torsions:
REMARK  status: ('A' for Active; 'I' for Inactive)
REMARK    1  A    between atoms: C_3  and  S_9
REMARK    2  A    between atoms: C_4  and  N_8
REMARK    3  A    between atoms: S_9  and  C_10
REMARK    4  A    between atoms: C_10  and  C_11
REMARK                            x       y       z     vdW  Elec       q    Type
REMARK                         _______ _______ _______ _____ _____    ______ ____
ROOT
ATOM      1  S   UNL     1       3.894   2.322  -0.023  0.00  0.00    -0.117 S 
ENDROOT
BRANCH   1   4
ATOM      2  C   UNL     1      -0.017   1.379   0.010  0.00  0.00    +0.021 A 
ATOM      3  C   UNL     1       1.169   2.091   0.002  0.00  0.00    +0.018 A 
ATOM      4  C   UNL     1       2.382   1.418  -0.013  0.00  0.00    +0.029 A 
ATOM      5  C   UNL     1       2.401   0.022  -0.021  0.00  0.00    +0.040 A 
ATOM      6  C   UNL     1       1.208  -0.683  -0.013  0.00  0.00    +0.043 A 
ATOM      7  C   UNL     1       0.002  -0.004   0.002  0.00  0.00    +0.043 A 
ATOM      8 CL   UNL     1      -1.491  -0.890   0.012  0.00  0.00    -0.083 Cl
BRANCH   5   9
ATOM      9  N   UNL     1       3.622  -0.663  -0.037  0.00  0.00    -0.357 N 
ATOM     10  H   UNL     1       4.456  -0.168  -0.042  0.00  0.00    +0.142 HD
ATOM     11  H   UNL     1       3.634  -1.633  -0.042  0.00  0.00    +0.142 HD
ENDBRANCH   5   9
ENDBRANCH   1   4
BRANCH   1  12
ATOM     12  C   UNL     1       3.367   4.058  -0.009  0.00  0.00    +0.131 C 
BRANCH  12  13
ATOM     13  C   UNL     1       4.581   4.951  -0.017  0.00  0.00    +0.070 A 
ATOM     14  C   UNL     1       5.230   5.408   1.077  0.00  0.00    +0.116 A 
ATOM     15  N   UNL     1       6.269   6.181   0.636  0.00  0.00    -0.305 N 
ATOM     16  C   UNL     1       7.240   6.883   1.291  0.00  0.00    +0.112 A 
ATOM     17  C   UNL     1       8.169   7.579   0.601  0.00  0.00    +0.058 A 
ATOM     18  C   UNL     1       8.147   7.589  -0.805  0.00  0.00    +0.025 A 
ATOM     19  C   UNL     1       7.186   6.893  -1.468  0.00  0.00    +0.048 A 
ATOM     20  C   UNL     1       6.223   6.172  -0.734  0.00  0.00    +0.138 A 
ATOM     21  N   UNL     1       5.198   5.418  -1.105  0.00  0.00    -0.232 NA
ATOM     22 CL   UNL     1       9.394   8.466   1.452  0.00  0.00    -0.082 Cl
ENDBRANCH  12  13
ENDBRANCH   1  12
TORSDOF 4
