REMARK  Name = ZINC43410998
REMARK  4 active torsions:
REMARK  status: ('A' for Active; 'I' for Inactive)
REMARK    1  A    between atoms: C_5  and  O_7
REMARK    2  A    between atoms: O_7  and  C_8
REMARK    3  A    between atoms: C_9  and  C_18
REMARK    4  A    between atoms: C_18  and  N_20
REMARK                            x       y       z     vdW  Elec       q    Type
REMARK                         _______ _______ _______ _____ _____    ______ ____
ROOT
ATOM      1  C   UNL     1       0.053  -2.696   0.069  0.00  0.00    +0.230 A 
ATOM      2  C   UNL     1       0.038  -4.094   0.197  0.00  0.00    +0.065 A 
ATOM      3  C   UNL     1      -1.196  -4.737   0.325  0.00  0.00    +0.021 A 
ATOM      4  C   UNL     1      -2.355  -3.971   0.325  0.00  0.00    -0.025 A 
ATOM      5  C   UNL     1      -2.262  -2.602   0.202  0.00  0.00    +0.048 A 
ATOM      6  N   UNL     1      -1.077  -2.016   0.082  0.00  0.00    -0.217 NA
ATOM      7  C   UNL     1      -3.477  -1.709   0.213  0.00  0.00    +0.056 C 
ATOM      8  C   UNL     1      -4.740  -2.516  -0.076  0.00  0.00    +0.006 C 
ATOM      9  C   UNL     1      -4.775  -3.720   0.872  0.00  0.00    +0.005 C 
ATOM     10  C   UNL     1      -3.671  -4.691   0.457  0.00  0.00    +0.037 C 
ENDROOT
BRANCH   2  11
ATOM     11  C   UNL     1       1.293  -4.865   0.194  0.00  0.00    +0.082 C 
ATOM     12  S   UNL     1       2.799  -4.050   0.189  0.00  0.00    -0.035 S 
BRANCH  11  13
ATOM     13  N   UNL     1       1.257  -6.212   0.197  0.00  0.00    -0.352 N 
ATOM     14  H   UNL     1       0.407  -6.674   0.274  0.00  0.00    +0.143 HD
ATOM     15  H   UNL     1       2.080  -6.720   0.121  0.00  0.00    +0.143 HD
ENDBRANCH  11  13
ENDBRANCH   2  11
BRANCH   1  16
ATOM     16  O   UNL     1       1.232  -2.043  -0.061  0.00  0.00    -0.436 OA
BRANCH  16  21
ATOM     17  C   UNL     1       1.246   1.380  -1.296  0.00  0.00    +0.004 A 
ATOM     18  C   UNL     1       1.168   2.083  -0.107  0.00  0.00    +0.002 A 
ATOM     19  C   UNL     1       1.112   1.406   1.097  0.00  0.00    +0.024 A 
ATOM     20  C   UNL     1       1.133   0.024   1.115  0.00  0.00    +0.083 A 
ATOM     21  C   UNL     1       1.211  -0.684  -0.076  0.00  0.00    +0.149 A 
ATOM     22  C   UNL     1       1.267  -0.001  -1.283  0.00  0.00    +0.048 A 
ATOM     23 CL   UNL     1       1.064  -0.826   2.628  0.00  0.00    -0.080 Cl
ENDBRANCH  16  21
ENDBRANCH   1  16
TORSDOF 4
