REMARK  Name = ZINC62846930
REMARK  3 active torsions:
REMARK  status: ('A' for Active; 'I' for Inactive)
REMARK    1  A    between atoms: C_1  and  C_2
REMARK    2  A    between atoms: C_2  and  C_3
REMARK    3  A    between atoms: C_3  and  C_18
REMARK                            x       y       z     vdW  Elec       q    Type
REMARK                         _______ _______ _______ _____ _____    ______ ____
ROOT
ATOM      1  C   UNL     1      -0.946  -0.105   0.402  0.00  0.00    +0.075 C 
ATOM      2  C   UNL     1      -1.307   0.347   1.819  0.00  0.00    +0.037 C 
ATOM      3  C   UNL     1      -0.664  -0.604   2.833  0.00  0.00    +0.110 C 
ATOM      4  N   UNL     1      -1.072  -1.979   2.517  0.00  0.00    -0.285 N 
ATOM      5  C   UNL     1      -0.854  -2.485   1.155  0.00  0.00    +0.110 C 
ATOM      6  C   UNL     1      -1.494  -1.513   0.159  0.00  0.00    +0.037 C 
ATOM      7  C   UNL     1      -1.636  -2.762   3.458  0.00  0.00    +0.305 C 
ATOM      8  O   UNL     1      -2.190  -2.258   4.416  0.00  0.00    -0.252 OA
ATOM      9  N   UNL     1      -1.585  -4.104   3.337  0.00  0.00    -0.287 N 
ATOM     10  C   UNL     1      -2.137  -4.937   4.424  0.00  0.00    +0.107 C 
ATOM     11  C   UNL     1      -2.926  -6.132   3.858  0.00  0.00    -0.000 C 
ATOM     12  C   UNL     1      -3.724  -5.684   2.653  0.00  0.00    -0.081 C 
ATOM     13  N   UNL     1      -2.946  -5.932   1.441  0.00  0.00    +0.380 N 
ATOM     14  C   UNL     1      -2.078  -4.883   1.066  0.00  0.00    -0.063 C 
ATOM     15  C   UNL     1      -0.996  -4.675   2.144  0.00  0.00    +0.090 C 
ATOM     16  H   UNL     1      -2.396  -6.766   1.581  0.00  0.00    -0.086 HD
ATOM     17  H   UNL     1      -3.587  -6.101   0.681  0.00  0.00    -0.086 HD
ENDROOT
BRANCH   1  18
ATOM     18  C   UNL     1      -1.549   0.848  -0.598  0.00  0.00    +0.362 C 
ATOM     19  O   UNL     1      -0.829   1.462  -1.366  0.00  0.00    -0.246 OA
ATOM     20  O   UNL     1      -2.757   1.006  -0.638  0.00  0.00    -0.246 OA
ENDBRANCH   1  18
BRANCH   1  22
ATOM     21  C   UNL     1       1.124   1.292   0.485  0.00  0.00    +0.005 C 
ATOM     22  C   UNL     1       0.575  -0.116   0.242  0.00  0.00    +0.015 C 
ENDBRANCH   1  22
TORSDOF 2
