REMARK  Name = ZINC04700811
REMARK  5 active torsions:
REMARK  status: ('A' for Active; 'I' for Inactive)
REMARK    1  A    between atoms: C_3  and  C_18
REMARK    2  A    between atoms: C_5  and  C_7
REMARK    3  A    between atoms: C_12  and  C_15
REMARK    4  A    between atoms: C_19  and  C_20
REMARK    5  A    between atoms: C_20  and  O_26
REMARK                            x       y       z     vdW  Elec       q    Type
REMARK                         _______ _______ _______ _____ _____    ______ ____
ROOT
ATOM      1  C   UNL     1       1.146   1.861   0.290  0.00  0.00    +0.002 A 
ATOM      2  C   UNL     1       1.141   3.199  -0.051  0.00  0.00    +0.017 A 
ATOM      3  C   UNL     1      -0.059   3.837  -0.371  0.00  0.00    +0.026 A 
ATOM      4  C   UNL     1      -1.253   3.121  -0.344  0.00  0.00    +0.030 A 
ATOM      5  C   UNL     1      -1.241   1.770  -0.005  0.00  0.00    +0.038 A 
ATOM      6  C   UNL     1      -0.034   1.145   0.318  0.00  0.00    +0.013 A 
ENDROOT
BRANCH   5   7
ATOM      7  C   UNL     1      -2.503   1.000   0.019  0.00  0.00    +0.247 C 
ATOM      8  O   UNL     1      -2.580  -0.060  -0.572  0.00  0.00    -0.270 OA
ATOM      9  N   UNL     1      -3.568   1.472   0.696  0.00  0.00    -0.297 N 
ATOM     10  C   UNL     1      -3.515   2.786   1.351  0.00  0.00    +0.109 C 
ATOM     11  C   UNL     1      -3.908   2.627   2.819  0.00  0.00    +0.032 C 
ATOM     12  C   UNL     1      -5.269   1.933   2.908  0.00  0.00    +0.078 C 
ATOM     13  C   UNL     1      -5.178   0.542   2.276  0.00  0.00    +0.032 C 
ATOM     14  C   UNL     1      -4.802   0.681   0.798  0.00  0.00    +0.109 C 
BRANCH  12  15
ATOM     15  C   UNL     1      -5.672   1.802   4.354  0.00  0.00    +0.214 C 
ATOM     16  O   UNL     1      -5.867   0.705   4.833  0.00  0.00    -0.276 OA
ATOM     17  N   UNL     1      -5.816   2.905   5.116  0.00  0.00    -0.329 N 
ATOM     18  H   UNL     1      -5.660   3.783   4.734  0.00  0.00    +0.145 HD
ATOM     19  H   UNL     1      -6.075   2.821   6.047  0.00  0.00    +0.145 HD
ENDBRANCH  12  15
ENDBRANCH   5   7
BRANCH   3  20
ATOM     20  C   UNL     1      -0.062   5.224  -0.725  0.00  0.00    -0.063 C 
ATOM     21  C   UNL     1      -0.064   6.362  -1.016  0.00  0.00    -0.062 C 
BRANCH  21  22
ATOM     22  C   UNL     1      -0.067   7.788  -1.380  0.00  0.00    +0.127 C 
ATOM     23  C   UNL     1       0.804   8.000  -2.620  0.00  0.00    +0.048 C 
ATOM     24  C   UNL     1       2.236   7.553  -2.319  0.00  0.00    +0.004 C 
ATOM     25  C   UNL     1       2.794   8.378  -1.157  0.00  0.00    +0.000 C 
ATOM     26  C   UNL     1       1.923   8.166   0.083  0.00  0.00    +0.004 C 
ATOM     27  C   UNL     1       0.490   8.613  -0.218  0.00  0.00    +0.048 C 
BRANCH  22  28
ATOM     28  O   UNL     1      -1.405   8.205  -1.661  0.00  0.00    -0.377 OA
ATOM     29  H   UNL     1      -1.822   7.724  -2.389  0.00  0.00    +0.211 HD
ENDBRANCH  22  28
ENDBRANCH  21  22
ENDBRANCH   3  20
TORSDOF 5
