REMARK  Name = ZINC39210932
REMARK  6 active torsions:
REMARK  status: ('A' for Active; 'I' for Inactive)
REMARK    1  A    between atoms: C_6  and  C_7
REMARK    2  A    between atoms: C_11  and  C_13
REMARK    3  A    between atoms: N_14  and  N_15
REMARK    4  A    between atoms: C_16  and  C_18
REMARK    5  A    between atoms: C_18  and  N_19
REMARK    6  A    between atoms: C_21  and  C_25
REMARK                            x       y       z     vdW  Elec       q    Type
REMARK                         _______ _______ _______ _____ _____    ______ ____
ROOT
ATOM      1  C   UNL     1       2.352  -5.793   3.368  0.00  0.00    +0.182 C 
ENDROOT
BRANCH   1   2
ATOM      2  N   UNL     1       3.410  -6.731   2.969  0.00  0.00    -0.261 NA
ATOM      3  N   UNL     1       2.840  -7.938   2.364  0.00  0.00    -0.247 NA
ATOM      4  C   UNL     1       3.742  -9.031   2.813  0.00  0.00    +0.152 C 
ATOM      5  N   UNL     1       4.083  -8.620   4.201  0.00  0.00    -0.328 NA
ATOM      6  N   UNL     1       4.193  -7.160   4.125  0.00  0.00    +0.411 N 
ATOM      7  H   UNL     1       2.829  -7.868   1.358  0.00  0.00    +0.141 HD
ATOM      8  H   UNL     1       3.360  -8.895   4.848  0.00  0.00    +0.106 HD
ATOM      9  H   UNL     1       5.158  -6.894   4.005  0.00  0.00    -0.031 HD
ATOM     10  H   UNL     1       3.821  -6.744   4.966  0.00  0.00    -0.031 HD
BRANCH   4  11
ATOM     11  C   UNL     1       3.023 -10.356   2.806  0.00  0.00    -0.013 A 
ATOM     12  C   UNL     1       2.008 -10.584   1.895  0.00  0.00    +0.010 A 
ATOM     13  C   UNL     1       1.346 -11.798   1.883  0.00  0.00    +0.050 A 
ATOM     14  C   UNL     1       1.697 -12.788   2.786  0.00  0.00    +0.166 A 
ATOM     15  C   UNL     1       2.719 -12.558   3.704  0.00  0.00    +0.167 A 
ATOM     16  C   UNL     1       3.383 -11.341   3.706  0.00  0.00    +0.056 A 
ATOM     17  O   UNL     1       2.873 -13.674   4.474  0.00  0.00    -0.453 OA
ATOM     18  C   UNL     1       1.666 -14.437   4.291  0.00  0.00    +0.466 C 
ATOM     19  O   UNL     1       1.211 -14.048   2.982  0.00  0.00    -0.453 OA
ENDBRANCH   4  11
ENDBRANCH   1   2
BRANCH   1  21
ATOM     20  N   UNL     1       0.729  -4.290   2.261  0.00  0.00    -0.206 N 
ATOM     21  C   UNL     1       1.729  -5.186   2.138  0.00  0.00    +0.246 C 
ATOM     22  O   UNL     1       2.126  -5.503   1.037  0.00  0.00    -0.273 OA
ATOM     23  H   UNL     1       0.412  -4.035   3.142  0.00  0.00    +0.177 HD
BRANCH  20  25
ATOM     24  C   UNL     1      -0.799  -2.874   1.234  0.00  0.00    +0.118 C 
ATOM     25  N   UNL     1       0.150  -3.725   1.117  0.00  0.00    -0.192 NA
BRANCH  24  30
ATOM     26  C   UNL     1      -1.260  -0.760   0.011  0.00  0.00    +0.084 C 
ATOM     27  N   UNL     1      -2.470  -0.272   0.019  0.00  0.00    -0.153 NA
ATOM     28  N   UNL     1      -3.439  -1.270   0.026  0.00  0.00    -0.161 NA
ATOM     29  C   UNL     1      -2.927  -2.457   0.021  0.00  0.00    +0.123 C 
ATOM     30  C   UNL     1      -1.423  -2.267   0.004  0.00  0.00    +0.125 C 
BRANCH  26  36
ATOM     31  C   UNL     1      -0.017   1.395   0.010  0.00  0.00    +0.012 A 
ATOM     32  C   UNL     1       1.169   2.097   0.002  0.00  0.00    +0.039 A 
ATOM     33  C   UNL     1       2.379   1.420  -0.013  0.00  0.00    +0.123 A 
ATOM     34  C   UNL     1       2.405   0.033  -0.022  0.00  0.00    +0.039 A 
ATOM     35  C   UNL     1       1.226  -0.681  -0.014  0.00  0.00    +0.012 A 
ATOM     36  C   UNL     1       0.002  -0.004   0.002  0.00  0.00    -0.001 A 
ATOM     37  F   UNL     1       3.538   2.114  -0.021  0.00  0.00    -0.205 F 
ENDBRANCH  26  36
ENDBRANCH  24  30
ENDBRANCH  20  25
ENDBRANCH   1  21
TORSDOF 6
