REMARK  Name = ZINC19408288
REMARK  4 active torsions:
REMARK  status: ('A' for Active; 'I' for Inactive)
REMARK    1  A    between atoms: C_1  and  C_2
REMARK    2  A    between atoms: C_11  and  C_18
REMARK    3  A    between atoms: C_13  and  C_15
REMARK    4  A    between atoms: C_19  and  C_21
REMARK                            x       y       z     vdW  Elec       q    Type
REMARK                         _______ _______ _______ _____ _____    ______ ____
ROOT
ATOM      1  C   UNL     1      -0.051   5.665  -1.798  0.00  0.00    +0.013 C 
ATOM      2  C   UNL     1      -0.132   5.327  -0.308  0.00  0.00    +0.031 C 
ATOM      3  C   UNL     1      -0.085   3.832  -0.134  0.00  0.00    -0.022 A 
ATOM      4  C   UNL     1      -1.243   3.098  -0.332  0.00  0.00    +0.006 A 
ATOM      5  C   UNL     1      -1.230   1.724  -0.192  0.00  0.00    +0.000 A 
ATOM      6  C   UNL     1      -0.060   1.073   0.157  0.00  0.00    +0.002 A 
ATOM      7  C   UNL     1       1.097   1.797   0.358  0.00  0.00    +0.024 A 
ATOM      8  C   UNL     1       1.087   3.180   0.214  0.00  0.00    +0.040 A 
ATOM      9  N   UNL     1       2.271   3.898   0.431  0.00  0.00    -0.267 N 
ATOM     10  C   UNL     1       2.341   5.300  -0.004  0.00  0.00    +0.091 C 
ATOM     11  C   UNL     1       1.038   5.988   0.421  0.00  0.00    +0.102 C 
ATOM     12  C   UNL     1       3.533   5.991   0.660  0.00  0.00    +0.029 C 
ATOM     13  C   UNL     1       3.328   3.312   1.028  0.00  0.00    +0.235 C 
ATOM     14  O   UNL     1       3.212   2.211   1.522  0.00  0.00    -0.274 OA
ENDROOT
BRANCH  11  15
ATOM     15  C   UNL     1       0.850   5.844   1.910  0.00  0.00    +0.216 C 
ATOM     16  O   UNL     1       1.681   5.258   2.571  0.00  0.00    -0.276 OA
ATOM     17  N   UNL     1      -0.240   6.366   2.505  0.00  0.00    -0.329 N 
ATOM     18  H   UNL     1      -0.377   6.261   3.592  0.00  0.00    +0.145 HD
ATOM     19  H   UNL     1      -0.993   6.898   1.905  0.00  0.00    +0.145 HD
ENDBRANCH  11  15
BRANCH  13  20
ATOM     20  C   UNL     1       4.654   4.026   1.082  0.00  0.00    +0.204 C 
ATOM     21 CL   UNL     1       5.910   2.911   1.737  0.00  0.00    -0.116 Cl
ENDBRANCH  13  20
TORSDOF 2
