REMARK  Name = ZINC43666088
REMARK  6 active torsions:
REMARK  status: ('A' for Active; 'I' for Inactive)
REMARK    1  A    between atoms: C_1  and  C_2
REMARK    2  A    between atoms: C_2  and  C_3
REMARK    3  A    between atoms: C_11  and  C_12
REMARK    4  A    between atoms: C_12  and  C_14
REMARK    5  A    between atoms: C_12  and  N_15
REMARK    6  A    between atoms: C_16  and  N_21
REMARK                            x       y       z     vdW  Elec       q    Type
REMARK                         _______ _______ _______ _____ _____    ______ ____
ROOT
ATOM      1  C   UNL     1       0.707  -0.490  -1.238  0.00  0.00    +0.003 A 
ATOM      2  C   UNL     1       0.099  -0.779  -2.542  0.00  0.00    +0.024 A 
ATOM      3  C   UNL     1      -1.198  -0.717  -3.048  0.00  0.00    +0.012 A 
ATOM      4  C   UNL     1      -1.437  -1.066  -4.348  0.00  0.00    +0.001 A 
ATOM      5  C   UNL     1      -0.396  -1.481  -5.166  0.00  0.00    +0.004 A 
ATOM      6  C   UNL     1       0.894  -1.549  -4.684  0.00  0.00    +0.047 A 
ATOM      7  C   UNL     1       1.157  -1.199  -3.365  0.00  0.00    +0.136 A 
ATOM      8  O   UNL     1       2.282  -1.162  -2.622  0.00  0.00    -0.457 OA
ATOM      9  C   UNL     1       2.017  -0.740  -1.373  0.00  0.00    +0.134 A 
ENDROOT
BRANCH   1  11
ATOM     10  C   UNL     1      -0.019   1.526   0.010  0.00  0.00    +0.009 C 
ATOM     11  C   UNL     1       0.002  -0.004   0.002  0.00  0.00    +0.036 C 
ENDBRANCH   1  11
BRANCH   9  12
ATOM     12  C   UNL     1       3.044  -0.575  -0.282  0.00  0.00    +0.172 C 
ATOM     13  C   UNL     1       3.719  -1.921  -0.010  0.00  0.00    +0.041 C 
BRANCH  12  14
ATOM     14  N   UNL     1       4.052   0.401  -0.704  0.00  0.00    -0.240 N 
ATOM     15  C   UNL     1       4.351   1.565  -0.072  0.00  0.00    +0.129 A 
ATOM     16  C   UNL     1       5.339   2.175  -0.785  0.00  0.00    +0.077 A 
ATOM     17  C   UNL     1       5.646   1.358  -1.877  0.00  0.00    +0.151 A 
ATOM     18  N   UNL     1       4.883   0.296  -1.827  0.00  0.00    -0.176 NA
ATOM     19 BR   UNL     1       6.151   3.831  -0.370  0.00  0.00    -0.045 Br
BRANCH  15  20
ATOM     20  N   UNL     1       3.757   2.048   1.092  0.00  0.00    -0.342 N 
ATOM     21  H   UNL     1       3.057   1.536   1.527  0.00  0.00    +0.144 HD
ATOM     22  H   UNL     1       4.043   2.896   1.466  0.00  0.00    +0.144 HD
ENDBRANCH  15  20
ENDBRANCH  12  14
ENDBRANCH   9  12
TORSDOF 4
