REMARK  Name = ZINC48675910
REMARK  12 active torsions:
REMARK  status: ('A' for Active; 'I' for Inactive)
REMARK    1  A    between atoms: C_1  and  C_2
REMARK    2  A    between atoms: C_4  and  C_12
REMARK    3  A    between atoms: C_5  and  C_11
REMARK    4  A    between atoms: N_6  and  C_7
REMARK    5  A    between atoms: C_7  and  C_8
REMARK    6  A    between atoms: C_8  and  O_9
REMARK    7  A    between atoms: O_9  and  C_10
REMARK    8  A    between atoms: C_13  and  C_14
REMARK    9  A    between atoms: C_13  and  C_16
REMARK   10  A    between atoms: N_18  and  S_19
REMARK   11  A    between atoms: S_19  and  C_22
REMARK   12  A    between atoms: N_25  and  C_27
REMARK                            x       y       z     vdW  Elec       q    Type
REMARK                         _______ _______ _______ _____ _____    ______ ____
ROOT
ATOM      1  C   UNL     1       0.042  -3.377  -1.450  0.00  0.00    +0.034 C 
ATOM      2  C   UNL     1      -0.070  -3.279  -2.820  0.00  0.00    +0.120 C 
ENDROOT
BRANCH   1   6
ATOM      3  C   UNL     1       0.508   1.484  -0.000  0.00  0.00    +0.063 C 
ATOM      4  C   UNL     1       0.491  -0.023  -0.024  0.00  0.00    +0.017 A 
ATOM      5  C   UNL     1       0.169  -0.781  -1.085  0.00  0.00    +0.030 A 
ATOM      6  C   UNL     1       0.290  -2.179  -0.649  0.00  0.00    -0.003 A 
ATOM      7  C   UNL     1       0.687  -2.128   0.676  0.00  0.00    +0.023 A 
ATOM      8  N   UNL     1       0.806  -0.834   1.028  0.00  0.00    -0.345 N 
ATOM      9  C   UNL     1       0.946  -3.315   1.567  0.00  0.00    +0.064 C 
BRANCH   8  10
ATOM     10  C   UNL     1       1.214  -0.362   2.354  0.00  0.00    +0.149 C 
BRANCH  10  11
ATOM     11  C   UNL     1      -0.024  -0.190   3.236  0.00  0.00    +0.181 C 
BRANCH  11  12
ATOM     12  O   UNL     1       0.374   0.270   4.530  0.00  0.00    -0.381 OA
ATOM     13  C   UNL     1      -0.713   0.465   5.437  0.00  0.00    +0.194 C 
ENDBRANCH  11  12
ENDBRANCH  10  11
ENDBRANCH   8  10
ENDBRANCH   1   6
BRANCH   2  14
ATOM     14  C   UNL     1      -0.169  -4.499  -3.640  0.00  0.00    +0.305 C 
ATOM     15  O   UNL     1      -0.149  -5.715  -3.049  0.00  0.00    -0.263 OA
ATOM     16  N   UNL     1      -0.275  -4.406  -4.936  0.00  0.00    -0.085 NA
BRANCH  16  17
ATOM     17  S   UNL     1      -0.385  -5.777  -5.858  0.00  0.00    +0.105 S 
ATOM     18  O   UNL     1       0.859  -6.452  -5.733  0.00  0.00    -0.146 OA
ATOM     19  O   UNL     1      -1.622  -6.392  -5.525  0.00  0.00    -0.146 OA
BRANCH  17  20
ATOM     20  C   UNL     1      -0.513  -5.266  -7.539  0.00  0.00    +0.150 A 
ATOM     21  C   UNL     1      -1.699  -4.993  -8.229  0.00  0.00    +0.163 A 
ATOM     22  N   UNL     1      -1.391  -4.643  -9.451  0.00  0.00    -0.178 NA
ATOM     23  N   UNL     1       0.004  -4.681  -9.578  0.00  0.00    -0.273 N 
ATOM     24  C   UNL     1       0.519  -5.061  -8.390  0.00  0.00    +0.137 A 
ATOM     25  C   UNL     1       0.768  -4.360 -10.786  0.00  0.00    +0.172 C 
ENDBRANCH  17  20
ENDBRANCH  16  17
ENDBRANCH   2  14
BRANCH   2  26
ATOM     26  C   UNL     1      -0.091  -1.991  -3.446  0.00  0.00    +0.105 C 
ATOM     27  N   UNL     1      -0.108  -0.970  -3.943  0.00  0.00    -0.191 NA
ENDBRANCH   2  26
TORSDOF 8
