REMARK  Name = ZINC31079174
REMARK  5 active torsions:
REMARK  status: ('A' for Active; 'I' for Inactive)
REMARK    1  A    between atoms: C_1  and  C_2
REMARK    2  A    between atoms: C_2  and  C_21
REMARK    3  A    between atoms: N_5  and  C_9
REMARK    4  A    between atoms: C_9  and  C_10
REMARK    5  A    between atoms: C_13  and  C_15
REMARK                            x       y       z     vdW  Elec       q    Type
REMARK                         _______ _______ _______ _____ _____    ______ ____
ROOT
ATOM      1  C   UNL     1      -2.975   4.398  -3.762  0.00  0.00    +0.047 C 
ATOM      2  C   UNL     1      -2.069   3.202  -3.463  0.00  0.00    +0.135 C 
ATOM      3  C   UNL     1      -1.329   3.408  -2.156  0.00  0.00    +0.251 C 
ATOM      4  O   UNL     1      -0.547   4.295  -1.889  0.00  0.00    -0.272 OA
ATOM      5  N   UNL     1      -1.721   2.399  -1.352  0.00  0.00    -0.218 N 
ATOM      6  C   UNL     1      -2.602   1.597  -1.961  0.00  0.00    +0.310 C 
ATOM      7  O   UNL     1      -3.102   0.621  -1.437  0.00  0.00    -0.252 OA
ATOM      8  N   UNL     1      -2.873   1.991  -3.219  0.00  0.00    -0.281 N 
ATOM      9  H   UNL     1      -3.528   1.597  -4.010  0.00  0.00    +0.152 HD
ENDROOT
BRANCH   2  10
ATOM     10  C   UNL     1      -1.101   2.976  -4.595  0.00  0.00    -0.015 A 
ATOM     11  C   UNL     1       0.118   3.628  -4.602  0.00  0.00    +0.007 A 
ATOM     12  C   UNL     1       1.009   3.417  -5.638  0.00  0.00    +0.015 A 
ATOM     13  C   UNL     1       0.676   2.562  -6.673  0.00  0.00    +0.018 A 
ATOM     14  C   UNL     1      -0.546   1.913  -6.668  0.00  0.00    +0.015 A 
ATOM     15  C   UNL     1      -1.434   2.120  -5.629  0.00  0.00    +0.007 A 
ATOM     16 BR   UNL     1       1.891   2.279  -8.094  0.00  0.00    -0.050 Br
ENDBRANCH   2  10
BRANCH   5  17
ATOM     17  C   UNL     1      -1.246   2.208   0.020  0.00  0.00    +0.176 C 
BRANCH  17  18
ATOM     18  C   UNL     1      -0.016   1.337   0.009  0.00  0.00    +0.098 A 
ATOM     19  C   UNL     1       1.259   1.767  -0.001  0.00  0.00    +0.222 A 
ATOM     20  O   UNL     1       2.049   0.675  -0.014  0.00  0.00    -0.443 OA
ATOM     21  C   UNL     1       1.251  -0.407  -0.012  0.00  0.00    +0.227 A 
ATOM     22  N   UNL     1       0.002  -0.004   0.002  0.00  0.00    -0.212 NA
BRANCH  21  23
ATOM     23  C   UNL     1       1.704  -1.814  -0.023  0.00  0.00    +0.037 A 
ATOM     24  C   UNL     1       0.770  -2.851  -0.013  0.00  0.00    +0.013 A 
ATOM     25  C   UNL     1       1.200  -4.162  -0.029  0.00  0.00    +0.001 A 
ATOM     26  C   UNL     1       2.553  -4.449  -0.043  0.00  0.00    +0.000 A 
ATOM     27  C   UNL     1       3.484  -3.426  -0.048  0.00  0.00    +0.001 A 
ATOM     28  C   UNL     1       3.068  -2.111  -0.038  0.00  0.00    +0.013 A 
ENDBRANCH  21  23
ENDBRANCH  17  18
ENDBRANCH   5  17
TORSDOF 4
