REMARK  Name = ZINC06925575
REMARK  2 active torsions:
REMARK  status: ('A' for Active; 'I' for Inactive)
REMARK    1  A    between atoms: C_2  and  C_10
REMARK    2  A    between atoms: C_17  and  N_20
REMARK                            x       y       z     vdW  Elec       q    Type
REMARK                         _______ _______ _______ _____ _____    ______ ____
ROOT
ATOM      1  C   UNL     1       1.529   5.973   0.020  0.00  0.00    +0.230 A 
ATOM      2  N   UNL     1       0.227   5.834   0.032  0.00  0.00    -0.207 NA
ATOM      3  C   UNL     1      -0.071   4.509   0.027  0.00  0.00    +0.130 A 
ATOM      4  C   UNL     1       1.153   3.820   0.012  0.00  0.00    +0.159 A 
ATOM      5  O   UNL     1       2.122   4.764   0.008  0.00  0.00    -0.435 OA
ATOM      6  C   UNL     1       1.167   2.434   0.004  0.00  0.00    +0.070 A 
ATOM      7  C   UNL     1      -0.021   1.732   0.012  0.00  0.00    +0.067 A 
ATOM      8  C   UNL     1      -1.240   2.408   0.021  0.00  0.00    +0.064 A 
ATOM      9  C   UNL     1      -1.270   3.791   0.035  0.00  0.00    +0.092 A 
ATOM     10 CL   UNL     1      -2.789   4.631   0.054  0.00  0.00    -0.079 Cl
ATOM     11 CL   UNL     1       0.002  -0.004   0.002  0.00  0.00    -0.081 Cl
ENDROOT
BRANCH   1  13
ATOM     12  C   UNL     1       1.524   8.463   0.028  0.00  0.00    +0.056 A 
ATOM     13  C   UNL     1       2.243   7.266   0.020  0.00  0.00    +0.058 A 
ATOM     14  C   UNL     1       3.639   7.296   0.007  0.00  0.00    +0.056 A 
ATOM     15  C   UNL     1       4.302   8.508   0.008  0.00  0.00    +0.062 A 
ATOM     16  C   UNL     1       3.584   9.692   0.020  0.00  0.00    +0.160 A 
ATOM     17  C   UNL     1       2.196   9.669   0.033  0.00  0.00    +0.159 A 
ATOM     18  F   UNL     1       1.502  10.828   0.045  0.00  0.00    -0.202 F 
ATOM     19  F   UNL     1       4.238  10.875   0.020  0.00  0.00    -0.202 F 
ATOM     20 CL   UNL     1       4.541   5.812  -0.008  0.00  0.00    -0.083 Cl
ENDBRANCH   1  13
BRANCH   8  21
ATOM     21  N   UNL     1      -2.439   1.684   0.023  0.00  0.00    -0.356 N 
ATOM     22  H   UNL     1      -2.420   0.714   0.018  0.00  0.00    +0.142 HD
ATOM     23  H   UNL     1      -3.288   2.153   0.029  0.00  0.00    +0.142 HD
ENDBRANCH   8  21
TORSDOF 2
