REMARK  Name = ZINC49799861
REMARK  3 active torsions:
REMARK  status: ('A' for Active; 'I' for Inactive)
REMARK    1  A    between atoms: C_4  and  C_7
REMARK    2  A    between atoms: C_8  and  C_9
REMARK    3  A    between atoms: C_18  and  C_19
REMARK                            x       y       z     vdW  Elec       q    Type
REMARK                         _______ _______ _______ _____ _____    ______ ____
ROOT
ATOM      1  C   UNL     1       4.994  -2.738  -0.059  0.00  0.00    +0.239 C 
ATOM      2  O   UNL     1       3.934  -2.151   0.053  0.00  0.00    -0.271 OA
ATOM      3  N   UNL     1       5.013  -4.081  -0.169  0.00  0.00    -0.296 N 
ATOM      4  C   UNL     1       3.750  -4.818  -0.275  0.00  0.00    +0.112 C 
ATOM      5  C   UNL     1       3.663  -5.872   0.840  0.00  0.00    +0.051 C 
ATOM      6  C   UNL     1       5.005  -6.602   0.846  0.00  0.00    -0.039 C 
ATOM      7  C   UNL     1       6.290  -5.786   0.987  0.00  0.00    +0.097 C 
ATOM      8  S   UNL     1       7.585  -7.060   0.755  0.00  0.00    -0.096 S 
ATOM      9  C   UNL     1       6.520  -8.491   0.654  0.00  0.00    +0.101 C 
ATOM     10  C   UNL     1       5.162  -7.907   0.716  0.00  0.00    +0.068 C 
ATOM     11  N   UNL     1       6.859  -9.746   0.550  0.00  0.00    -0.292 NA
ATOM     12  C   UNL     1       6.301  -4.793  -0.186  0.00  0.00    +0.127 C 
ATOM     13  H   UNL     1       6.175 -10.425   0.430  0.00  0.00    +0.187 HD
ENDROOT
BRANCH  10  14
ATOM     14  C   UNL     1       3.979  -8.787   0.634  0.00  0.00    +0.244 C 
ATOM     15  O   UNL     1       3.598  -9.193  -0.447  0.00  0.00    -0.270 OA
ATOM     16  N   UNL     1       3.321  -9.139   1.757  0.00  0.00    -0.325 N 
ATOM     17  H   UNL     1       3.580  -8.758   2.610  0.00  0.00    +0.145 HD
ATOM     18  H   UNL     1       2.589  -9.773   1.711  0.00  0.00    +0.145 HD
ENDBRANCH  10  14
BRANCH   1  20
ATOM     19  C   UNL     1       6.227  -0.637  -0.065  0.00  0.00    +0.013 C 
ATOM     20  C   UNL     1       6.250  -1.984  -0.073  0.00  0.00    +0.068 C 
BRANCH  19  24
ATOM     21  C   UNL     1       9.864   1.546  -0.106  0.00  0.00    +0.000 A 
ATOM     22  C   UNL     1       8.656   2.221  -0.084  0.00  0.00    +0.001 A 
ATOM     23  C   UNL     1       7.470   1.519  -0.071  0.00  0.00    +0.008 A 
ATOM     24  C   UNL     1       7.489   0.121  -0.080  0.00  0.00    -0.025 A 
ATOM     25  C   UNL     1       8.713  -0.554  -0.102  0.00  0.00    +0.008 A 
ATOM     26  C   UNL     1       9.892   0.162  -0.115  0.00  0.00    +0.001 A 
ENDBRANCH  19  24
ENDBRANCH   1  20
TORSDOF 3
