REMARK  Name = ZINC20066017
REMARK  9 active torsions:
REMARK  status: ('A' for Active; 'I' for Inactive)
REMARK    1  A    between atoms: C_3  and  C_6
REMARK    2  A    between atoms: C_7  and  C_28
REMARK    3  A    between atoms: C_8  and  N_27
REMARK    4  A    between atoms: C_10  and  S_14
REMARK    5  A    between atoms: C_11  and  C_12
REMARK    6  A    between atoms: S_14  and  C_15
REMARK    7  A    between atoms: C_15  and  C_16
REMARK    8  A    between atoms: N_18  and  C_19
REMARK    9  A    between atoms: C_19  and  C_20
REMARK                            x       y       z     vdW  Elec       q    Type
REMARK                         _______ _______ _______ _____ _____    ______ ____
ROOT
ATOM      1  C   UNL     1      -1.719   2.249  -8.697  0.00  0.00    +0.029 A 
ATOM      2  C   UNL     1      -2.827   3.011  -8.261  0.00  0.00    +0.101 A 
ATOM      3  C   UNL     1      -3.047   3.162  -6.880  0.00  0.00    +0.136 A 
ATOM      4  N   UNL     1      -2.234   2.605  -5.996  0.00  0.00    -0.224 NA
ATOM      5  C   UNL     1      -1.184   1.883  -6.357  0.00  0.00    +0.118 A 
ATOM      6  C   UNL     1      -0.879   1.679  -7.716  0.00  0.00    +0.093 A 
ENDROOT
BRANCH   1   9
ATOM      7  C   UNL     1      -0.899   2.552 -12.366  0.00  0.00    +0.008 A 
ATOM      8  C   UNL     1      -1.104   3.005 -11.083  0.00  0.00    +0.016 A 
ATOM      9  C   UNL     1      -1.447   2.062 -10.130  0.00  0.00    +0.022 A 
ATOM     10  S   UNL     1      -1.480   0.561 -11.093  0.00  0.00    -0.097 S 
ATOM     11  C   UNL     1      -1.050   1.230 -12.634  0.00  0.00    +0.046 A 
ENDBRANCH   1   9
BRANCH   3  12
ATOM     12  N   UNL     1      -4.125   3.904  -6.440  0.00  0.00    -0.342 N 
ATOM     13  H   UNL     1      -4.304   4.027  -5.362  0.00  0.00    +0.144 HD
ATOM     14  H   UNL     1      -4.805   4.371  -7.168  0.00  0.00    +0.144 HD
ENDBRANCH   3  12
BRANCH   6  15
ATOM     15  C   UNL     1       0.262   0.902  -8.097  0.00  0.00    +0.102 C 
ATOM     16  N   UNL     1       1.167   0.285  -8.399  0.00  0.00    -0.191 NA
ENDBRANCH   6  15
BRANCH   2  17
ATOM     17  C   UNL     1      -3.711   3.619  -9.209  0.00  0.00    +0.103 C 
ATOM     18  N   UNL     1      -4.413   4.101  -9.961  0.00  0.00    -0.191 NA
ENDBRANCH   2  17
BRANCH   5  19
ATOM     19  S   UNL     1      -0.150   1.174  -5.119  0.00  0.00    -0.095 S 
BRANCH  19  20
ATOM     20  C   UNL     1      -0.997   1.758  -3.630  0.00  0.00    +0.171 C 
BRANCH  20  21
ATOM     21  C   UNL     1      -0.268   1.258  -2.409  0.00  0.00    +0.224 C 
ATOM     22  O   UNL     1       0.726   0.575  -2.534  0.00  0.00    -0.275 OA
ATOM     23  N   UNL     1      -0.721   1.571  -1.179  0.00  0.00    -0.311 N 
ATOM     24  H   UNL     1      -1.623   2.191  -1.066  0.00  0.00    +0.149 HD
BRANCH  23  25
ATOM     25  C   UNL     1      -0.013   1.086   0.008  0.00  0.00    +0.139 C 
BRANCH  25  26
ATOM     26  C   UNL     1      -0.718   1.572   1.248  0.00  0.00    -0.030 A 
ATOM     27  C   UNL     1      -0.360   2.779   1.818  0.00  0.00    +0.006 A 
ATOM     28  C   UNL     1      -1.010   3.228   2.952  0.00  0.00    +0.020 A 
ATOM     29  C   UNL     1      -2.012   2.464   3.523  0.00  0.00    +0.041 A 
ATOM     30  C   UNL     1      -2.367   1.253   2.955  0.00  0.00    +0.020 A 
ATOM     31  C   UNL     1      -1.719   0.808   1.817  0.00  0.00    +0.006 A 
ATOM     32 CL   UNL     1      -2.825   3.024   4.951  0.00  0.00    -0.084 Cl
ENDBRANCH  25  26
ENDBRANCH  23  25
ENDBRANCH  20  21
ENDBRANCH  19  20
ENDBRANCH   5  19
TORSDOF 9
