REMARK  Name = ZINC44282552
REMARK  5 active torsions:
REMARK  status: ('A' for Active; 'I' for Inactive)
REMARK    1  A    between atoms: C_2  and  C_13
REMARK    2  A    between atoms: C_6  and  N_7
REMARK    3  A    between atoms: C_13  and  C_14
REMARK    4  A    between atoms: C_14  and  C_15
REMARK    5  A    between atoms: C_15  and  N_16
REMARK                            x       y       z     vdW  Elec       q    Type
REMARK                         _______ _______ _______ _____ _____    ______ ____
ROOT
ATOM      1  C   UNL     1      -0.017   1.378   0.010  0.00  0.00    +0.041 A 
ATOM      2  C   UNL     1       1.169   2.087   0.002  0.00  0.00    +0.003 A 
ATOM      3  C   UNL     1       2.381   1.411  -0.013  0.00  0.00    +0.198 A 
ATOM      4  C   UNL     1       2.398   0.023  -0.021  0.00  0.00    +0.085 A 
ATOM      5  C   UNL     1       1.209  -0.682  -0.013  0.00  0.00    +0.089 A 
ATOM      6  C   UNL     1       0.002  -0.004   0.002  0.00  0.00    +0.146 A 
ATOM      7 CL   UNL     1       1.229  -2.418  -0.023  0.00  0.00    -0.080 Cl
ATOM      8 BR   UNL     1       4.047  -0.902  -0.042  0.00  0.00    -0.045 Br
ATOM      9  O   UNL     1       3.548   2.107  -0.021  0.00  0.00    -0.286 OA
ENDROOT
BRANCH   6  10
ATOM     10  N   UNL     1      -1.270  -0.760   0.011  0.00  0.00    +0.058 N 
ATOM     11  O   UNL     1      -2.325  -0.169   0.024  0.00  0.00    -0.126 OA
ATOM     12  O   UNL     1      -1.255  -1.969   0.004  0.00  0.00    -0.126 OA
ENDBRANCH   6  10
BRANCH   2  13
ATOM     13  C   UNL     1       1.147   3.594   0.010  0.00  0.00    +0.037 C 
BRANCH  13  14
ATOM     14  C   UNL     1       1.403   4.100   1.431  0.00  0.00    -0.015 C 
BRANCH  14  15
ATOM     15  C   UNL     1       1.381   5.630   1.438  0.00  0.00    -0.086 C 
BRANCH  15  16
ATOM     16  N   UNL     1       1.627   6.116   2.803  0.00  0.00    +0.378 N 
ATOM     17  H   UNL     1       2.528   5.792   3.118  0.00  0.00    -0.090 HD
ATOM     18  H   UNL     1       1.611   7.125   2.808  0.00  0.00    -0.090 HD
ATOM     19  H   UNL     1       0.909   5.766   3.419  0.00  0.00    -0.090 HD
ENDBRANCH  15  16
ENDBRANCH  14  15
ENDBRANCH  13  14
ENDBRANCH   2  13
TORSDOF 5
