REMARK  Name = ZINC58235071
REMARK  6 active torsions:
REMARK  status: ('A' for Active; 'I' for Inactive)
REMARK    1  A    between atoms: C_1  and  C_2
REMARK    2  A    between atoms: C_9  and  C_16
REMARK    3  A    between atoms: C_9  and  C_17
REMARK    4  A    between atoms: N_11  and  C_12
REMARK    5  A    between atoms: C_12  and  C_13
REMARK    6  A    between atoms: C_13  and  N_15
REMARK                            x       y       z     vdW  Elec       q    Type
REMARK                         _______ _______ _______ _____ _____    ______ ____
ROOT
ATOM      1  C   UNL     1      -0.018   1.503   0.010  0.00  0.00    +0.044 C 
ATOM      2  C   UNL     1       0.002  -0.004   0.002  0.00  0.00    -0.047 A 
ATOM      3  C   UNL     1       0.006  -0.686  -1.201  0.00  0.00    +0.005 A 
ATOM      4  C   UNL     1       0.023  -2.068  -1.213  0.00  0.00    +0.027 A 
ATOM      5  C   UNL     1       0.037  -2.769  -0.018  0.00  0.00    +0.072 A 
ATOM      6  C   UNL     1       0.037  -2.085   1.194  0.00  0.00    +0.143 A 
ATOM      7  C   UNL     1       0.023  -0.699   1.197  0.00  0.00    +0.051 A 
ATOM      8  O   UNL     1       0.060  -2.760   2.374  0.00  0.00    -0.483 OA
ATOM      9  C   UNL     1      -0.355  -4.128   2.367  0.00  0.00    +0.121 C 
ATOM     10  C   UNL     1       0.377  -4.862   1.235  0.00  0.00    +0.153 C 
ATOM     11  N   UNL     1       0.051  -4.173  -0.026  0.00  0.00    -0.317 N 
ATOM     12  C   UNL     1      -1.865  -4.205   2.135  0.00  0.00    +0.057 C 
ATOM     13  C   UNL     1      -0.006  -4.777   3.708  0.00  0.00    +0.057 C 
ENDROOT
BRANCH  11  14
ATOM     14  C   UNL     1      -0.249  -4.927  -1.245  0.00  0.00    +0.163 C 
BRANCH  14  15
ATOM     15  C   UNL     1       1.025  -5.171  -2.012  0.00  0.00    +0.064 C 
ATOM     16  S   UNL     1       2.416  -4.623  -1.446  0.00  0.00    -0.039 S 
BRANCH  15  17
ATOM     17  N   UNL     1       0.992  -5.850  -3.176  0.00  0.00    -0.354 N 
ATOM     18  H   UNL     1       0.148  -6.183  -3.519  0.00  0.00    +0.143 HD
ATOM     19  H   UNL     1       1.812  -6.007  -3.669  0.00  0.00    +0.143 HD
ENDBRANCH  15  17
ENDBRANCH  14  15
ENDBRANCH  11  14
TORSDOF 3
