REMARK  Name = ZINC04146302
REMARK  9 active torsions:
REMARK  status: ('A' for Active; 'I' for Inactive)
REMARK    1  A    between atoms: C_1  and  C_2
REMARK    2  A    between atoms: C_2  and  C_35
REMARK    3  A    between atoms: C_9  and  C_21
REMARK    4  A    between atoms: C_17  and  C_19
REMARK    5  A    between atoms: C_17  and  C_20
REMARK    6  A    between atoms: N_23  and  C_24
REMARK    7  A    between atoms: C_24  and  C_25
REMARK    8  A    between atoms: N_27  and  C_28
REMARK    9  A    between atoms: C_33  and  O_34
REMARK                            x       y       z     vdW  Elec       q    Type
REMARK                         _______ _______ _______ _____ _____    ______ ____
ROOT
ATOM      1  C   UNL     1       2.002   4.442  -0.022  0.00  0.00    +0.245 C 
ATOM      2  O   UNL     1       3.151   4.053  -0.041  0.00  0.00    -0.273 OA
ATOM      3  N   UNL     1       0.990   3.552  -0.008  0.00  0.00    -0.304 N 
ATOM      4  H   UNL     1       0.071   3.862   0.008  0.00  0.00    +0.149 HD
ENDROOT
BRANCH   1  11
ATOM      5  C   UNL     1       1.175   3.489   3.415  0.00  0.00    +0.074 C 
ATOM      6  C   UNL     1       0.727   4.914   3.082  0.00  0.00    +0.166 C 
ATOM      7  O   UNL     1       1.825   5.824   3.275  0.00  0.00    -0.341 OA
ATOM      8  C   UNL     1       1.547   6.907   2.375  0.00  0.00    +0.187 C 
ATOM      9  C   UNL     1       0.833   6.260   1.181  0.00  0.00    +0.191 C 
ATOM     10  O   UNL     1       0.332   5.003   1.707  0.00  0.00    -0.340 OA
ATOM     11  C   UNL     1       1.706   5.920  -0.015  0.00  0.00    +0.238 C 
ATOM     12  O   UNL     1       2.915   6.651  -0.149  0.00  0.00    -0.333 OA
ATOM     13  C   UNL     1       3.640   6.788   1.049  0.00  0.00    +0.286 C 
ATOM     14  C   UNL     1       2.772   7.676   1.977  0.00  0.00    +0.209 C 
ATOM     15  O   UNL     1       3.712   7.970   3.015  0.00  0.00    -0.338 OA
ATOM     16  C   UNL     1       4.955   8.174   2.300  0.00  0.00    +0.168 C 
ATOM     17  O   UNL     1       4.862   7.517   1.016  0.00  0.00    -0.318 OA
ATOM     18  C   UNL     1       5.198   9.671   2.096  0.00  0.00    +0.074 C 
ATOM     19  C   UNL     1       6.114   7.571   3.101  0.00  0.00    +0.074 C 
ATOM     20  C   UNL     1      -0.439   5.307   3.991  0.00  0.00    +0.074 C 
ENDBRANCH   1  11
BRANCH   3  21
ATOM     21  C   UNL     1       1.278   2.115  -0.015  0.00  0.00    +0.200 C 
BRANCH  21  22
ATOM     22  C   UNL     1      -0.017   1.344   0.005  0.00  0.00    +0.234 C 
ATOM     23  O   UNL     1      -1.075   1.935   0.018  0.00  0.00    -0.274 OA
ATOM     24  N   UNL     1       0.002  -0.004   0.002  0.00  0.00    -0.281 N 
ATOM     25  H   UNL     1       0.845  -0.477  -0.078  0.00  0.00    +0.155 HD
BRANCH  24  26
ATOM     26  C   UNL     1      -1.196  -0.722   0.115  0.00  0.00    +0.075 A 
ATOM     27  C   UNL     1      -2.358  -0.230  -0.461  0.00  0.00    +0.027 A 
ATOM     28  C   UNL     1      -3.539  -0.940  -0.348  0.00  0.00    +0.002 A 
ATOM     29  C   UNL     1      -3.565  -2.140   0.339  0.00  0.00    +0.004 A 
ATOM     30  C   UNL     1      -2.411  -2.635   0.916  0.00  0.00    +0.047 A 
ATOM     31  C   UNL     1      -1.222  -1.933   0.803  0.00  0.00    +0.138 A 
BRANCH  31  32
ATOM     32  O   UNL     1      -0.085  -2.422   1.365  0.00  0.00    -0.505 OA
ATOM     33  H   UNL     1       0.058  -2.135   2.277  0.00  0.00    +0.292 HD
ENDBRANCH  31  32
ENDBRANCH  24  26
ENDBRANCH  21  22
ENDBRANCH   3  21
TORSDOF 5
