REMARK  Name = ZINC08870737
REMARK  12 active torsions:
REMARK  status: ('A' for Active; 'I' for Inactive)
REMARK    1  A    between atoms: C_1  and  C_2
REMARK    2  A    between atoms: C_4  and  C_31
REMARK    3  A    between atoms: C_5  and  C_30
REMARK    4  A    between atoms: C_6  and  S_9
REMARK    5  A    between atoms: C_7  and  C_8
REMARK    6  A    between atoms: S_9  and  N_12
REMARK    7  A    between atoms: N_12  and  C_13
REMARK    8  A    between atoms: C_15  and  S_24
REMARK    9  A    between atoms: C_16  and  O_23
REMARK   10  A    between atoms: S_24  and  C_25
REMARK   11  A    between atoms: C_25  and  C_27
REMARK   12  A    between atoms: C_25  and  C_28
REMARK                            x       y       z     vdW  Elec       q    Type
REMARK                         _______ _______ _______ _____ _____    ______ ____
ROOT
ATOM      1  C   UNL     1       1.027  -0.451   3.258  0.00  0.00    +0.057 A 
ATOM      2  C   UNL     1       0.347   0.033   2.162  0.00  0.00    +0.043 A 
ATOM      3  C   UNL     1      -0.461  -0.810   1.394  0.00  0.00    +0.052 A 
ATOM      4  C   UNL     1      -0.587  -2.150   1.712  0.00  0.00    +0.138 A 
ATOM      5  C   UNL     1       0.100  -2.670   2.824  0.00  0.00    +0.026 A 
ATOM      6  C   UNL     1       0.915  -1.813   3.606  0.00  0.00    +0.008 A 
ATOM      7  C   UNL     1       1.600  -2.337   4.713  0.00  0.00    +0.010 A 
ATOM      8  C   UNL     1       1.473  -3.657   5.022  0.00  0.00    +0.001 A 
ATOM      9  C   UNL     1       0.672  -4.500   4.255  0.00  0.00    +0.001 A 
ATOM     10  C   UNL     1      -0.007  -4.028   3.173  0.00  0.00    +0.012 A 
ENDROOT
BRANCH   1  11
ATOM     11  N   UNL     1       1.827   0.404   4.019  0.00  0.00    -0.216 N 
ATOM     12  H   UNL     1       2.653   0.077   4.408  0.00  0.00    +0.174 HD
BRANCH  11  13
ATOM     13  S   UNL     1       1.366   1.977   4.257  0.00  0.00    +0.073 S 
ATOM     14  O   UNL     1       2.348   2.565   5.099  0.00  0.00    -0.150 OA
ATOM     15  O   UNL     1       1.044   2.504   2.978  0.00  0.00    -0.150 OA
BRANCH  13  21
ATOM     16  C   UNL     1      -3.783   2.776   4.675  0.00  0.00    +0.044 C 
ATOM     17  C   UNL     1      -2.494   2.330   5.316  0.00  0.00    -0.045 A 
ATOM     18  C   UNL     1      -2.489   1.897   6.629  0.00  0.00    +0.007 A 
ATOM     19  C   UNL     1      -1.308   1.487   7.217  0.00  0.00    -0.045 A 
ATOM     20  C   UNL     1      -0.130   1.511   6.493  0.00  0.00    -0.021 A 
ATOM     21  C   UNL     1      -0.135   1.945   5.180  0.00  0.00    +0.115 A 
ATOM     22  C   UNL     1      -1.316   2.360   4.594  0.00  0.00    -0.021 A 
ATOM     23  C   UNL     1      -1.320   2.838   3.165  0.00  0.00    +0.046 C 
ATOM     24  C   UNL     1       1.158   1.065   7.134  0.00  0.00    +0.046 C 
ATOM     25  C   UNL     1      -1.302   1.015   8.648  0.00  0.00    +0.044 C 
ENDBRANCH  13  21
ENDBRANCH  11  13
ENDBRANCH   1  11
BRANCH   4  26
ATOM     26  O   UNL     1      -1.374  -2.961   0.954  0.00  0.00    -0.505 OA
ATOM     27  H   UNL     1      -0.909  -3.384   0.218  0.00  0.00    +0.292 HD
ENDBRANCH   4  26
BRANCH   3  28
ATOM     28  S   UNL     1      -1.322  -0.160   0.001  0.00  0.00    -0.107 S 
BRANCH  28  29
ATOM     29  C   UNL     1      -0.676   1.526  -0.166  0.00  0.00    +0.161 C 
ATOM     30  C   UNL     1       0.790   1.471  -0.598  0.00  0.00    +0.031 C 
BRANCH  29  31
ATOM     31  C   UNL     1      -1.478   2.271  -1.203  0.00  0.00    +0.369 C 
ATOM     32  O   UNL     1      -2.129   1.659  -2.016  0.00  0.00    -0.245 OA
ATOM     33  O   UNL     1      -1.467   3.613  -1.224  0.00  0.00    -0.245 OA
ENDBRANCH  29  31
ENDBRANCH  28  29
ENDBRANCH   3  28
TORSDOF 7
