REMARK  Name = ZINC52012374
REMARK  5 active torsions:
REMARK  status: ('A' for Active; 'I' for Inactive)
REMARK    1  A    between atoms: C_1  and  C_2
REMARK    2  A    between atoms: C_2  and  C_4
REMARK    3  A    between atoms: C_2  and  N_7
REMARK    4  A    between atoms: N_15  and  C_16
REMARK    5  A    between atoms: C_22  and  O_24
REMARK                            x       y       z     vdW  Elec       q    Type
REMARK                         _______ _______ _______ _____ _____    ______ ____
ROOT
ATOM      1  N   UNL     1       0.708  -0.491   1.192  0.00  0.00    +0.391 N 
ATOM      2  C   UNL     1       0.027  -0.007   2.400  0.00  0.00    -0.058 C 
ATOM      3  C   UNL     1       0.832  -0.417   3.638  0.00  0.00    +0.091 C 
ATOM      4  N   UNL     1       1.038  -1.873   3.598  0.00  0.00    -0.289 N 
ATOM      5  C   UNL     1       1.566  -2.466   2.360  0.00  0.00    +0.091 C 
ATOM      6  C   UNL     1       0.726  -1.959   1.182  0.00  0.00    -0.058 C 
ATOM      7  C   UNL     1       0.752  -2.643   4.667  0.00  0.00    +0.302 C 
ATOM      8  O   UNL     1       0.403  -2.127   5.712  0.00  0.00    -0.253 OA
ATOM      9  N   UNL     1       0.852  -3.984   4.578  0.00  0.00    -0.294 N 
ATOM     10  H   UNL     1       1.200  -4.392   3.770  0.00  0.00    +0.151 HD
ATOM     11  H   UNL     1       1.655  -0.143   1.181  0.00  0.00    -0.081 HD
ENDROOT
BRANCH   9  12
ATOM     12  C   UNL     1       0.435  -4.826   5.702  0.00  0.00    +0.103 C 
ATOM     13  C   UNL     1       1.588  -4.953   6.700  0.00  0.00    +0.025 C 
ATOM     14  C   UNL     1       2.795  -5.589   6.007  0.00  0.00    +0.002 C 
ATOM     15  C   UNL     1       2.412  -6.977   5.490  0.00  0.00    +0.003 C 
ATOM     16  C   UNL     1       1.259  -6.850   4.492  0.00  0.00    +0.033 C 
ATOM     17  C   UNL     1       0.053  -6.214   5.186  0.00  0.00    +0.135 C 
BRANCH  17  18
ATOM     18  O   UNL     1      -1.024  -6.096   4.254  0.00  0.00    -0.390 OA
ATOM     19  H   UNL     1      -1.319  -6.939   3.885  0.00  0.00    +0.210 HD
ENDBRANCH  17  18
ENDBRANCH   9  12
BRANCH   1  21
ATOM     20  C   UNL     1      -0.025   1.526   0.011  0.00  0.00    -0.002 C 
ATOM     21  C   UNL     1      -0.005  -0.004   0.003  0.00  0.00    +0.044 C 
BRANCH  21  22
ATOM     22  C   UNL     1       0.699  -0.490  -1.238  0.00  0.00    +0.343 C 
ATOM     23  O   UNL     1       1.903  -0.677  -1.222  0.00  0.00    -0.248 OA
ATOM     24  O   UNL     1       0.063  -0.697  -2.258  0.00  0.00    -0.248 OA
ENDBRANCH  21  22
ENDBRANCH   1  21
TORSDOF 4
