REMARK  Name = ZINC47152206
REMARK  7 active torsions:
REMARK  status: ('A' for Active; 'I' for Inactive)
REMARK    1  A    between atoms: C_3  and  N_24
REMARK    2  A    between atoms: C_6  and  C_7
REMARK    3  A    between atoms: N_11  and  C_15
REMARK    4  A    between atoms: C_15  and  C_16
REMARK    5  A    between atoms: C_16  and  C_17
REMARK    6  A    between atoms: N_19  and  C_20
REMARK    7  A    between atoms: C_20  and  C_21
REMARK                            x       y       z     vdW  Elec       q    Type
REMARK                         _______ _______ _______ _____ _____    ______ ____
ROOT
ATOM      1  C   UNL     1      -1.258  -0.760   0.011  0.00  0.00    +0.028 C 
ATOM      2  C   UNL     1      -1.239  -2.112  -0.099  0.00  0.00    +0.077 C 
ATOM      3  C   UNL     1      -2.364  -3.064  -0.220  0.00  0.00    +0.258 C 
ATOM      4  O   UNL     1      -3.521  -2.688  -0.234  0.00  0.00    -0.269 OA
ATOM      5  N   UNL     1      -2.048  -4.345  -0.313  0.00  0.00    -0.255 N 
ATOM      6  C   UNL     1      -0.764  -4.756  -0.297  0.00  0.00    +0.121 C 
ATOM      7  S   UNL     1      -0.159  -6.354  -0.405  0.00  0.00    -0.027 S 
ATOM      8  S   UNL     1       0.153  -3.232  -0.146  0.00  0.00    -0.061 S 
ENDROOT
BRANCH   1  14
ATOM      9  C   UNL     1       1.190  -0.641  -0.409  0.00  0.00    +0.010 A 
ATOM     10  C   UNL     1       2.364   0.080  -0.471  0.00  0.00    +0.033 A 
ATOM     11  C   UNL     1       2.364   1.435  -0.185  0.00  0.00    +0.126 A 
ATOM     12  C   UNL     1       1.188   2.077   0.164  0.00  0.00    +0.033 A 
ATOM     13  C   UNL     1       0.006   1.370   0.230  0.00  0.00    +0.010 A 
ATOM     14  C   UNL     1      -0.003   0.001  -0.057  0.00  0.00    -0.024 A 
BRANCH  11  15
ATOM     15  N   UNL     1       3.629   2.201  -0.253  0.00  0.00    +0.056 N 
ATOM     16  O   UNL     1       4.658   1.644  -0.557  0.00  0.00    -0.126 OA
ATOM     17  O   UNL     1       3.633   3.384  -0.005  0.00  0.00    -0.126 OA
ENDBRANCH  11  15
ENDBRANCH   1  14
BRANCH   5  18
ATOM     18  C   UNL     1      -3.116  -5.339  -0.434  0.00  0.00    +0.124 C 
BRANCH  18  19
ATOM     19  C   UNL     1      -3.434  -5.567  -1.914  0.00  0.00    +0.115 C 
BRANCH  19  20
ATOM     20  C   UNL     1      -4.534  -6.590  -2.039  0.00  0.00    +0.215 C 
ATOM     21  O   UNL     1      -5.016  -7.087  -1.043  0.00  0.00    -0.276 OA
ATOM     22  N   UNL     1      -4.981  -6.953  -3.258  0.00  0.00    -0.305 N 
ATOM     23  H   UNL     1      -4.596  -6.555  -4.054  0.00  0.00    +0.149 HD
BRANCH  22  24
ATOM     24  C   UNL     1      -6.050  -7.947  -3.380  0.00  0.00    +0.229 C 
BRANCH  24  25
ATOM     25  C   UNL     1      -6.363  -8.172  -4.836  0.00  0.00    +0.373 C 
ATOM     26  O   UNL     1      -5.750  -7.559  -5.693  0.00  0.00    -0.245 OA
ATOM     27  O   UNL     1      -7.229  -8.968  -5.158  0.00  0.00    -0.245 OA
ENDBRANCH  24  25
ENDBRANCH  22  24
ENDBRANCH  19  20
ENDBRANCH  18  19
ENDBRANCH   5  18
TORSDOF 7
