REMARK  Name = ZINC53345880
REMARK  7 active torsions:
REMARK  status: ('A' for Active; 'I' for Inactive)
REMARK    1  A    between atoms: C_1  and  C_2
REMARK    2  A    between atoms: C_2  and  O_3
REMARK    3  A    between atoms: O_3  and  C_4
REMARK    4  A    between atoms: C_5  and  N_11
REMARK    5  A    between atoms: C_12  and  C_14
REMARK    6  A    between atoms: C_14  and  N_15
REMARK    7  A    between atoms: C_21  and  C_24
REMARK                            x       y       z     vdW  Elec       q    Type
REMARK                         _______ _______ _______ _____ _____    ______ ____
ROOT
ATOM      1  C   UNL     1      -3.528  -1.849   3.575  0.00  0.00    +0.214 C 
ENDROOT
BRANCH   1   2
ATOM      2  N   UNL     1      -4.459  -2.821   4.154  0.00  0.00    -0.215 N 
ATOM      3  C   UNL     1      -5.407  -3.475   3.450  0.00  0.00    +0.247 C 
ATOM      4  O   UNL     1      -5.642  -3.373   2.265  0.00  0.00    -0.273 OA
ATOM      5  C   UNL     1      -6.113  -4.361   4.451  0.00  0.00    +0.113 C 
ATOM      6  C   UNL     1      -5.957  -5.828   4.066  0.00  0.00    +0.035 C 
ATOM      7  C   UNL     1      -6.652  -6.708   5.107  0.00  0.00    +0.006 C 
ATOM      8  C   UNL     1      -8.135  -6.337   5.178  0.00  0.00    -0.014 C 
ATOM      9  C   UNL     1      -8.276  -4.870   5.588  0.00  0.00    +0.006 C 
ATOM     10  C   UNL     1      -7.587  -3.982   4.549  0.00  0.00    +0.035 C 
ATOM     11  C   UNL     1      -8.834  -7.224   6.210  0.00  0.00    +0.007 C 
ATOM     12  N   UNL     1      -5.426  -4.085   5.719  0.00  0.00    -0.285 N 
ATOM     13  C   UNL     1      -4.470  -3.176   5.444  0.00  0.00    +0.310 C 
ATOM     14  O   UNL     1      -3.706  -2.727   6.276  0.00  0.00    -0.252 OA
ATOM     15  H   UNL     1      -5.619  -4.482   6.582  0.00  0.00    +0.151 HD
ENDBRANCH   1   2
BRANCH   1  17
ATOM     16  N   UNL     1      -1.288  -1.863   2.527  0.00  0.00    -0.281 N 
ATOM     17  C   UNL     1      -2.289  -2.561   3.098  0.00  0.00    +0.235 C 
ATOM     18  O   UNL     1      -2.193  -3.763   3.228  0.00  0.00    -0.274 OA
ATOM     19  H   UNL     1      -1.336  -0.895   2.481  0.00  0.00    +0.155 HD
BRANCH  16  21
ATOM     20  C   UNL     1       0.458  -2.046   0.859  0.00  0.00    +0.160 A 
ATOM     21  C   UNL     1      -0.177  -2.535   1.998  0.00  0.00    +0.077 A 
ATOM     22  C   UNL     1       0.292  -3.688   2.609  0.00  0.00    +0.027 A 
ATOM     23  C   UNL     1       1.388  -4.349   2.087  0.00  0.00    +0.003 A 
ATOM     24  C   UNL     1       2.019  -3.864   0.957  0.00  0.00    +0.024 A 
ATOM     25  C   UNL     1       1.552  -2.717   0.338  0.00  0.00    +0.084 A 
ATOM     26 CL   UNL     1       2.343  -2.116  -1.085  0.00  0.00    -0.080 Cl
BRANCH  20  27
ATOM     27  O   UNL     1       0.001  -0.915   0.257  0.00  0.00    -0.489 OA
BRANCH  27  29
ATOM     28  C   UNL     1      -1.379   0.294  -1.316  0.00  0.00    +0.048 C 
ATOM     29  C   UNL     1      -0.992  -1.077  -0.758  0.00  0.00    +0.226 C 
ENDBRANCH  27  29
ENDBRANCH  20  27
ENDBRANCH  16  21
ENDBRANCH   1  17
TORSDOF 5
