REMARK  Name = ZINC03659293
REMARK  9 active torsions:
REMARK  status: ('A' for Active; 'I' for Inactive)
REMARK    1  A    between atoms: C_1  and  C_2
REMARK    2  A    between atoms: C_2  and  O_3
REMARK    3  A    between atoms: O_3  and  C_4
REMARK    4  A    between atoms: C_8  and  C_11
REMARK    5  A    between atoms: C_9  and  O_10
REMARK    6  A    between atoms: N_15  and  C_19
REMARK    7  A    between atoms: C_19  and  C_20
REMARK    8  A    between atoms: N_22  and  C_23
REMARK    9  A    between atoms: C_27  and  C_29
REMARK                            x       y       z     vdW  Elec       q    Type
REMARK                         _______ _______ _______ _____ _____    ______ ____
ROOT
ATOM      1  C   UNL     1      -3.526  -4.227   0.044  0.00  0.00    +0.040 C 
ATOM      2  C   UNL     1      -3.844  -5.543  -0.044  0.00  0.00    +0.098 C 
ATOM      3  C   UNL     1      -2.917  -6.683  -0.114  0.00  0.00    +0.269 C 
ATOM      4  O   UNL     1      -1.700  -6.638  -0.104  0.00  0.00    -0.268 OA
ATOM      5  N   UNL     1      -3.685  -7.788  -0.191  0.00  0.00    -0.212 N 
ATOM      6  C   UNL     1      -4.982  -7.443  -0.175  0.00  0.00    +0.314 C 
ATOM      7  O   UNL     1      -5.905  -8.233  -0.232  0.00  0.00    -0.252 OA
ATOM      8  N   UNL     1      -5.125  -6.109  -0.083  0.00  0.00    -0.265 N 
ATOM      9  H   UNL     1      -5.965  -5.625  -0.051  0.00  0.00    +0.157 HD
ENDROOT
BRANCH   1  14
ATOM     10  C   UNL     1      -0.302  -2.358   0.546  0.00  0.00    +0.162 A 
ATOM     11  C   UNL     1       0.512  -2.989  -0.381  0.00  0.00    +0.049 A 
ATOM     12  C   UNL     1       0.016  -4.017  -1.165  0.00  0.00    +0.004 A 
ATOM     13  C   UNL     1      -1.293  -4.424  -1.032  0.00  0.00    +0.012 A 
ATOM     14  C   UNL     1      -2.130  -3.797  -0.101  0.00  0.00    +0.022 A 
ATOM     15  C   UNL     1      -1.624  -2.759   0.697  0.00  0.00    +0.166 A 
BRANCH  15  16
ATOM     16  O   UNL     1      -2.424  -2.146   1.607  0.00  0.00    -0.503 OA
ATOM     17  H   UNL     1      -2.904  -1.382   1.258  0.00  0.00    +0.292 HD
ENDBRANCH  15  16
BRANCH  10  18
ATOM     18  O   UNL     1       0.193  -1.349   1.311  0.00  0.00    -0.489 OA
BRANCH  18  20
ATOM     19  C   UNL     1       1.935   0.156   2.047  0.00  0.00    +0.048 C 
ATOM     20  C   UNL     1       1.560  -0.988   1.103  0.00  0.00    +0.226 C 
ENDBRANCH  18  20
ENDBRANCH  10  18
ENDBRANCH   1  14
BRANCH   5  21
ATOM     21  C   UNL     1      -3.180  -9.161  -0.278  0.00  0.00    +0.214 C 
BRANCH  21  22
ATOM     22  C   UNL     1      -3.015  -9.724   1.110  0.00  0.00    +0.235 C 
ATOM     23  O   UNL     1      -3.292  -9.046   2.077  0.00  0.00    -0.274 OA
ATOM     24  N   UNL     1      -2.560 -10.982   1.277  0.00  0.00    -0.284 N 
ATOM     25  H   UNL     1      -2.269 -11.498   0.509  0.00  0.00    +0.155 HD
BRANCH  24  26
ATOM     26  C   UNL     1      -2.507 -11.542   2.558  0.00  0.00    +0.034 A 
ATOM     27  C   UNL     1      -1.502 -12.445   2.881  0.00  0.00    +0.023 A 
ATOM     28  C   UNL     1      -1.452 -12.997   4.146  0.00  0.00    +0.002 A 
ATOM     29  C   UNL     1      -2.402 -12.651   5.090  0.00  0.00    +0.003 A 
ATOM     30  C   UNL     1      -3.404 -11.753   4.772  0.00  0.00    -0.049 A 
ATOM     31  C   UNL     1      -3.455 -11.193   3.510  0.00  0.00    +0.026 A 
ATOM     32  C   UNL     1      -4.436 -11.380   5.803  0.00  0.00    +0.044 C 
ENDBRANCH  24  26
ENDBRANCH  21  22
ENDBRANCH   5  21
TORSDOF 7
