REMARK  Name = ZINC47211745
REMARK  7 active torsions:
REMARK  status: ('A' for Active; 'I' for Inactive)
REMARK    1  A    between atoms: C_2  and  C_3
REMARK    2  A    between atoms: C_3  and  N_4
REMARK    3  A    between atoms: C_5  and  C_7
REMARK    4  A    between atoms: C_12  and  N_13
REMARK    5  A    between atoms: N_13  and  S_14
REMARK    6  A    between atoms: S_14  and  C_17
REMARK    7  A    between atoms: C_21  and  C_23
REMARK                            x       y       z     vdW  Elec       q    Type
REMARK                         _______ _______ _______ _____ _____    ______ ____
ROOT
ATOM      1  N   UNL     1       2.149   6.091   0.014  0.00  0.00    -0.097 NA
ENDROOT
BRANCH   1   7
ATOM      2  C   UNL     1       2.968   3.813  -0.006  0.00  0.00    +0.061 A 
ATOM      3  C   UNL     1       4.045   2.924  -0.027  0.00  0.00    +0.015 A 
ATOM      4  C   UNL     1       5.335   3.407  -0.036  0.00  0.00    +0.001 A 
ATOM      5  C   UNL     1       5.572   4.773  -0.025  0.00  0.00    +0.002 A 
ATOM      6  C   UNL     1       4.519   5.664  -0.004  0.00  0.00    +0.027 A 
ATOM      7  C   UNL     1       3.211   5.196  -0.001  0.00  0.00    +0.086 A 
BRANCH   2   9
ATOM      8  N   UNL     1       1.357   1.975  -0.000  0.00  0.00    -0.300 N 
ATOM      9  C   UNL     1       1.585   3.303   0.005  0.00  0.00    +0.247 C 
ATOM     10  O   UNL     1       0.650   4.081   0.018  0.00  0.00    -0.270 OA
ATOM     11  H   UNL     1       2.102   1.355  -0.011  0.00  0.00    +0.150 HD
BRANCH   8  12
ATOM     12  C   UNL     1      -0.018   1.468   0.010  0.00  0.00    +0.193 C 
BRANCH  12  14
ATOM     13  C   UNL     1       0.018  -1.178  -0.004  0.00  0.00    +0.005 C 
ATOM     14  C   UNL     1       0.002  -0.004   0.002  0.00  0.00    -0.087 C 
ENDBRANCH  12  14
ENDBRANCH   8  12
ENDBRANCH   2   9
ENDBRANCH   1   7
BRANCH   1  15
ATOM     15  S   UNL     1       2.440   7.721   0.020  0.00  0.00    +0.092 S 
ATOM     16  O   UNL     1       3.066   8.017   1.261  0.00  0.00    -0.148 OA
ATOM     17  O   UNL     1       3.042   8.031  -1.229  0.00  0.00    -0.148 OA
BRANCH  15  18
ATOM     18  C   UNL     1       0.875   8.530   0.040  0.00  0.00    +0.111 A 
ATOM     19  C   UNL     1       0.248   8.848  -1.154  0.00  0.00    +0.032 A 
ATOM     20  C   UNL     1      -0.980   9.482  -1.151  0.00  0.00    +0.041 A 
ATOM     21  C   UNL     1      -1.591   9.805   0.047  0.00  0.00    +0.138 A 
ATOM     22  C   UNL     1      -0.963   9.485   1.256  0.00  0.00    +0.100 A 
ATOM     23  C   UNL     1       0.277   8.839   1.242  0.00  0.00    +0.047 A 
ATOM     24  F   UNL     1      -2.791  10.426   0.050  0.00  0.00    -0.205 F 
BRANCH  22  25
ATOM     25  C   UNL     1      -1.606   9.825   2.538  0.00  0.00    +0.389 C 
ATOM     26  O   UNL     1      -1.054   9.544   3.593  0.00  0.00    -0.240 OA
ATOM     27  O   UNL     1      -2.692  10.387   2.547  0.00  0.00    -0.240 OA
ENDBRANCH  22  25
ENDBRANCH  15  18
ENDBRANCH   1  15
TORSDOF 7
