REMARK  Name = ZINC43212113
REMARK  9 active torsions:
REMARK  status: ('A' for Active; 'I' for Inactive)
REMARK    1  A    between atoms: C_1  and  C_2
REMARK    2  A    between atoms: C_2  and  C_3
REMARK    3  A    between atoms: C_3  and  C_4
REMARK    4  A    between atoms: C_4  and  N_5
REMARK    5  A    between atoms: C_10  and  C_24
REMARK    6  A    between atoms: C_13  and  C_18
REMARK    7  A    between atoms: C_13  and  C_21
REMARK    8  A    between atoms: C_18  and  C_19
REMARK    9  A    between atoms: C_18  and  C_20
REMARK                            x       y       z     vdW  Elec       q    Type
REMARK                         _______ _______ _______ _____ _____    ______ ____
ROOT
ATOM      1  N   UNL     1       0.257  -4.677  -2.577  0.00  0.00    -0.242 N 
ATOM      2  C   UNL     1      -0.029  -4.920  -3.897  0.00  0.00    +0.224 C 
ATOM      3  O   UNL     1      -1.105  -5.196  -4.383  0.00  0.00    -0.275 OA
ATOM      4  C   UNL     1       1.237  -4.775  -4.577  0.00  0.00    +0.077 C 
ATOM      5  C   UNL     1       1.772  -4.559  -5.929  0.00  0.00    -0.027 C 
ATOM      6  N   UNL     1       3.171  -4.068  -5.699  0.00  0.00    +0.396 N 
ATOM      7  C   UNL     1       3.353  -3.900  -4.221  0.00  0.00    +0.050 C 
ATOM      8  C   UNL     1       1.912  -3.609  -3.750  0.00  0.00    +0.086 C 
ATOM      9  C   UNL     1       1.490  -4.115  -2.398  0.00  0.00    +0.225 C 
ATOM     10  O   UNL     1       2.116  -4.042  -1.363  0.00  0.00    -0.275 OA
ATOM     11  H   UNL     1       3.833  -4.744  -6.051  0.00  0.00    -0.083 HD
ATOM     12  H   UNL     1       3.304  -3.183  -6.164  0.00  0.00    -0.083 HD
ENDROOT
BRANCH   5  13
ATOM     13  C   UNL     1       0.960  -3.520  -6.658  0.00  0.00    -0.060 A 
ATOM     14  C   UNL     1       1.178  -2.176  -6.413  0.00  0.00    +0.002 A 
ATOM     15  C   UNL     1       0.437  -1.220  -7.077  0.00  0.00    +0.009 A 
ATOM     16  C   UNL     1      -0.536  -1.608  -8.000  0.00  0.00    -0.014 A 
ATOM     17  C   UNL     1      -0.747  -2.963  -8.239  0.00  0.00    -0.035 A 
ATOM     18  C   UNL     1       0.001  -3.912  -7.575  0.00  0.00    +0.006 A 
ATOM     19  C   UNL     1      -1.844  -3.076  -9.270  0.00  0.00    +0.071 C 
ATOM     20  C   UNL     1      -2.249  -1.662  -9.605  0.00  0.00    -0.035 A 
ATOM     21  C   UNL     1      -1.460  -0.807  -8.840  0.00  0.00    -0.014 A 
ATOM     22  C   UNL     1      -1.633   0.573  -8.959  0.00  0.00    +0.009 A 
ATOM     23  C   UNL     1      -2.579   1.077  -9.827  0.00  0.00    +0.001 A 
ATOM     24  C   UNL     1      -3.358   0.220 -10.583  0.00  0.00    +0.000 A 
ATOM     25  C   UNL     1      -3.191  -1.150 -10.472  0.00  0.00    +0.004 A 
ENDBRANCH   5  13
BRANCH   7  26
ATOM     26  C   UNL     1       3.907  -5.180  -3.593  0.00  0.00    -0.017 C 
ATOM     27  C   UNL     1       5.019  -5.743  -4.480  0.00  0.00    +0.006 C 
ATOM     28  C   UNL     1       4.471  -4.865  -2.206  0.00  0.00    +0.006 C 
ENDBRANCH   7  26
BRANCH   7  29
ATOM     29  C   UNL     1       4.250  -2.726  -3.923  0.00  0.00    +0.346 C 
ATOM     30  O   UNL     1       4.736  -2.083  -4.838  0.00  0.00    -0.248 OA
ATOM     31  O   UNL     1       4.490  -2.420  -2.768  0.00  0.00    -0.248 OA
ENDBRANCH   7  29
BRANCH   1  32
ATOM     32  C   UNL     1      -0.663  -4.981  -1.478  0.00  0.00    +0.116 C 
BRANCH  32  33
ATOM     33  C   UNL     1      -1.564  -3.772  -1.218  0.00  0.00    +0.019 C 
BRANCH  33  35
ATOM     34  C   UNL     1      -3.426  -2.880   0.189  0.00  0.00    +0.004 C 
ATOM     35  C   UNL     1      -2.525  -4.089  -0.071  0.00  0.00    -0.002 C 
ENDBRANCH  33  35
ENDBRANCH  32  33
ENDBRANCH   1  32
TORSDOF 6
