REMARK  Name = ZINC20898958
REMARK  5 active torsions:
REMARK  status: ('A' for Active; 'I' for Inactive)
REMARK    1  A    between atoms: C_1  and  C_2
REMARK    2  A    between atoms: C_2  and  O_3
REMARK    3  A    between atoms: O_3  and  C_4
REMARK    4  A    between atoms: C_9  and  C_10
REMARK    5  A    between atoms: N_22  and  C_25
REMARK                            x       y       z     vdW  Elec       q    Type
REMARK                         _______ _______ _______ _____ _____    ______ ____
ROOT
ATOM      1  C   UNL     1       2.055  -1.434   3.442  0.00  0.00    +0.112 C 
ATOM      2  C   UNL     1       0.982  -0.979   4.460  0.00  0.00    +0.078 C 
ATOM      3  C   UNL     1       1.760  -0.969   5.764  0.00  0.00    +0.038 C 
ATOM      4  N   UNL     1       2.905  -1.650   5.569  0.00  0.00    -0.283 N 
ATOM      5  N   UNL     1       3.011  -2.162   4.309  0.00  0.00    -0.235 NA
ATOM      6  C   UNL     1       1.362  -0.367   6.943  0.00  0.00    +0.117 C 
ATOM      7  C   UNL     1       0.079   0.351   7.046  0.00  0.00    +0.256 C 
ATOM      8  N   UNL     1      -0.243   0.914   8.229  0.00  0.00    -0.263 N 
ATOM      9  H   UNL     1      -1.084   1.391   8.313  0.00  0.00    +0.157 HD
ATOM     10  C   UNL     1       0.572   0.831   9.290  0.00  0.00    +0.146 C 
ATOM     11  S   UNL     1       0.080   1.577  10.750  0.00  0.00    -0.018 S 
ATOM     12  N   UNL     1       1.751   0.195   9.268  0.00  0.00    -0.252 N 
ATOM     13  C   UNL     1       2.200  -0.420   8.155  0.00  0.00    +0.258 C 
ATOM     14  O   UNL     1       3.270  -1.000   8.149  0.00  0.00    -0.269 OA
ATOM     15  C   UNL     1       2.568   0.161  10.483  0.00  0.00    +0.140 C 
ATOM     16  O   UNL     1      -0.669   0.434   6.090  0.00  0.00    -0.270 OA
ATOM     17  H   UNL     1       2.821  -3.153   4.304  0.00  0.00    +0.145 HD
ATOM     18  H   UNL     1       3.583  -1.764   6.252  0.00  0.00    +0.166 HD
ENDROOT
BRANCH   1  24
ATOM     19  C   UNL     1       1.027  -1.842   1.192  0.00  0.00    +0.125 A 
ATOM     20  C   UNL     1       0.485  -2.691   0.238  0.00  0.00    +0.046 A 
ATOM     21  C   UNL     1       0.372  -4.042   0.502  0.00  0.00    +0.004 A 
ATOM     22  C   UNL     1       0.799  -4.548   1.716  0.00  0.00    +0.001 A 
ATOM     23  C   UNL     1       1.340  -3.704   2.668  0.00  0.00    +0.009 A 
ATOM     24  C   UNL     1       1.460  -2.353   2.406  0.00  0.00    +0.013 A 
BRANCH  19  25
ATOM     25  O   UNL     1       1.140  -0.512   0.934  0.00  0.00    -0.492 OA
BRANCH  25  27
ATOM     26  C   UNL     1       0.881   1.456  -0.445  0.00  0.00    +0.048 C 
ATOM     27  C   UNL     1       0.673  -0.056  -0.338  0.00  0.00    +0.225 C 
ENDBRANCH  25  27
ENDBRANCH  19  25
ENDBRANCH   1  24
TORSDOF 3
