REMARK  Name = ZINC49587405
REMARK  9 active torsions:
REMARK  status: ('A' for Active; 'I' for Inactive)
REMARK    1  A    between atoms: C_1  and  C_2
REMARK    2  A    between atoms: C_2  and  C_4
REMARK    3  A    between atoms: C_2  and  N_14
REMARK    4  A    between atoms: C_7  and  C_10
REMARK    5  A    between atoms: C_11  and  C_12
REMARK    6  A    between atoms: C_12  and  N_13
REMARK    7  A    between atoms: N_17  and  C_18
REMARK    8  A    between atoms: C_18  and  C_19
REMARK    9  A    between atoms: C_18  and  C_20
REMARK                            x       y       z     vdW  Elec       q    Type
REMARK                         _______ _______ _______ _____ _____    ______ ____
ROOT
ATOM      1  C   UNL     1       0.731  -0.503   1.223  0.00  0.00    -0.027 A 
ATOM      2  C   UNL     1       2.114  -0.512   1.244  0.00  0.00    +0.006 A 
ATOM      3  C   UNL     1       2.788  -0.968   2.358  0.00  0.00    +0.017 A 
ATOM      4  C   UNL     1       2.070  -1.420   3.467  0.00  0.00    +0.025 A 
ATOM      5  C   UNL     1       0.675  -1.408   3.439  0.00  0.00    +0.017 A 
ATOM      6  C   UNL     1       0.014  -0.945   2.320  0.00  0.00    +0.006 A 
ENDROOT
BRANCH   1   8
ATOM      7  C   UNL     1      -0.019   1.526   0.010  0.00  0.00    +0.033 C 
ATOM      8  C   UNL     1       0.002  -0.004   0.002  0.00  0.00    +0.102 C 
BRANCH   8   9
ATOM      9  N   UNL     1       0.688  -0.476  -1.203  0.00  0.00    -0.293 N 
ATOM     10  C   UNL     1       0.006  -0.608  -2.358  0.00  0.00    +0.300 C 
ATOM     11  O   UNL     1      -1.178  -0.335  -2.400  0.00  0.00    -0.253 OA
ATOM     12  N   UNL     1       0.637  -1.043  -3.467  0.00  0.00    -0.297 N 
ATOM     13  H   UNL     1       1.632  -0.695  -1.170  0.00  0.00    +0.151 HD
ATOM     14  H   UNL     1       1.582  -1.261  -3.434  0.00  0.00    +0.150 HD
BRANCH  12  15
ATOM     15  C   UNL     1      -0.104  -1.186  -4.723  0.00  0.00    +0.068 C 
ATOM     16  C   UNL     1      -0.141   0.160  -5.449  0.00  0.00    +0.027 C 
ATOM     17  C   UNL     1       0.589  -2.224  -5.608  0.00  0.00    +0.027 C 
ENDBRANCH  12  15
ENDBRANCH   8   9
ENDBRANCH   1   8
BRANCH   4  18
ATOM     18  C   UNL     1       2.763  -1.894   4.627  0.00  0.00    -0.068 C 
ATOM     19  C   UNL     1       3.331  -2.283   5.578  0.00  0.00    -0.117 C 
BRANCH  19  20
ATOM     20  C   UNL     1       4.043  -2.771   6.770  0.00  0.00    +0.005 C 
BRANCH  20  21
ATOM     21  N   UNL     1       3.067  -3.185   7.788  0.00  0.00    +0.385 N 
ATOM     22  H   UNL     1       2.489  -2.398   8.040  0.00  0.00    -0.089 HD
ATOM     23  H   UNL     1       2.488  -3.923   7.417  0.00  0.00    -0.089 HD
ATOM     24  H   UNL     1       3.555  -3.519   8.605  0.00  0.00    -0.089 HD
ENDBRANCH  20  21
ENDBRANCH  19  20
ENDBRANCH   4  18
TORSDOF 6
