REMARK  Name = ZINC12557261
REMARK  6 active torsions:
REMARK  status: ('A' for Active; 'I' for Inactive)
REMARK    1  A    between atoms: C_4  and  N_18
REMARK    2  A    between atoms: C_5  and  N_7
REMARK    3  A    between atoms: N_7  and  S_8
REMARK    4  A    between atoms: S_8  and  C_11
REMARK    5  A    between atoms: N_18  and  S_19
REMARK    6  A    between atoms: S_19  and  C_22
REMARK                            x       y       z     vdW  Elec       q    Type
REMARK                         _______ _______ _______ _____ _____    ______ ____
ROOT
ATOM      1  C   UNL     1      -3.839   3.804   4.182  0.00  0.00    +0.002 A 
ATOM      2  C   UNL     1      -4.216   3.890   2.855  0.00  0.00    +0.002 A 
ATOM      3  C   UNL     1      -3.934   2.854   1.983  0.00  0.00    +0.026 A 
ATOM      4  C   UNL     1      -3.271   1.725   2.439  0.00  0.00    +0.070 A 
ATOM      5  C   UNL     1      -2.895   1.636   3.779  0.00  0.00    +0.070 A 
ATOM      6  C   UNL     1      -3.177   2.681   4.645  0.00  0.00    +0.026 A 
ENDROOT
BRANCH   5   7
ATOM      7  N   UNL     1      -2.230   0.496   4.248  0.00  0.00    -0.214 N 
ATOM      8  H   UNL     1      -1.598   0.034   3.675  0.00  0.00    +0.174 HD
BRANCH   7   9
ATOM      9  S   UNL     1      -2.523  -0.063   5.779  0.00  0.00    +0.072 S 
ATOM     10  O   UNL     1      -1.812  -1.286   5.907  0.00  0.00    -0.150 OA
ATOM     11  O   UNL     1      -2.317   1.034   6.658  0.00  0.00    -0.150 OA
BRANCH   9  12
ATOM     12  C   UNL     1      -4.236  -0.465   5.867  0.00  0.00    +0.109 A 
ATOM     13  C   UNL     1      -5.150   0.492   6.269  0.00  0.00    +0.031 A 
ATOM     14  C   UNL     1      -6.495   0.179   6.334  0.00  0.00    +0.040 A 
ATOM     15  C   UNL     1      -6.925  -1.095   6.008  0.00  0.00    +0.124 A 
ATOM     16  C   UNL     1      -6.008  -2.054   5.611  0.00  0.00    +0.040 A 
ATOM     17  C   UNL     1      -4.665  -1.738   5.541  0.00  0.00    +0.031 A 
ATOM     18  F   UNL     1      -8.239  -1.403   6.076  0.00  0.00    -0.205 F 
ENDBRANCH   9  12
ENDBRANCH   7   9
ENDBRANCH   5   7
BRANCH   4  19
ATOM     19  N   UNL     1      -2.984   0.676   1.558  0.00  0.00    -0.214 N 
ATOM     20  H   UNL     1      -3.016  -0.242   1.870  0.00  0.00    +0.174 HD
BRANCH  19  21
ATOM     21  S   UNL     1      -2.590   1.001  -0.017  0.00  0.00    +0.073 S 
ATOM     22  O   UNL     1      -3.629   1.820  -0.535  0.00  0.00    -0.150 OA
ATOM     23  O   UNL     1      -2.230  -0.239  -0.610  0.00  0.00    -0.150 OA
BRANCH  21  24
ATOM     24  C   UNL     1      -1.132   1.990   0.004  0.00  0.00    +0.112 A 
ATOM     25  C   UNL     1      -1.236   3.369   0.054  0.00  0.00    +0.031 A 
ATOM     26  C   UNL     1      -0.098   4.152   0.066  0.00  0.00    +0.031 A 
ATOM     27  C   UNL     1       1.152   3.552   0.033  0.00  0.00    +0.087 A 
ATOM     28  C   UNL     1       1.258   2.162  -0.012  0.00  0.00    +0.159 A 
ATOM     29  C   UNL     1       0.110   1.385  -0.023  0.00  0.00    +0.077 A 
ATOM     30  O   UNL     1       2.579   1.860  -0.037  0.00  0.00    -0.408 OA
ATOM     31  C   UNL     1       3.292   2.997  -0.009  0.00  0.00    +0.419 A 
ATOM     32  O   UNL     1       4.506   3.065  -0.021  0.00  0.00    -0.223 OA
ATOM     33  N   UNL     1       2.454   4.051   0.034  0.00  0.00    -0.288 N 
ATOM     34  H   UNL     1       2.710   4.987   0.061  0.00  0.00    +0.172 HD
ENDBRANCH  21  24
ENDBRANCH  19  21
ENDBRANCH   4  19
TORSDOF 6
