REMARK  Name = ZINC04240988
REMARK  3 active torsions:
REMARK  status: ('A' for Active; 'I' for Inactive)
REMARK    1  A    between atoms: C_6  and  C_7
REMARK    2  A    between atoms: C_7  and  C_8
REMARK    3  A    between atoms: C_8  and  C_12
REMARK                            x       y       z     vdW  Elec       q    Type
REMARK                         _______ _______ _______ _____ _____    ______ ____
ROOT
ATOM      1  C   UNL     1      -0.729   1.579   1.267  0.00  0.00    +0.039 C 
ATOM      2  C   UNL     1       0.076   1.181   2.518  0.00  0.00    -0.003 C 
ATOM      3  C   UNL     1       0.414   2.515   3.222  0.00  0.00    -0.020 C 
ATOM      4  C   UNL     1      -0.665   3.481   2.670  0.00  0.00    -0.081 C 
ATOM      5  N   UNL     1      -0.806   3.041   1.275  0.00  0.00    +0.390 N 
ATOM      6  H   UNL     1      -1.712   3.346   0.901  0.00  0.00    -0.084 HD
ATOM      7  H   UNL     1      -0.050   3.436   0.704  0.00  0.00    -0.084 HD
ENDROOT
BRANCH   1   8
ATOM      8  C   UNL     1      -2.112   0.986   1.336  0.00  0.00    +0.346 C 
ATOM      9  O   UNL     1      -2.309  -0.014   1.985  0.00  0.00    -0.248 OA
ATOM     10  O   UNL     1      -3.126   1.569   0.677  0.00  0.00    -0.248 OA
ENDBRANCH   1   8
BRANCH   1  11
ATOM     11  C   UNL     1      -0.013   1.086   0.008  0.00  0.00    +0.034 C 
BRANCH  11  17
ATOM     12  C   UNL     1      -1.750   0.824  -1.775  0.00  0.00    +0.005 A 
ATOM     13  C   UNL     1      -2.422   1.284  -2.891  0.00  0.00    +0.020 A 
ATOM     14  C   UNL     1      -2.079   2.501  -3.453  0.00  0.00    +0.041 A 
ATOM     15  C   UNL     1      -1.066   3.259  -2.894  0.00  0.00    +0.020 A 
ATOM     16  C   UNL     1      -0.398   2.801  -1.774  0.00  0.00    +0.005 A 
ATOM     17  C   UNL     1      -0.742   1.585  -1.213  0.00  0.00    -0.048 A 
ATOM     18 CL   UNL     1      -2.919   3.076  -4.859  0.00  0.00    -0.084 Cl
ENDBRANCH  11  17
ENDBRANCH   1  11
TORSDOF 3
