REMARK  Name = ZINC15053728
REMARK  5 active torsions:
REMARK  status: ('A' for Active; 'I' for Inactive)
REMARK    1  A    between atoms: C_3  and  O_25
REMARK    2  A    between atoms: C_6  and  C_7
REMARK    3  A    between atoms: N_11  and  C_15
REMARK    4  A    between atoms: C_18  and  S_21
REMARK    5  A    between atoms: S_21  and  N_24
REMARK                            x       y       z     vdW  Elec       q    Type
REMARK                         _______ _______ _______ _____ _____    ______ ____
ROOT
ATOM      1  C   UNL     1       4.830   3.721   0.009  0.00  0.00    +0.028 C 
ATOM      2  C   UNL     1       5.531   3.893   1.157  0.00  0.00    +0.078 C 
ATOM      3  C   UNL     1       6.793   4.623   1.383  0.00  0.00    +0.263 C 
ATOM      4  O   UNL     1       7.372   5.188   0.473  0.00  0.00    -0.269 OA
ATOM      5  N   UNL     1       7.267   4.637   2.617  0.00  0.00    -0.215 N 
ATOM      6  C   UNL     1       6.592   3.990   3.635  0.00  0.00    +0.165 C 
ATOM      7  N   UNL     1       6.915   3.905   4.896  0.00  0.00    -0.279 NA
ATOM      8  S   UNL     1       5.168   3.304   2.805  0.00  0.00    -0.049 S 
ATOM      9  H   UNL     1       6.346   3.415   5.510  0.00  0.00    +0.189 HD
ENDROOT
BRANCH   1  15
ATOM     10  C   UNL     1       2.801   3.003   1.253  0.00  0.00    +0.011 A 
ATOM     11  C   UNL     1       1.557   2.413   1.281  0.00  0.00    +0.046 A 
ATOM     12  C   UNL     1       1.000   1.905   0.113  0.00  0.00    +0.117 A 
ATOM     13  C   UNL     1       1.696   1.984  -1.087  0.00  0.00    +0.046 A 
ATOM     14  C   UNL     1       2.938   2.577  -1.128  0.00  0.00    +0.011 A 
ATOM     15  C   UNL     1       3.504   3.091   0.045  0.00  0.00    -0.024 A 
BRANCH  12  16
ATOM     16  O   UNL     1      -0.227   1.323   0.147  0.00  0.00    -0.507 OA
ATOM     17  H   UNL     1      -0.958   1.938  -0.005  0.00  0.00    +0.292 HD
ENDBRANCH  12  16
ENDBRANCH   1  15
BRANCH   5  18
ATOM     18  C   UNL     1       8.462   5.314   2.895  0.00  0.00    +0.044 A 
ATOM     19  C   UNL     1       9.666   4.832   2.397  0.00  0.00    +0.026 A 
ATOM     20  C   UNL     1      10.842   5.504   2.669  0.00  0.00    +0.030 A 
ATOM     21  C   UNL     1      10.822   6.649   3.444  0.00  0.00    +0.105 A 
ATOM     22  C   UNL     1       9.626   7.128   3.946  0.00  0.00    +0.030 A 
ATOM     23  C   UNL     1       8.446   6.463   3.673  0.00  0.00    +0.026 A 
BRANCH  21  24
ATOM     24  S   UNL     1      12.325   7.499   3.795  0.00  0.00    +0.056 S 
ATOM     25  O   UNL     1      13.236   7.157   2.759  0.00  0.00    -0.153 OA
ATOM     26  O   UNL     1      11.973   8.844   4.086  0.00  0.00    -0.153 OA
BRANCH  24  27
ATOM     27  N   UNL     1      12.937   6.856   5.193  0.00  0.00    -0.204 NA
ATOM     28  H   UNL     1      12.461   6.143   5.648  0.00  0.00    +0.144 HD
ATOM     29  H   UNL     1      13.770   7.193   5.558  0.00  0.00    +0.144 HD
ENDBRANCH  24  27
ENDBRANCH  21  24
ENDBRANCH   5  18
TORSDOF 5
