REMARK  Name = ZINC05566553
REMARK  1 active torsions:
REMARK  status: ('A' for Active; 'I' for Inactive)
REMARK    1  A    between atoms: N_7  and  C_8
REMARK                            x       y       z     vdW  Elec       q    Type
REMARK                         _______ _______ _______ _____ _____    ______ ____
ROOT
ATOM      1  C   UNL     1      -1.355   4.637   0.038  0.00  0.00    +0.095 C 
ATOM      2  C   UNL     1      -0.679   5.835   0.142  0.00  0.00    +0.113 C 
ATOM      3  C   UNL     1       0.795   5.891   0.138  0.00  0.00    +0.258 C 
ATOM      4  O   UNL     1       1.458   4.875   0.043  0.00  0.00    -0.270 OA
ATOM      5  N   UNL     1       1.388   7.098   0.238  0.00  0.00    -0.236 N 
ATOM      6  C   UNL     1       0.669   8.224   0.350  0.00  0.00    +0.313 C 
ATOM      7  O   UNL     1       1.264   9.280   0.441  0.00  0.00    -0.252 OA
ATOM      8  N   UNL     1      -0.671   8.249   0.366  0.00  0.00    -0.236 N 
ATOM      9  C   UNL     1      -1.398   7.117   0.269  0.00  0.00    +0.258 C 
ATOM     10  O   UNL     1      -2.614   7.152   0.284  0.00  0.00    -0.270 OA
ATOM     11  H   UNL     1       2.485   7.175   0.229  0.00  0.00    +0.159 HD
ATOM     12  H   UNL     1      -1.203   9.207   0.461  0.00  0.00    +0.159 HD
ENDROOT
BRANCH   1  19
ATOM     13  C   UNL     1       0.504   3.254   1.061  0.00  0.00    +0.208 C 
ATOM     14  C   UNL     1       0.424   1.909   1.755  0.00  0.00    +0.236 C 
ATOM     15  O   UNL     1       1.341   1.275   2.231  0.00  0.00    -0.274 OA
ATOM     16  N   UNL     1      -0.879   1.567   1.737  0.00  0.00    -0.266 N 
ATOM     17  C   UNL     1      -1.625   2.497   1.131  0.00  0.00    +0.144 C 
ATOM     18  S   UNL     1      -3.322   2.378   0.936  0.00  0.00    -0.018 S 
ATOM     19  N   UNL     1      -0.894   3.537   0.692  0.00  0.00    -0.279 N 
ATOM     20  H   UNL     1      -1.205   0.619   2.190  0.00  0.00    +0.157 HD
ENDBRANCH   1  19
TORSDOF 1
