REMARK  Name = ZINC42210980
REMARK  4 active torsions:
REMARK  status: ('A' for Active; 'I' for Inactive)
REMARK    1  A    between atoms: C_1  and  C_2
REMARK    2  A    between atoms: C_2  and  C_4
REMARK    3  A    between atoms: C_2  and  N_11
REMARK    4  A    between atoms: C_12  and  C_14
REMARK                            x       y       z     vdW  Elec       q    Type
REMARK                         _______ _______ _______ _____ _____    ______ ____
ROOT
ATOM      1  N   UNL     1       0.688  -0.476  -1.203  0.00  0.00    -0.304 N 
ATOM      2  C   UNL     1       0.006  -0.608  -2.358  0.00  0.00    +0.262 C 
ATOM      3  O   UNL     1      -1.179  -0.335  -2.400  0.00  0.00    -0.269 OA
ATOM      4  H   UNL     1       1.632  -0.695  -1.170  0.00  0.00    +0.150 HD
ENDROOT
BRANCH   2   5
ATOM      5  C   UNL     1       0.693  -1.081  -3.565  0.00  0.00    +0.122 A 
ATOM      6  C   UNL     1       1.996  -1.425  -3.663  0.00  0.00    +0.118 A 
ATOM      7  N   UNL     1       2.233  -1.811  -4.956  0.00  0.00    -0.312 N 
ATOM      8  H   UNL     1       3.086  -2.110  -5.310  0.00  0.00    +0.170 HD
ATOM      9  C   UNL     1       1.087  -1.707  -5.655  0.00  0.00    +0.325 A 
ATOM     10  O   UNL     1       0.947  -1.972  -6.835  0.00  0.00    -0.247 OA
ATOM     11  N   UNL     1       0.119  -1.266  -4.827  0.00  0.00    -0.303 N 
ATOM     12  H   UNL     1      -0.807  -1.104  -5.064  0.00  0.00    +0.171 HD
ENDBRANCH   2   5
BRANCH   1  14
ATOM     13  C   UNL     1      -0.019   1.526   0.010  0.00  0.00    +0.033 C 
ATOM     14  C   UNL     1       0.002  -0.004   0.002  0.00  0.00    +0.100 C 
BRANCH  14  15
ATOM     15  C   UNL     1       0.731  -0.503   1.223  0.00  0.00    -0.027 A 
ATOM     16  C   UNL     1       2.113  -0.514   1.246  0.00  0.00    +0.006 A 
ATOM     17  C   UNL     1       2.782  -0.971   2.366  0.00  0.00    +0.015 A 
ATOM     18  C   UNL     1       2.068  -1.418   3.463  0.00  0.00    +0.018 A 
ATOM     19  C   UNL     1       0.685  -1.408   3.439  0.00  0.00    +0.015 A 
ATOM     20  C   UNL     1       0.017  -0.945   2.321  0.00  0.00    +0.006 A 
ATOM     21 BR   UNL     1       2.983  -2.045   4.995  0.00  0.00    -0.050 Br
ENDBRANCH  14  15
ENDBRANCH   1  14
TORSDOF 3
