REMARK  Name = ZINC41484613
REMARK  4 active torsions:
REMARK  status: ('A' for Active; 'I' for Inactive)
REMARK    1  A    between atoms: C_1  and  N_2
REMARK    2  A    between atoms: N_2  and  C_3
REMARK    3  A    between atoms: C_11  and  C_13
REMARK    4  A    between atoms: C_18  and  N_19
REMARK                            x       y       z     vdW  Elec       q    Type
REMARK                         _______ _______ _______ _____ _____    ______ ____
ROOT
ATOM      1  C   UNL     1       0.058   1.294  -0.030  0.00  0.00    +0.138 C 
ATOM      2  N   UNL     1       0.002  -0.168  -0.106  0.00  0.00    -0.270 N 
ATOM      3  C   UNL     1      -0.173  -0.775  -1.297  0.00  0.00    +0.252 C 
ATOM      4  O   UNL     1      -0.334  -1.979  -1.348  0.00  0.00    -0.270 OA
ENDROOT
BRANCH   2   5
ATOM      5  C   UNL     1       0.131  -0.934   1.057  0.00  0.00    +0.038 A 
ATOM      6  C   UNL     1       0.252  -2.316   0.970  0.00  0.00    +0.025 A 
ATOM      7  C   UNL     1       0.379  -3.070   2.120  0.00  0.00    +0.023 A 
ATOM      8  C   UNL     1       0.386  -2.452   3.358  0.00  0.00    +0.059 A 
ATOM      9  C   UNL     1       0.265  -1.076   3.448  0.00  0.00    +0.061 A 
ATOM     10  C   UNL     1       0.142  -0.315   2.300  0.00  0.00    +0.045 A 
ATOM     11 CL   UNL     1       0.273  -0.304   5.003  0.00  0.00    -0.082 Cl
ATOM     12 CL   UNL     1       0.545  -3.404   4.801  0.00  0.00    -0.082 Cl
ENDBRANCH   2   5
BRANCH   3  13
ATOM     13  C   UNL     1      -0.169   0.021  -2.538  0.00  0.00    +0.058 A 
ATOM     14  C   UNL     1       0.905   0.867  -2.827  0.00  0.00    +0.015 A 
ATOM     15  C   UNL     1       0.902   1.608  -3.988  0.00  0.00    +0.001 A 
ATOM     16  C   UNL     1      -0.161   1.521  -4.873  0.00  0.00    +0.002 A 
ATOM     17  C   UNL     1      -1.229   0.691  -4.601  0.00  0.00    +0.023 A 
ATOM     18  C   UNL     1      -1.242  -0.069  -3.438  0.00  0.00    +0.037 A 
BRANCH  18  19
ATOM     19  N   UNL     1      -2.313  -0.910  -3.166  0.00  0.00    -0.357 N 
ATOM     20  H   UNL     1      -2.357  -1.380  -2.318  0.00  0.00    +0.142 HD
ATOM     21  H   UNL     1      -3.018  -1.027  -3.822  0.00  0.00    +0.142 HD
ENDBRANCH  18  19
ENDBRANCH   3  13
TORSDOF 3
