REMARK  Name = ZINC43756883
REMARK  4 active torsions:
REMARK  status: ('A' for Active; 'I' for Inactive)
REMARK    1  A    between atoms: C_1  and  C_2
REMARK    2  A    between atoms: C_12  and  O_15
REMARK    3  A    between atoms: C_17  and  O_28
REMARK    4  A    between atoms: C_21  and  C_27
REMARK                            x       y       z     vdW  Elec       q    Type
REMARK                         _______ _______ _______ _____ _____    ______ ____
ROOT
ATOM      1  C   UNL     1      -0.019   1.523   0.010  0.00  0.00    +0.011 C 
ATOM      2  C   UNL     1       0.002  -0.004   0.002  0.00  0.00    -0.027 C 
ATOM      3  C   UNL     1      -1.389  -0.588   0.011  0.00  0.00    +0.007 C 
ATOM      4  C   UNL     1      -1.992  -0.598   1.420  0.00  0.00    +0.005 C 
ATOM      5  C   UNL     1      -1.169   0.176   2.430  0.00  0.00    -0.001 C 
ATOM      6  C   UNL     1       0.271  -0.332   2.500  0.00  0.00    -0.001 C 
ATOM      7  C   UNL     1       0.831  -0.619   1.147  0.00  0.00    +0.001 C 
ATOM      8  C   UNL     1       2.248  -0.144   0.825  0.00  0.00    +0.035 C 
ATOM      9  C   UNL     1       2.311  -0.214  -0.723  0.00  0.00    +0.115 C 
ATOM     10  C   UNL     1       0.858  -0.455  -1.211  0.00  0.00    +0.038 C 
ATOM     11  C   UNL     1       1.094   0.660   3.318  0.00  0.00    +0.035 C 
ATOM     12  C   UNL     1       0.550   0.659   4.750  0.00  0.00    +0.119 C 
ATOM     13  C   UNL     1      -0.936   0.988   4.771  0.00  0.00    +0.031 C 
ATOM     14  C   UNL     1      -1.772   0.112   3.844  0.00  0.00    -0.023 C 
ATOM     15  C   UNL     1      -1.829  -1.335   4.315  0.00  0.00    +0.015 C 
ATOM     16  C   UNL     1      -2.413  -1.431   5.726  0.00  0.00    +0.075 C 
ATOM     17  C   UNL     1      -1.654  -0.494   6.636  0.00  0.00    +0.134 C 
ATOM     18  O   UNL     1      -1.209  -0.887   7.691  0.00  0.00    -0.297 OA
ATOM     19  C   UNL     1      -1.464   0.940   6.205  0.00  0.00    +0.081 C 
ATOM     20  C   UNL     1      -3.198   0.687   3.781  0.00  0.00    +0.012 C 
ENDROOT
BRANCH   9  21
ATOM     21  O   UNL     1       2.816   1.013  -1.253  0.00  0.00    -0.392 OA
ATOM     22  H   UNL     1       3.714   1.226  -0.965  0.00  0.00    +0.210 HD
ENDBRANCH   9  21
BRANCH  12  23
ATOM     23  O   UNL     1       0.800  -0.607   5.360  0.00  0.00    -0.391 OA
ATOM     24  H   UNL     1       1.737  -0.839   5.413  0.00  0.00    +0.210 HD
ENDBRANCH  12  23
TORSDOF 2
