REMARK  Name = ZINC53165121
REMARK  4 active torsions:
REMARK  status: ('A' for Active; 'I' for Inactive)
REMARK    1  A    between atoms: C_1  and  C_2
REMARK    2  A    between atoms: N_5  and  C_11
REMARK    3  A    between atoms: C_6  and  C_10
REMARK    4  A    between atoms: C_12  and  N_19
REMARK                            x       y       z     vdW  Elec       q    Type
REMARK                         _______ _______ _______ _____ _____    ______ ____
ROOT
ATOM      1  C   UNL     1      -2.097  -2.851  -0.660  0.00  0.00    +0.090 A 
ATOM      2  C   UNL     1      -3.408  -3.214  -0.358  0.00  0.00    +0.049 A 
ATOM      3  C   UNL     1      -4.104  -4.060  -1.207  0.00  0.00    +0.027 A 
ATOM      4  C   UNL     1      -3.497  -4.545  -2.352  0.00  0.00    +0.043 A 
ATOM      5  C   UNL     1      -2.195  -4.187  -2.653  0.00  0.00    +0.160 A 
ATOM      6  C   UNL     1      -1.495  -3.336  -1.812  0.00  0.00    +0.181 A 
ATOM      7  F   UNL     1      -0.225  -2.983  -2.112  0.00  0.00    -0.200 F 
ATOM      8  F   UNL     1      -1.607  -4.664  -3.772  0.00  0.00    -0.202 F 
ENDROOT
BRANCH   1  12
ATOM      9  C   UNL     1      -0.019   1.526   0.010  0.00  0.00    +0.039 C 
ATOM     10  C   UNL     1       0.002  -0.004   0.002  0.00  0.00    +0.132 C 
ATOM     11  C   UNL     1      -1.436  -0.536   0.015  0.00  0.00    +0.137 C 
ATOM     12  N   UNL     1      -1.389  -1.995   0.196  0.00  0.00    -0.319 N 
ATOM     13  C   UNL     1      -0.578  -2.530   1.302  0.00  0.00    +0.096 C 
ATOM     14  C   UNL     1       0.818  -1.901   1.226  0.00  0.00    +0.182 C 
ATOM     15  O   UNL     1       0.691  -0.479   1.161  0.00  0.00    -0.373 OA
ATOM     16  C   UNL     1      -1.232  -2.175   2.639  0.00  0.00    +0.030 C 
ENDBRANCH   1  12
BRANCH   2  17
ATOM     17  N   UNL     1      -4.023  -2.723   0.803  0.00  0.00    -0.356 N 
ATOM     18  H   UNL     1      -3.535  -2.131   1.396  0.00  0.00    +0.142 HD
ATOM     19  H   UNL     1      -4.936  -2.976   1.012  0.00  0.00    +0.142 HD
ENDBRANCH   2  17
TORSDOF 2
