REMARK  Name = ZINC58135687
REMARK  6 active torsions:
REMARK  status: ('A' for Active; 'I' for Inactive)
REMARK    1  A    between atoms: C_1  and  C_2
REMARK    2  A    between atoms: C_2  and  C_4
REMARK    3  A    between atoms: C_2  and  N_12
REMARK    4  A    between atoms: N_12  and  C_13
REMARK    5  A    between atoms: C_13  and  C_14
REMARK    6  A    between atoms: N_19  and  C_20
REMARK                            x       y       z     vdW  Elec       q    Type
REMARK                         _______ _______ _______ _____ _____    ______ ____
ROOT
ATOM      1  C   UNL     1       0.503  -1.039  -3.563  0.00  0.00    +0.234 C 
ATOM      2  O   UNL     1       1.686  -1.296  -3.492  0.00  0.00    -0.274 OA
ATOM      3  N   UNL     1      -0.149  -1.184  -4.734  0.00  0.00    -0.239 N 
ATOM      4  C   UNL     1       0.514  -1.614  -5.826  0.00  0.00    +0.310 C 
ATOM      5  O   UNL     1       1.700  -1.871  -5.755  0.00  0.00    -0.252 OA
ATOM      6  N   UNL     1      -0.137  -1.759  -6.997  0.00  0.00    -0.269 N 
ATOM      7  H   UNL     1      -1.095  -0.979  -4.791  0.00  0.00    +0.159 HD
ATOM      8  H   UNL     1      -1.096  -1.618  -7.039  0.00  0.00    +0.156 HD
ENDROOT
BRANCH   6   9
ATOM      9  C   UNL     1       0.570  -2.112  -8.153  0.00  0.00    +0.038 A 
ATOM     10  C   UNL     1       0.192  -1.593  -9.384  0.00  0.00    +0.027 A 
ATOM     11  C   UNL     1       0.889  -1.941 -10.525  0.00  0.00    +0.051 A 
ATOM     12  C   UNL     1       1.968  -2.810 -10.445  0.00  0.00    +0.162 A 
ATOM     13  C   UNL     1       2.350  -3.329  -9.214  0.00  0.00    +0.164 A 
ATOM     14  C   UNL     1       1.652  -2.976  -8.068  0.00  0.00    +0.072 A 
ATOM     15  O   UNL     1       3.410  -4.177  -9.114  0.00  0.00    -0.485 OA
ATOM     16  C   UNL     1       3.856  -4.796 -10.325  0.00  0.00    +0.270 C 
ATOM     17  C   UNL     1       3.942  -3.717 -11.413  0.00  0.00    +0.270 C 
ATOM     18  O   UNL     1       2.640  -3.145 -11.581  0.00  0.00    -0.485 OA
ENDBRANCH   6   9
BRANCH   1  19
ATOM     19  C   UNL     1      -0.239  -0.559  -2.343  0.00  0.00    +0.178 C 
BRANCH  19  20
ATOM     20  N   UNL     1       0.687  -0.486  -1.204  0.00  0.00    -0.302 NA
ATOM     21  H   UNL     1       1.478   0.102  -1.419  0.00  0.00    +0.123 HD
BRANCH  20  23
ATOM     22  C   UNL     1      -0.034   1.510   0.018  0.00  0.00    +0.029 C 
ATOM     23  C   UNL     1      -0.003  -0.020   0.006  0.00  0.00    +0.081 C 
BRANCH  23  24
ATOM     24  C   UNL     1       0.731  -0.517   1.225  0.00  0.00    -0.029 A 
ATOM     25  C   UNL     1       2.114  -0.517   1.247  0.00  0.00    +0.006 A 
ATOM     26  C   UNL     1       2.788  -0.973   2.364  0.00  0.00    +0.022 A 
ATOM     27  C   UNL     1       2.079  -1.429   3.461  0.00  0.00    +0.059 A 
ATOM     28  C   UNL     1       0.695  -1.428   3.439  0.00  0.00    +0.060 A 
ATOM     29  C   UNL     1       0.022  -0.966   2.322  0.00  0.00    +0.026 A 
ATOM     30 CL   UNL     1      -0.195  -2.000   4.816  0.00  0.00    -0.082 Cl
ATOM     31 CL   UNL     1       2.926  -2.002   4.864  0.00  0.00    -0.082 Cl
ENDBRANCH  23  24
ENDBRANCH  20  23
ENDBRANCH  19  20
ENDBRANCH   1  19
TORSDOF 5
