REMARK  Name = ZINC57533409
REMARK  3 active torsions:
REMARK  status: ('A' for Active; 'I' for Inactive)
REMARK    1  A    between atoms: C_1  and  C_2
REMARK    2  A    between atoms: C_4  and  N_16
REMARK    3  A    between atoms: C_6  and  N_8
REMARK                            x       y       z     vdW  Elec       q    Type
REMARK                         _______ _______ _______ _____ _____    ______ ____
ROOT
ATOM      1  C   UNL     1      -0.018   1.503   0.010  0.00  0.00    +0.044 C 
ATOM      2  C   UNL     1       0.002  -0.004   0.002  0.00  0.00    -0.047 A 
ATOM      3  C   UNL     1       0.006  -0.687  -1.199  0.00  0.00    +0.026 A 
ATOM      4  C   UNL     1       0.025  -2.076  -1.210  0.00  0.00    +0.027 A 
ATOM      5  C   UNL     1       0.040  -2.778  -0.013  0.00  0.00    +0.047 A 
ATOM      6  C   UNL     1       0.036  -2.089   1.191  0.00  0.00    +0.053 A 
ATOM      7  C   UNL     1       0.023  -0.700   1.195  0.00  0.00    +0.028 A 
ENDROOT
BRANCH   6   8
ATOM      8  N   UNL     1       0.051  -2.792   2.398  0.00  0.00    -0.207 N 
ATOM      9  C   UNL     1      -0.490  -2.196   3.629  0.00  0.00    +0.131 C 
ATOM     10  C   UNL     1       0.595  -2.176   4.704  0.00  0.00    +0.022 C 
ATOM     11  C   UNL     1       0.996  -3.598   5.093  0.00  0.00    +0.026 C 
ATOM     12  C   UNL     1       1.772  -4.250   3.943  0.00  0.00    +0.189 C 
ATOM     13  S   UNL     1       0.674  -4.333   2.487  0.00  0.00    +0.045 S 
ATOM     14  O   UNL     1      -0.443  -5.168   2.754  0.00  0.00    -0.155 OA
ATOM     15  O   UNL     1       1.438  -4.491   1.299  0.00  0.00    -0.155 OA
ENDBRANCH   6   8
BRANCH   4  16
ATOM     16  N   UNL     1       0.028  -2.765  -2.425  0.00  0.00    -0.358 N 
ATOM     17  H   UNL     1       0.017  -2.274  -3.262  0.00  0.00    +0.142 HD
ATOM     18  H   UNL     1       0.041  -3.735  -2.432  0.00  0.00    +0.142 HD
ENDBRANCH   4  16
TORSDOF 2
