REMARK  Name = ZINC61329565
REMARK  2 active torsions:
REMARK  status: ('A' for Active; 'I' for Inactive)
REMARK    1  A    between atoms: C_6  and  N_11
REMARK    2  A    between atoms: C_12  and  N_17
REMARK                            x       y       z     vdW  Elec       q    Type
REMARK                         _______ _______ _______ _____ _____    ______ ____
ROOT
ATOM      1  C   UNL     1      -0.017   1.391   0.010  0.00  0.00    +0.013 A 
ATOM      2  C   UNL     1       1.145   2.084   0.002  0.00  0.00    +0.046 A 
ATOM      3  S   UNL     1       2.356   0.771  -0.016  0.00  0.00    -0.101 S 
ATOM      4  C   UNL     1       1.227  -0.595  -0.012  0.00  0.00    -0.005 A 
ATOM      5  C   UNL     1       0.002  -0.004   0.002  0.00  0.00    -0.013 A 
ATOM      6  C   UNL     1      -1.264  -0.856   0.007  0.00  0.00    +0.140 C 
ATOM      7  C   UNL     1      -0.910  -2.267  -0.467  0.00  0.00    +0.032 C 
ATOM      8  C   UNL     1       0.255  -2.821   0.358  0.00  0.00    +0.008 C 
ATOM      9  C   UNL     1       1.533  -2.058  -0.020  0.00  0.00    +0.043 C 
ENDROOT
BRANCH   6  10
ATOM     10  N   UNL     1      -2.257  -0.267  -0.894  0.00  0.00    -0.243 N 
ATOM     11  C   UNL     1      -3.493   0.174  -0.544  0.00  0.00    +0.128 A 
ATOM     12  C   UNL     1      -4.092   0.647  -1.672  0.00  0.00    +0.072 A 
ATOM     13  C   UNL     1      -3.196   0.489  -2.732  0.00  0.00    +0.150 A 
ATOM     14  N   UNL     1      -2.098  -0.051  -2.269  0.00  0.00    -0.176 NA
ATOM     15  I   UNL     1      -6.017   1.466  -1.795  0.00  0.00    -0.039 I 
BRANCH  11  16
ATOM     16  N   UNL     1      -4.046   0.147   0.734  0.00  0.00    -0.342 N 
ATOM     17  H   UNL     1      -3.535  -0.213   1.476  0.00  0.00    +0.144 HD
ATOM     18  H   UNL     1      -4.942   0.487   0.881  0.00  0.00    +0.144 HD
ENDBRANCH  11  16
ENDBRANCH   6  10
TORSDOF 2
