REMARK  Name = ZINC66611991
REMARK  9 active torsions:
REMARK  status: ('A' for Active; 'I' for Inactive)
REMARK    1  A    between atoms: C_1  and  C_2
REMARK    2  A    between atoms: N_4  and  C_5
REMARK    3  A    between atoms: C_5  and  C_7
REMARK    4  A    between atoms: C_5  and  C_21
REMARK    5  A    between atoms: C_7  and  C_8
REMARK    6  A    between atoms: N_10  and  C_11
REMARK    7  A    between atoms: C_11  and  C_12
REMARK    8  A    between atoms: N_18  and  C_19
REMARK    9  A    between atoms: N_18  and  C_20
REMARK                            x       y       z     vdW  Elec       q    Type
REMARK                         _______ _______ _______ _____ _____    ______ ____
ROOT
ATOM      1  C   UNL     1       1.129  -2.546  -0.253  0.00  0.00    +0.123 C 
ENDROOT
BRANCH   1   2
ATOM      2  C   UNL     1       2.406  -2.241  -0.994  0.00  0.00    +0.215 C 
ATOM      3  O   UNL     1       2.362  -1.743  -2.099  0.00  0.00    -0.276 OA
ATOM      4  N   UNL     1       3.597  -2.521  -0.428  0.00  0.00    -0.311 N 
ATOM      5  H   UNL     1       3.632  -2.919   0.456  0.00  0.00    +0.149 HD
BRANCH   4   6
ATOM      6  C   UNL     1       4.838  -2.225  -1.148  0.00  0.00    +0.141 C 
BRANCH   6   7
ATOM      7  C   UNL     1       6.018  -2.631  -0.303  0.00  0.00    -0.014 A 
ATOM      8  C   UNL     1       6.588  -1.728   0.585  0.00  0.00    +0.010 A 
ATOM      9  C   UNL     1       7.669  -2.141   1.342  0.00  0.00    +0.042 A 
ATOM     10  C   UNL     1       8.147  -3.438   1.188  0.00  0.00    +0.098 A 
ATOM     11  N   UNL     1       7.577  -4.269   0.330  0.00  0.00    -0.349 N 
ATOM     12  C   UNL     1       6.540  -3.905  -0.401  0.00  0.00    +0.089 A 
ATOM     13  N   UNL     1       9.234  -3.866   1.942  0.00  0.00    -0.323 N 
ATOM     14  C   UNL     1       9.871  -2.951   2.893  0.00  0.00    +0.130 C 
ATOM     15  C   UNL     1       9.743  -5.231   1.785  0.00  0.00    +0.130 C 
ATOM     16  H   UNL     1       7.927  -5.169   0.239  0.00  0.00    +0.167 HD
ENDBRANCH   6   7
ENDBRANCH   4   6
ENDBRANCH   1   2
BRANCH   1  17
ATOM     17  C   UNL     1      -0.069  -2.134  -1.111  0.00  0.00    +0.117 C 
BRANCH  17  18
ATOM     18  C   UNL     1      -1.344  -2.550  -0.424  0.00  0.00    +0.043 A 
ATOM     19  C   UNL     1      -1.800  -1.845   0.676  0.00  0.00    +0.131 A 
ATOM     20  C   UNL     1      -2.973  -2.228   1.306  0.00  0.00    +0.039 A 
ATOM     21  C   UNL     1      -3.687  -3.314   0.836  0.00  0.00    +0.006 A 
ATOM     22  C   UNL     1      -3.233  -4.019  -0.263  0.00  0.00    +0.039 A 
ATOM     23  C   UNL     1      -2.064  -3.633  -0.898  0.00  0.00    +0.131 A 
ATOM     24  F   UNL     1      -1.623  -4.319  -1.976  0.00  0.00    -0.205 F 
ATOM     25  F   UNL     1      -1.102  -0.784   1.136  0.00  0.00    -0.205 F 
ENDBRANCH  17  18
BRANCH  17  29
ATOM     26  C   UNL     1      -0.808   1.372  -2.454  0.00  0.00    +0.109 C 
ATOM     27  C   UNL     1      -0.726  -0.127  -2.327  0.00  0.00    +0.210 C 
ATOM     28  O   UNL     1      -1.255  -0.836  -3.156  0.00  0.00    -0.276 OA
ATOM     29  N   UNL     1      -0.063  -0.680  -1.291  0.00  0.00    -0.308 N 
ATOM     30  H   UNL     1       0.417  -0.115  -0.666  0.00  0.00    +0.149 HD
ENDBRANCH  17  29
ENDBRANCH   1  17
TORSDOF 6
