REMARK  Name = ZINC36938928
REMARK  6 active torsions:
REMARK  status: ('A' for Active; 'I' for Inactive)
REMARK    1  A    between atoms: C_1  and  C_2
REMARK    2  A    between atoms: C_5  and  N_9
REMARK    3  A    between atoms: C_10  and  C_18
REMARK    4  A    between atoms: C_11  and  C_17
REMARK    5  A    between atoms: C_12  and  C_15
REMARK    6  A    between atoms: C_13  and  N_14
REMARK                            x       y       z     vdW  Elec       q    Type
REMARK                         _______ _______ _______ _____ _____    ______ ____
ROOT
ATOM      1  N   UNL     1       0.058  -4.175  -0.025  0.00  0.00    -0.298 N 
ATOM      2  C   UNL     1      -1.056  -4.976  -0.031  0.00  0.00    +0.027 A 
ATOM      3  C   UNL     1      -0.677  -6.263  -0.039  0.00  0.00    -0.010 A 
ATOM      4  C   UNL     1       0.792  -6.272  -0.040  0.00  0.00    +0.094 A 
ATOM      5  C   UNL     1       1.183  -4.939  -0.037  0.00  0.00    +0.119 A 
ATOM      6  C   UNL     1      -1.584  -7.468  -0.047  0.00  0.00    +0.047 C 
ATOM      7  C   UNL     1      -2.482  -4.487  -0.026  0.00  0.00    +0.064 C 
ENDROOT
BRANCH   1  12
ATOM      8  C   UNL     1      -0.018   1.503   0.010  0.00  0.00    +0.044 C 
ATOM      9  C   UNL     1       0.002  -0.004   0.002  0.00  0.00    -0.048 A 
ATOM     10  C   UNL     1       0.006  -0.687  -1.200  0.00  0.00    +0.005 A 
ATOM     11  C   UNL     1       0.024  -2.069  -1.212  0.00  0.00    +0.029 A 
ATOM     12  C   UNL     1       0.040  -2.772  -0.016  0.00  0.00    +0.083 A 
ATOM     13  C   UNL     1       0.036  -2.083   1.192  0.00  0.00    +0.147 A 
ATOM     14  C   UNL     1       0.023  -0.700   1.196  0.00  0.00    +0.043 A 
ATOM     15  F   UNL     1       0.050  -2.764   2.359  0.00  0.00    -0.203 F 
ENDBRANCH   1  12
BRANCH   5  16
ATOM     16  N   UNL     1       2.485  -4.473  -0.041  0.00  0.00    -0.343 N 
ATOM     17  H   UNL     1       2.658  -3.518  -0.036  0.00  0.00    +0.144 HD
ATOM     18  H   UNL     1       3.225  -5.100  -0.049  0.00  0.00    +0.144 HD
ENDBRANCH   5  16
BRANCH   4  19
ATOM     19  C   UNL     1       1.647  -7.421  -0.047  0.00  0.00    +0.103 C 
ATOM     20  N   UNL     1       2.325  -8.333  -0.054  0.00  0.00    -0.191 NA
ENDBRANCH   4  19
TORSDOF 3
