REMARK  Name = ZINC20751868
REMARK  6 active torsions:
REMARK  status: ('A' for Active; 'I' for Inactive)
REMARK    1  A    between atoms: C_2  and  C_3
REMARK    2  A    between atoms: C_3  and  N_4
REMARK    3  A    between atoms: N_4  and  S_5
REMARK    4  A    between atoms: S_5  and  C_8
REMARK    5  A    between atoms: C_21  and  C_24
REMARK    6  A    between atoms: C_33  and  O_34
REMARK                            x       y       z     vdW  Elec       q    Type
REMARK                         _______ _______ _______ _____ _____    ______ ____
ROOT
ATOM      1  C   UNL     1      -4.114  -0.735   3.852  0.00  0.00    +0.106 A 
ATOM      2  C   UNL     1      -4.287  -0.838   2.483  0.00  0.00    +0.030 A 
ATOM      3  C   UNL     1      -4.593  -2.056   1.912  0.00  0.00    +0.025 A 
ATOM      4  C   UNL     1      -4.741  -3.186   2.707  0.00  0.00    +0.031 A 
ATOM      5  C   UNL     1      -4.583  -3.071   4.093  0.00  0.00    -0.018 A 
ATOM      6  C   UNL     1      -4.266  -1.852   4.652  0.00  0.00    +0.034 A 
ATOM      7  C   UNL     1      -4.790  -4.289   4.907  0.00  0.00    +0.049 C 
ATOM      8  C   UNL     1      -4.138  -4.469   6.229  0.00  0.00    -0.023 C 
ATOM      9  C   UNL     1      -3.912  -5.763   6.418  0.00  0.00    -0.030 C 
ATOM     10  C   UNL     1      -4.375  -6.559   5.196  0.00  0.00    +0.033 C 
ATOM     11  C   UNL     1      -4.270  -5.506   4.085  0.00  0.00    +0.029 C 
ATOM     12  C   UNL     1      -5.224  -5.639   2.911  0.00  0.00    +0.109 C 
ATOM     13  N   UNL     1      -5.036  -4.414   2.104  0.00  0.00    -0.336 N 
ATOM     14  H   UNL     1      -5.128  -4.458   1.008  0.00  0.00    +0.147 HD
ENDROOT
BRANCH  12  15
ATOM     15  C   UNL     1      -6.646  -5.727   3.401  0.00  0.00    +0.022 A 
ATOM     16  C   UNL     1      -7.171  -6.957   3.829  0.00  0.00    -0.009 A 
ATOM     17  C   UNL     1      -6.392  -8.127   3.814  0.00  0.00    +0.009 A 
ATOM     18  C   UNL     1      -6.933  -9.303   4.237  0.00  0.00    +0.001 A 
ATOM     19  C   UNL     1      -8.251  -9.365   4.687  0.00  0.00    +0.001 A 
ATOM     20  C   UNL     1      -9.034  -8.252   4.716  0.00  0.00    +0.008 A 
ATOM     21  C   UNL     1      -8.511  -7.021   4.287  0.00  0.00    -0.017 A 
ATOM     22  C   UNL     1      -9.292  -5.852   4.304  0.00  0.00    +0.012 A 
ATOM     23  C   UNL     1      -8.755  -4.676   3.883  0.00  0.00    +0.046 A 
ATOM     24  C   UNL     1      -7.431  -4.610   3.436  0.00  0.00    +0.122 A 
BRANCH  24  25
ATOM     25  O   UNL     1      -6.921  -3.419   3.025  0.00  0.00    -0.506 OA
ATOM     26  H   UNL     1      -7.546  -2.515   3.050  0.00  0.00    +0.292 HD
ENDBRANCH  24  25
ENDBRANCH  12  15
BRANCH   1  27
ATOM     27  S   UNL     1      -3.708   0.819   4.575  0.00  0.00    +0.059 S 
ATOM     28  O   UNL     1      -4.143   0.764   5.927  0.00  0.00    -0.153 OA
ATOM     29  O   UNL     1      -4.159   1.818   3.670  0.00  0.00    -0.153 OA
BRANCH  27  30
ATOM     30  N   UNL     1      -2.056   0.925   4.613  0.00  0.00    -0.186 NA
ATOM     31  H   UNL     1      -1.531   0.793   5.570  0.00  0.00    +0.148 HD
BRANCH  30  32
ATOM     32  C   UNL     1      -1.296   0.974   3.361  0.00  0.00    +0.132 C 
BRANCH  32  34
ATOM     33  C   UNL     1       1.128   0.703   3.260  0.00  0.00    +0.005 C 
ATOM     34  C   UNL     1       0.111   1.433   3.645  0.00  0.00    -0.018 C 
ENDBRANCH  32  34
ENDBRANCH  30  32
ENDBRANCH  27  30
ENDBRANCH   1  27
TORSDOF 6
