REMARK  Name = ZINC59385644
REMARK  8 active torsions:
REMARK  status: ('A' for Active; 'I' for Inactive)
REMARK    1  A    between atoms: C_1  and  C_2
REMARK    2  A    between atoms: C_3  and  C_19
REMARK    3  A    between atoms: C_4  and  C_10
REMARK    4  A    between atoms: C_13  and  N_16
REMARK    5  A    between atoms: N_16  and  C_17
REMARK    6  A    between atoms: N_16  and  C_18
REMARK    7  A    between atoms: N_21  and  N_22
REMARK    8  A    between atoms: C_23  and  C_24
REMARK                            x       y       z     vdW  Elec       q    Type
REMARK                         _______ _______ _______ _____ _____    ______ ____
ROOT
ATOM      1  C   UNL     1       0.255   1.463  -0.081  0.00  0.00    +0.061 C 
ATOM      2  C   UNL     1       0.162  -0.040  -0.051  0.00  0.00    +0.019 C 
ATOM      3  C   UNL     1      -1.052  -0.630  -0.066  0.00  0.00    +0.057 C 
ATOM      4  C   UNL     1      -1.101  -2.144  -0.036  0.00  0.00    +0.142 C 
ATOM      5  N   UNL     1       0.189  -2.853   0.007  0.00  0.00    -0.288 N 
ATOM      6  C   UNL     1       1.322  -2.123   0.017  0.00  0.00    +0.304 C 
ATOM      7  O   UNL     1       2.392  -2.699   0.053  0.00  0.00    -0.252 OA
ATOM      8  N   UNL     1       1.307  -0.785  -0.016  0.00  0.00    -0.273 N 
ATOM      9  H   UNL     1       0.223  -3.822   0.028  0.00  0.00    +0.151 HD
ATOM     10  H   UNL     1       2.157  -0.317  -0.011  0.00  0.00    +0.156 HD
ENDROOT
BRANCH   4  11
ATOM     11  C   UNL     1      -1.845  -2.610  -1.261  0.00  0.00    -0.022 A 
ATOM     12  C   UNL     1      -1.198  -2.663  -2.482  0.00  0.00    +0.007 A 
ATOM     13  C   UNL     1      -1.877  -3.089  -3.607  0.00  0.00    +0.023 A 
ATOM     14  C   UNL     1      -3.211  -3.464  -3.511  0.00  0.00    +0.029 A 
ATOM     15  C   UNL     1      -3.858  -3.409  -2.283  0.00  0.00    +0.023 A 
ATOM     16  C   UNL     1      -3.171  -2.988  -1.161  0.00  0.00    +0.007 A 
BRANCH  14  17
ATOM     17  N   UNL     1      -3.901  -3.894  -4.647  0.00  0.00    -0.336 N 
ATOM     18  C   UNL     1      -3.187  -4.071  -5.914  0.00  0.00    +0.129 C 
ATOM     19  C   UNL     1      -5.338  -4.170  -4.571  0.00  0.00    +0.129 C 
ENDBRANCH  14  17
ENDBRANCH   4  11
BRANCH   3  20
ATOM     20  C   UNL     1      -2.240   0.140  -0.108  0.00  0.00    +0.263 C 
ATOM     21  O   UNL     1      -2.912   0.278   0.899  0.00  0.00    -0.269 OA
ATOM     22  N   UNL     1      -2.627   0.720  -1.261  0.00  0.00    -0.203 N 
ATOM     23  H   UNL     1      -2.135   0.548  -2.079  0.00  0.00    +0.178 HD
BRANCH  22  24
ATOM     24  N   UNL     1      -3.741   1.570  -1.279  0.00  0.00    -0.187 NA
ATOM     25  C   UNL     1      -4.113   2.128  -2.389  0.00  0.00    +0.138 C 
BRANCH  25  26
ATOM     26  C   UNL     1      -5.285   3.023  -2.408  0.00  0.00    -0.005 A 
ATOM     27  C   UNL     1      -5.993   3.276  -1.230  0.00  0.00    +0.012 A 
ATOM     28  C   UNL     1      -7.088   4.114  -1.254  0.00  0.00    +0.039 A 
ATOM     29  C   UNL     1      -7.487   4.704  -2.442  0.00  0.00    +0.123 A 
ATOM     30  C   UNL     1      -6.789   4.457  -3.614  0.00  0.00    +0.039 A 
ATOM     31  C   UNL     1      -5.689   3.626  -3.602  0.00  0.00    +0.012 A 
ATOM     32  F   UNL     1      -8.561   5.524  -2.459  0.00  0.00    -0.205 F 
ENDBRANCH  25  26
ENDBRANCH  22  24
ENDBRANCH   3  20
TORSDOF 5
