REMARK  Name = ZINC37716265
REMARK  6 active torsions:
REMARK  status: ('A' for Active; 'I' for Inactive)
REMARK    1  A    between atoms: C_1  and  C_2
REMARK    2  A    between atoms: C_5  and  S_9
REMARK    3  A    between atoms: C_6  and  C_8
REMARK    4  A    between atoms: S_9  and  N_12
REMARK    5  A    between atoms: N_12  and  C_13
REMARK    6  A    between atoms: C_13  and  C_14
REMARK                            x       y       z     vdW  Elec       q    Type
REMARK                         _______ _______ _______ _____ _____    ______ ____
ROOT
ATOM      1  N   UNL     1       1.177  -5.264   0.198  0.00  0.00    -0.181 NA
ATOM      2  H   UNL     1       1.766  -5.717  -0.426  0.00  0.00    +0.149 HD
ENDROOT
BRANCH   1   3
ATOM      3  S   UNL     1      -0.157  -4.457  -0.359  0.00  0.00    +0.059 S 
ATOM      4  O   UNL     1      -1.256  -4.901   0.424  0.00  0.00    -0.153 OA
ATOM      5  O   UNL     1      -0.136  -4.567  -1.775  0.00  0.00    -0.153 OA
BRANCH   3  10
ATOM      6  C   UNL     1       0.629   1.385   0.931  0.00  0.00    +0.044 C 
ATOM      7  C   UNL     1       0.433  -0.074   0.609  0.00  0.00    -0.050 A 
ATOM      8  C   UNL     1      -0.599  -0.780   1.200  0.00  0.00    +0.005 A 
ATOM      9  C   UNL     1      -0.779  -2.118   0.904  0.00  0.00    +0.029 A 
ATOM     10  C   UNL     1       0.072  -2.751   0.017  0.00  0.00    +0.108 A 
ATOM     11  C   UNL     1       1.103  -2.045  -0.574  0.00  0.00    -0.024 A 
ATOM     12  C   UNL     1       1.280  -0.705  -0.282  0.00  0.00    +0.008 A 
ATOM     13  C   UNL     1       2.031  -2.734  -1.541  0.00  0.00    +0.046 C 
ENDBRANCH   3  10
ENDBRANCH   1   3
BRANCH   1  14
ATOM     14  C   UNL     1       1.470  -5.294   1.633  0.00  0.00    +0.201 C 
BRANCH  14  15
ATOM     15  C   UNL     1       2.483  -6.373   1.917  0.00  0.00    +0.231 C 
ATOM     16  O   UNL     1       2.918  -7.050   1.010  0.00  0.00    -0.274 OA
ATOM     17  N   UNL     1       2.905  -6.585   3.179  0.00  0.00    -0.298 N 
ATOM     18  C   UNL     1       2.386  -5.779   4.295  0.00  0.00    +0.123 C 
ATOM     19  C   UNL     1       3.573  -5.229   5.092  0.00  0.00    +0.100 C 
ATOM     20  N   UNL     1       4.453  -6.338   5.483  0.00  0.00    -0.313 NA
ATOM     21  C   UNL     1       5.026  -7.005   4.307  0.00  0.00    +0.100 C 
ATOM     22  C   UNL     1       3.893  -7.633   3.478  0.00  0.00    +0.123 C 
ATOM     23  H   UNL     1       5.179  -6.020   6.108  0.00  0.00    +0.122 HD
ENDBRANCH  14  15
ENDBRANCH   1  14
TORSDOF 4
