REMARK  Name = ZINC62789738
REMARK  4 active torsions:
REMARK  status: ('A' for Active; 'I' for Inactive)
REMARK    1  A    between atoms: C_4  and  S_7
REMARK    2  A    between atoms: S_7  and  C_8
REMARK    3  A    between atoms: C_13  and  C_14
REMARK    4  A    between atoms: N_15  and  O_16
REMARK                            x       y       z     vdW  Elec       q    Type
REMARK                         _______ _______ _______ _____ _____    ______ ____
ROOT
ATOM      1  C   UNL     1       3.466  -2.575   0.152  0.00  0.00    +0.027 A 
ATOM      2  C   UNL     1       2.154  -3.026   0.101  0.00  0.00    +0.035 A 
ATOM      3  C   UNL     1       1.890  -4.380   0.016  0.00  0.00    +0.042 A 
ATOM      4  C   UNL     1       2.930  -5.295  -0.017  0.00  0.00    +0.021 A 
ATOM      5  C   UNL     1       4.239  -4.864   0.034  0.00  0.00    +0.014 A 
ATOM      6  C   UNL     1       4.520  -3.499   0.113  0.00  0.00    +0.032 A 
ATOM      7 CL   UNL     1       0.247  -4.937  -0.048  0.00  0.00    -0.084 Cl
ENDROOT
BRANCH   6   8
ATOM      8  C   UNL     1       5.921  -3.031   0.161  0.00  0.00    +0.163 C 
ATOM      9  N   UNL     1       6.723  -3.470   1.087  0.00  0.00    -0.071 NA
ATOM     10  N   UNL     1       6.380  -2.124  -0.780  0.00  0.00    -0.340 N 
ATOM     11  H   UNL     1       5.782  -1.797  -1.470  0.00  0.00    +0.144 HD
ATOM     12  H   UNL     1       7.300  -1.817  -0.748  0.00  0.00    +0.144 HD
BRANCH   9  13
ATOM     13  O   UNL     1       6.225  -4.304   2.118  0.00  0.00    -0.408 OA
ATOM     14  H   UNL     1       6.876  -4.518   2.800  0.00  0.00    +0.328 HD
ENDBRANCH   9  13
ENDBRANCH   6   8
BRANCH   1  15
ATOM     15  S   UNL     1       3.805  -0.850   0.260  0.00  0.00    -0.049 S 
BRANCH  15  19
ATOM     16  C   UNL     1       2.203   0.314   4.233  0.00  0.00    +0.039 A 
ATOM     17  C   UNL     1       2.891   1.229   3.451  0.00  0.00    +0.115 A 
ATOM     18  N   UNL     1       3.356   0.850   2.272  0.00  0.00    -0.230 NA
ATOM     19  C   UNL     1       3.170  -0.388   1.837  0.00  0.00    +0.193 A 
ATOM     20  N   UNL     1       2.517  -1.287   2.560  0.00  0.00    -0.230 NA
ATOM     21  C   UNL     1       2.027  -0.972   3.748  0.00  0.00    +0.115 A 
ENDBRANCH  15  19
ENDBRANCH   1  15
TORSDOF 4
