REMARK  Name = ZINC56350529
REMARK  7 active torsions:
REMARK  status: ('A' for Active; 'I' for Inactive)
REMARK    1  A    between atoms: C_4  and  O_19
REMARK    2  A    between atoms: C_5  and  N_7
REMARK    3  A    between atoms: C_8  and  C_10
REMARK    4  A    between atoms: C_13  and  S_15
REMARK    5  A    between atoms: S_15  and  N_18
REMARK    6  A    between atoms: O_19  and  C_20
REMARK    7  A    between atoms: C_20  and  C_21
REMARK                            x       y       z     vdW  Elec       q    Type
REMARK                         _______ _______ _______ _____ _____    ______ ____
ROOT
ATOM      1  N   UNL     1       1.235  -2.081  -0.022  0.00  0.00    -0.276 N 
ATOM      2  C   UNL     1       0.183  -2.768  -0.509  0.00  0.00    +0.284 C 
ATOM      3  O   UNL     1      -0.746  -2.175  -1.024  0.00  0.00    -0.266 OA
ATOM      4  H   UNL     1       2.010  -2.556   0.316  0.00  0.00    +0.155 HD
ENDROOT
BRANCH   1   9
ATOM      5  C   UNL     1      -0.028   1.373   0.037  0.00  0.00    +0.002 A 
ATOM      6  C   UNL     1       1.155   2.088   0.033  0.00  0.00    +0.004 A 
ATOM      7  C   UNL     1       2.368   1.425   0.011  0.00  0.00    +0.047 A 
ATOM      8  C   UNL     1       2.401   0.040  -0.008  0.00  0.00    +0.142 A 
ATOM      9  C   UNL     1       1.208  -0.681  -0.003  0.00  0.00    +0.076 A 
ATOM     10  C   UNL     1      -0.005  -0.008   0.019  0.00  0.00    +0.027 A 
BRANCH   8  11
ATOM     11  O   UNL     1       3.592  -0.614  -0.030  0.00  0.00    -0.488 OA
BRANCH  11  12
ATOM     12  C   UNL     1       4.774   0.191  -0.034  0.00  0.00    +0.260 C 
BRANCH  12  13
ATOM     13  C   UNL     1       6.007  -0.715  -0.060  0.00  0.00    +0.156 C 
ATOM     14  C   UNL     1       7.268   0.144  -0.189  0.00  0.00    +0.035 C 
ATOM     15  C   UNL     1       8.501  -0.764  -0.154  0.00  0.00    +0.005 C 
ATOM     16  C   UNL     1       8.483  -1.580   1.143  0.00  0.00    +0.028 C 
ATOM     17  C   UNL     1       7.175  -2.373   1.220  0.00  0.00    +0.160 C 
ATOM     18  O   UNL     1       6.069  -1.471   1.151  0.00  0.00    -0.373 OA
ENDBRANCH  12  13
ENDBRANCH  11  12
ENDBRANCH   8  11
ENDBRANCH   1   9
BRANCH   2  19
ATOM     19  C   UNL     1       0.157  -4.232  -0.418  0.00  0.00    +0.192 A 
ATOM     20  C   UNL     1      -0.839  -5.047  -0.873  0.00  0.00    +0.057 A 
ATOM     21  C   UNL     1      -0.450  -6.363  -0.579  0.00  0.00    +0.072 A 
ATOM     22  C   UNL     1       0.752  -6.295   0.036  0.00  0.00    +0.258 A 
ATOM     23  O   UNL     1       1.117  -5.009   0.126  0.00  0.00    -0.432 OA
BRANCH  22  24
ATOM     24  S   UNL     1       1.687  -7.670   0.617  0.00  0.00    +0.089 S 
ATOM     25  O   UNL     1       2.539  -7.178   1.642  0.00  0.00    -0.150 OA
ATOM     26  O   UNL     1       0.762  -8.726   0.837  0.00  0.00    -0.150 OA
BRANCH  24  27
ATOM     27  N   UNL     1       2.670  -8.153  -0.625  0.00  0.00    -0.201 NA
ATOM     28  H   UNL     1       2.646  -7.684  -1.473  0.00  0.00    +0.144 HD
ATOM     29  H   UNL     1       3.271  -8.905  -0.503  0.00  0.00    +0.144 HD
ENDBRANCH  24  27
ENDBRANCH  22  24
ENDBRANCH   2  19
TORSDOF 7
