REMARK  Name = ZINC28814058
REMARK  5 active torsions:
REMARK  status: ('A' for Active; 'I' for Inactive)
REMARK    1  A    between atoms: C_7  and  C_11
REMARK    2  A    between atoms: C_11  and  C_12
REMARK    3  A    between atoms: N_14  and  N_15
REMARK    4  A    between atoms: C_16  and  C_18
REMARK    5  A    between atoms: C_23  and  O_24
REMARK                            x       y       z     vdW  Elec       q    Type
REMARK                         _______ _______ _______ _____ _____    ______ ____
ROOT
ATOM      1  C   UNL     1       3.559   7.370   0.009  0.00  0.00    +0.233 C 
ATOM      2  O   UNL     1       2.496   7.955   0.021  0.00  0.00    -0.274 OA
ATOM      3  N   UNL     1       3.587   6.023   0.001  0.00  0.00    -0.234 N 
ATOM      4  H   UNL     1       4.551   5.493  -0.011  0.00  0.00    +0.173 HD
ENDROOT
BRANCH   3   5
ATOM      5  N   UNL     1       2.389   5.297   0.008  0.00  0.00    -0.230 N 
ATOM      6  C   UNL     1       2.417   3.950   0.001  0.00  0.00    +0.264 C 
ATOM      7  O   UNL     1       3.482   3.364  -0.012  0.00  0.00    -0.269 OA
ATOM      8  H   UNL     1       1.425   5.827   0.020  0.00  0.00    +0.173 HD
BRANCH   6   9
ATOM      9  C   UNL     1       1.155   3.186   0.008  0.00  0.00    +0.081 A 
ATOM     10  C   UNL     1      -0.071   3.855   0.023  0.00  0.00    +0.032 A 
ATOM     11  C   UNL     1      -1.247   3.135   0.031  0.00  0.00    +0.019 A 
ATOM     12  C   UNL     1      -1.218   1.749   0.017  0.00  0.00    +0.019 A 
ATOM     13  C   UNL     1      -0.013   1.076   0.008  0.00  0.00    +0.047 A 
ATOM     14  C   UNL     1       1.180   1.785   0.000  0.00  0.00    +0.129 A 
ATOM     15 BR   UNL     1      -2.906   4.041   0.051  0.00  0.00    -0.050 Br
BRANCH  14  16
ATOM     16  O   UNL     1       2.365   1.124  -0.015  0.00  0.00    -0.506 OA
ATOM     17  H   UNL     1       2.381   0.024  -0.021  0.00  0.00    +0.292 HD
ENDBRANCH  14  16
ENDBRANCH   6   9
ENDBRANCH   3   5
BRANCH   1  18
ATOM     18  C   UNL     1       4.848   8.151   0.001  0.00  0.00    +0.134 C 
BRANCH  18  25
ATOM     19  C   UNL     1       3.936  11.212   3.432  0.00  0.00    +0.001 A 
ATOM     20  C   UNL     1       3.708  12.499   2.962  0.00  0.00    +0.002 A 
ATOM     21  C   UNL     1       3.761  12.774   1.614  0.00  0.00    +0.026 A 
ATOM     22  C   UNL     1       4.045  11.755   0.711  0.00  0.00    +0.047 A 
ATOM     23  C   UNL     1       4.275  10.453   1.192  0.00  0.00    +0.003 A 
ATOM     24  C   UNL     1       4.216  10.196   2.563  0.00  0.00    +0.010 A 
ATOM     25  C   UNL     1       4.542   9.627   0.012  0.00  0.00    -0.014 A 
ATOM     26  C   UNL     1       4.468  10.435  -1.058  0.00  0.00    +0.087 A 
ATOM     27  N   UNL     1       4.166  11.709  -0.660  0.00  0.00    -0.360 N 
ATOM     28  H   UNL     1       4.022  12.622  -1.256  0.00  0.00    +0.165 HD
ENDBRANCH  18  25
ENDBRANCH   1  18
TORSDOF 5
