REMARK  Name = ZINC09348139
REMARK  8 active torsions:
REMARK  status: ('A' for Active; 'I' for Inactive)
REMARK    1  A    between atoms: C_1  and  C_2
REMARK    2  A    between atoms: C_4  and  C_33
REMARK    3  A    between atoms: C_9  and  N_20
REMARK    4  A    between atoms: N_10  and  C_11
REMARK    5  A    between atoms: C_11  and  C_13
REMARK    6  A    between atoms: N_20  and  C_21
REMARK    7  A    between atoms: C_21  and  C_22
REMARK    8  A    between atoms: C_22  and  C_23
REMARK                            x       y       z     vdW  Elec       q    Type
REMARK                         _______ _______ _______ _____ _____    ______ ____
ROOT
ATOM      1  C   UNL     1       4.263  -1.100   1.790  0.00  0.00    +0.066 C 
ATOM      2  C   UNL     1       3.074  -1.972   1.477  0.00  0.00    +0.044 A 
ATOM      3  C   UNL     1       3.075  -2.782   0.353  0.00  0.00    +0.046 A 
ATOM      4  C   UNL     1       1.961  -3.568   0.102  0.00  0.00    +0.044 A 
ATOM      5  N   UNL     1       0.937  -3.522   0.937  0.00  0.00    -0.217 NA
ATOM      6  C   UNL     1       0.969  -2.736   2.003  0.00  0.00    +0.231 A 
ATOM      7  N   UNL     1       2.019  -1.977   2.275  0.00  0.00    -0.217 NA
ATOM      8  N   UNL     1      -0.125  -2.712   2.859  0.00  0.00    -0.295 N 
ATOM      9  C   UNL     1      -0.156  -1.829   3.903  0.00  0.00    +0.218 C 
ATOM     10  N   UNL     1      -0.577  -2.226   5.093  0.00  0.00    -0.141 NA
ATOM     11  C   UNL     1       1.918  -4.465  -1.109  0.00  0.00    +0.066 C 
ATOM     12  H   UNL     1      -0.866  -3.321   2.717  0.00  0.00    +0.172 HD
ENDROOT
BRANCH  10  13
ATOM     13  C   UNL     1      -0.878  -3.515   5.302  0.00  0.00    +0.272 C 
ATOM     14  O   UNL     1      -0.750  -4.324   4.400  0.00  0.00    -0.268 OA
BRANCH  13  15
ATOM     15  C   UNL     1      -1.366  -3.957   6.628  0.00  0.00    +0.057 A 
ATOM     16  C   UNL     1      -1.519  -3.032   7.661  0.00  0.00    +0.014 A 
ATOM     17  C   UNL     1      -1.975  -3.449   8.895  0.00  0.00    +0.001 A 
ATOM     18  C   UNL     1      -2.280  -4.782   9.109  0.00  0.00    +0.001 A 
ATOM     19  C   UNL     1      -2.131  -5.704   8.090  0.00  0.00    +0.021 A 
ATOM     20  C   UNL     1      -1.681  -5.299   6.848  0.00  0.00    +0.053 A 
ATOM     21 CL   UNL     1      -1.500  -6.457   5.567  0.00  0.00    -0.083 Cl
ENDBRANCH  13  15
ENDBRANCH  10  13
BRANCH   9  22
ATOM     22  N   UNL     1       0.246  -0.539   3.717  0.00  0.00    -0.252 NA
BRANCH  22  23
ATOM     23  C   UNL     1      -0.018   0.134   2.444  0.00  0.00    +0.150 C 
BRANCH  23  24
ATOM     24  C   UNL     1       0.385   1.606   2.552  0.00  0.00    +0.060 C 
BRANCH  24  25
ATOM     25  C   UNL     1       0.009   2.325   1.282  0.00  0.00    -0.021 A 
ATOM     26  C   UNL     1       0.814   2.568   0.235  0.00  0.00    +0.087 A 
ATOM     27  N   UNL     1       0.124   3.243  -0.736  0.00  0.00    -0.360 N 
ATOM     28  H   UNL     1       0.494   3.530  -1.585  0.00  0.00    +0.165 HD
ATOM     29  C   UNL     1      -1.173   3.456  -0.327  0.00  0.00    +0.047 A 
ATOM     30  C   UNL     1      -1.304   2.884   0.953  0.00  0.00    +0.003 A 
ATOM     31  C   UNL     1      -2.528   2.943   1.620  0.00  0.00    +0.010 A 
ATOM     32  C   UNL     1      -3.596   3.554   1.025  0.00  0.00    +0.001 A 
ATOM     33  C   UNL     1      -3.474   4.115  -0.238  0.00  0.00    +0.002 A 
ATOM     34  C   UNL     1      -2.272   4.077  -0.911  0.00  0.00    +0.026 A 
ENDBRANCH  24  25
ENDBRANCH  23  24
ENDBRANCH  22  23
ENDBRANCH   9  22
TORSDOF 6
