REMARK  Name = ZINC43665973
REMARK  3 active torsions:
REMARK  status: ('A' for Active; 'I' for Inactive)
REMARK    1  A    between atoms: C_1  and  C_2
REMARK    2  A    between atoms: C_8  and  N_10
REMARK    3  A    between atoms: C_11  and  N_16
REMARK                            x       y       z     vdW  Elec       q    Type
REMARK                         _______ _______ _______ _____ _____    ______ ____
ROOT
ATOM      1  N   UNL     1       2.116  -0.004   1.231  0.00  0.00    -0.247 N 
ATOM      2  C   UNL     1       2.688   0.778   2.183  0.00  0.00    +0.129 A 
ATOM      3  C   UNL     1       3.970   1.025   1.795  0.00  0.00    +0.077 A 
ATOM      4  C   UNL     1       4.180   0.375   0.575  0.00  0.00    +0.151 A 
ATOM      5  N   UNL     1       3.077  -0.244   0.241  0.00  0.00    -0.177 NA
ATOM      6 BR   UNL     1       5.239   2.062   2.737  0.00  0.00    -0.045 Br
ENDROOT
BRANCH   1  13
ATOM      7  C   UNL     1      -0.019   1.526   0.010  0.00  0.00    +0.009 C 
ATOM      8  C   UNL     1       0.002  -0.004   0.002  0.00  0.00    +0.011 C 
ATOM      9  C   UNL     1      -1.433  -0.534   0.013  0.00  0.00    +0.005 C 
ATOM     10  C   UNL     1      -1.413  -2.063   0.004  0.00  0.00    +0.000 C 
ATOM     11  C   UNL     1      -0.673  -2.570   1.244  0.00  0.00    +0.002 C 
ATOM     12  C   UNL     1       0.763  -2.041   1.233  0.00  0.00    +0.027 C 
ATOM     13  C   UNL     1       0.742  -0.511   1.242  0.00  0.00    +0.112 C 
ENDBRANCH   1  13
BRANCH   2  14
ATOM     14  N   UNL     1       2.075   1.244   3.344  0.00  0.00    -0.342 N 
ATOM     15  H   UNL     1       1.152   1.012   3.532  0.00  0.00    +0.144 HD
ATOM     16  H   UNL     1       2.571   1.800   3.965  0.00  0.00    +0.144 HD
ENDBRANCH   2  14
TORSDOF 2
