REMARK  Name = ZINC08442117
REMARK  6 active torsions:
REMARK  status: ('A' for Active; 'I' for Inactive)
REMARK    1  A    between atoms: C_1  and  C_2
REMARK    2  A    between atoms: C_5  and  S_8
REMARK    3  A    between atoms: S_8  and  C_9
REMARK    4  A    between atoms: C_9  and  C_10
REMARK    5  A    between atoms: C_17  and  N_32
REMARK    6  A    between atoms: C_18  and  C_30
REMARK                            x       y       z     vdW  Elec       q    Type
REMARK                         _______ _______ _______ _____ _____    ______ ____
ROOT
ATOM      1  C   UNL     1       0.097  -6.482   1.870  0.00  0.00    +0.055 A 
ATOM      2  C   UNL     1      -0.976  -7.285   1.941  0.00  0.00    +0.062 A 
ATOM      3  C   UNL     1      -0.518  -8.617   2.061  0.00  0.00    +0.245 A 
ATOM      4  N   UNL     1       0.782  -8.598   2.060  0.00  0.00    -0.135 NA
ATOM      5  N   UNL     1       1.200  -7.263   1.936  0.00  0.00    -0.277 N 
ATOM      6  H   UNL     1       2.119  -6.954   1.904  0.00  0.00    +0.189 HD
ATOM      7  O   UNL     1      -1.379  -9.667   2.152  0.00  0.00    -0.421 OA
ATOM      8  C   UNL     1      -2.676  -9.442   1.865  0.00  0.00    +0.201 C 
ATOM      9  C   UNL     1      -3.229  -8.216   1.739  0.00  0.00    +0.110 C 
ATOM     10  C   UNL     1      -2.440  -6.948   1.911  0.00  0.00    +0.145 C 
ATOM     11  C   UNL     1      -2.854  -6.212   3.145  0.00  0.00    +0.001 A 
ATOM     12  C   UNL     1      -2.828  -6.571   4.476  0.00  0.00    +0.045 A 
ATOM     13  C   UNL     1      -3.295  -5.631   5.392  0.00  0.00    +0.124 A 
ATOM     14  C   UNL     1      -3.762  -4.397   4.981  0.00  0.00    +0.040 A 
ATOM     15  C   UNL     1      -3.791  -4.032   3.645  0.00  0.00    +0.026 A 
ATOM     16  C   UNL     1      -3.326  -4.965   2.717  0.00  0.00    +0.038 A 
ATOM     17  N   UNL     1      -3.243  -4.867   1.338  0.00  0.00    -0.284 N 
ATOM     18  C   UNL     1      -2.735  -5.987   0.781  0.00  0.00    +0.238 C 
ATOM     19  O   UNL     1      -2.551  -6.185  -0.401  0.00  0.00    -0.274 OA
ATOM     20  F   UNL     1      -3.292  -5.933   6.709  0.00  0.00    -0.205 F 
ATOM     21  H   UNL     1      -3.517  -4.086   0.832  0.00  0.00    +0.155 HD
ENDROOT
BRANCH   8  22
ATOM     22  N   UNL     1      -3.491 -10.533   1.690  0.00  0.00    -0.328 N 
ATOM     23  H   UNL     1      -3.127 -11.428   1.773  0.00  0.00    +0.145 HD
ATOM     24  H   UNL     1      -4.430 -10.408   1.482  0.00  0.00    +0.145 HD
ENDBRANCH   8  22
BRANCH   9  25
ATOM     25  C   UNL     1      -4.624  -8.120   1.428  0.00  0.00    +0.102 C 
ATOM     26  N   UNL     1      -5.730  -8.043   1.181  0.00  0.00    -0.191 NA
ENDBRANCH   9  25
BRANCH   1  27
ATOM     27  C   UNL     1       0.077  -4.981   1.735  0.00  0.00    +0.129 C 
BRANCH  27  28
ATOM     28  S   UNL     1       0.062  -4.533  -0.023  0.00  0.00    -0.119 S 
BRANCH  28  33
ATOM     29  C   UNL     1      -0.018   1.503   0.010  0.00  0.00    +0.044 C 
ATOM     30  C   UNL     1       0.002  -0.004   0.002  0.00  0.00    -0.050 A 
ATOM     31  C   UNL     1       0.006  -0.687  -1.200  0.00  0.00    +0.004 A 
ATOM     32  C   UNL     1       0.024  -2.068  -1.212  0.00  0.00    +0.015 A 
ATOM     33  C   UNL     1       0.039  -2.771  -0.013  0.00  0.00    +0.008 A 
ATOM     34  C   UNL     1       0.036  -2.081   1.193  0.00  0.00    +0.015 A 
ATOM     35  C   UNL     1       0.023  -0.700   1.197  0.00  0.00    +0.004 A 
ENDBRANCH  28  33
ENDBRANCH  27  28
ENDBRANCH   1  27
TORSDOF 5
