REMARK  Name = ZINC44419428
REMARK  5 active torsions:
REMARK  status: ('A' for Active; 'I' for Inactive)
REMARK    1  A    between atoms: C_1  and  C_2
REMARK    2  A    between atoms: C_5  and  C_18
REMARK    3  A    between atoms: C_6  and  N_8
REMARK    4  A    between atoms: N_8  and  C_9
REMARK    5  A    between atoms: C_14  and  C_17
REMARK                            x       y       z     vdW  Elec       q    Type
REMARK                         _______ _______ _______ _____ _____    ______ ____
ROOT
ATOM      1  C   UNL     1      -0.018   1.503   0.010  0.00  0.00    +0.065 C 
ATOM      2  C   UNL     1       0.002  -0.004   0.002  0.00  0.00    +0.040 A 
ATOM      3  C   UNL     1       0.005  -0.676  -1.207  0.00  0.00    +0.024 A 
ATOM      4  C   UNL     1       0.025  -2.060  -1.217  0.00  0.00    +0.024 A 
ATOM      5  C   UNL     1       0.040  -2.734   0.009  0.00  0.00    +0.091 A 
ATOM      6  C   UNL     1       0.035  -1.980   1.196  0.00  0.00    +0.137 A 
ATOM      7  N   UNL     1       0.022  -0.657   1.147  0.00  0.00    -0.236 NA
ENDROOT
BRANCH   6   8
ATOM      8  N   UNL     1       0.050  -2.624   2.420  0.00  0.00    -0.325 N 
ATOM      9  H   UNL     1       0.064  -3.594   2.458  0.00  0.00    +0.148 HD
BRANCH   8  10
ATOM     10  C   UNL     1       0.046  -1.843   3.659  0.00  0.00    +0.072 C 
ATOM     11  C   UNL     1       1.479  -1.444   4.016  0.00  0.00    +0.022 C 
ATOM     12  C   UNL     1       2.325  -2.704   4.212  0.00  0.00    +0.002 C 
ATOM     13  C   UNL     1       1.732  -3.546   5.344  0.00  0.00    +0.003 C 
ATOM     14  C   UNL     1       0.299  -3.944   4.986  0.00  0.00    -0.012 C 
ATOM     15  C   UNL     1      -0.547  -2.685   4.791  0.00  0.00    +0.025 C 
ATOM     16  C   UNL     1      -0.293  -4.786   6.118  0.00  0.00    +0.007 C 
ENDBRANCH   8  10
ENDBRANCH   6   8
BRANCH   5  17
ATOM     17  C   UNL     1       0.060  -4.165   0.054  0.00  0.00    +0.103 C 
ATOM     18  N   UNL     1       0.075  -5.300   0.090  0.00  0.00    -0.191 NA
ENDBRANCH   5  17
TORSDOF 3
