REMARK  Name = ZINC35365843
REMARK  10 active torsions:
REMARK  status: ('A' for Active; 'I' for Inactive)
REMARK    1  A    between atoms: C_1  and  C_2
REMARK    2  A    between atoms: C_2  and  C_4
REMARK    3  A    between atoms: C_2  and  N_11
REMARK    4  A    between atoms: N_9  and  C_10
REMARK    5  A    between atoms: N_11  and  C_12
REMARK    6  A    between atoms: N_11  and  C_20
REMARK    7  A    between atoms: C_12  and  C_13
REMARK    8  A    between atoms: C_18  and  N_19
REMARK    9  A    between atoms: C_20  and  C_21
REMARK   10  A    between atoms: C_20  and  C_22
REMARK                            x       y       z     vdW  Elec       q    Type
REMARK                         _______ _______ _______ _____ _____    ______ ____
ROOT
ATOM      1  N   UNL     1      -1.525   0.956   0.818  0.00  0.00    +0.391 N 
ATOM      2  H   UNL     1      -2.483   1.034   0.513  0.00  0.00    -0.080 HD
ENDROOT
BRANCH   1   3
ATOM      3  C   UNL     1      -1.082   2.240   1.378  0.00  0.00    -0.073 C 
ATOM      4  C   UNL     1       0.333   2.091   1.939  0.00  0.00    -0.013 C 
ATOM      5  C   UNL     1      -1.086   3.304   0.279  0.00  0.00    -0.013 C 
ENDBRANCH   1   3
BRANCH   1   7
ATOM      6  C   UNL     1      -1.508  -0.144  -1.370  0.00  0.00    -0.004 C 
ATOM      7  C   UNL     1      -0.674   0.602  -0.326  0.00  0.00    +0.017 C 
BRANCH   7   8
ATOM      8  C   UNL     1       0.454  -0.282   0.141  0.00  0.00    +0.207 C 
ATOM      9  O   UNL     1       0.212  -1.357   0.646  0.00  0.00    -0.277 OA
ATOM     10  N   UNL     1       1.731   0.124  -0.003  0.00  0.00    -0.242 N 
ATOM     11  C   UNL     1       2.740  -0.666   0.415  0.00  0.00    +0.306 C 
ATOM     12  O   UNL     1       2.498  -1.744   0.922  0.00  0.00    -0.252 OA
ATOM     13  N   UNL     1       4.017  -0.261   0.271  0.00  0.00    -0.302 N 
ATOM     14  C   UNL     1       5.114  -1.120   0.725  0.00  0.00    +0.129 C 
ATOM     15  H   UNL     1       1.925   0.984  -0.407  0.00  0.00    +0.159 HD
ATOM     16  H   UNL     1       4.211   0.599  -0.133  0.00  0.00    +0.150 HD
ENDBRANCH   7   8
ENDBRANCH   1   7
BRANCH   1  17
ATOM     17  C   UNL     1      -1.422  -0.088   1.847  0.00  0.00    -0.040 C 
BRANCH  17  18
ATOM     18  C   UNL     1      -2.384   0.214   2.966  0.00  0.00    -0.043 A 
ATOM     19  C   UNL     1      -1.912   0.684   4.176  0.00  0.00    +0.003 A 
ATOM     20  C   UNL     1      -2.794   0.961   5.204  0.00  0.00    +0.000 A 
ATOM     21  C   UNL     1      -4.152   0.767   5.025  0.00  0.00    +0.002 A 
ATOM     22  C   UNL     1      -4.631   0.297   3.818  0.00  0.00    +0.023 A 
ATOM     23  C   UNL     1      -3.748   0.024   2.781  0.00  0.00    +0.026 A 
BRANCH  23  24
ATOM     24  N   UNL     1      -4.229  -0.447   1.558  0.00  0.00    -0.358 N 
ATOM     25  H   UNL     1      -3.611  -0.641   0.836  0.00  0.00    +0.142 HD
ATOM     26  H   UNL     1      -5.182  -0.579   1.430  0.00  0.00    +0.142 HD
ENDBRANCH  23  24
ENDBRANCH  17  18
ENDBRANCH   1  17
TORSDOF 6
