REMARK  Name = ZINC05207650
REMARK  2 active torsions:
REMARK  status: ('A' for Active; 'I' for Inactive)
REMARK    1  A    between atoms: C_4  and  N_7
REMARK    2  A    between atoms: C_22  and  N_53
REMARK                            x       y       z     vdW  Elec       q    Type
REMARK                         _______ _______ _______ _____ _____    ______ ____
ROOT
ATOM      1  N   UNL     1      -0.193  -2.667   0.866  0.00  0.00    -0.299 N 
ATOM      2  C   UNL     1       0.622  -1.831   1.619  0.00  0.00    +0.127 A 
ATOM      3  C   UNL     1       0.778  -0.494   1.227  0.00  0.00    -0.020 A 
ATOM      4  C   UNL     1       1.574   0.327   1.966  0.00  0.00    -0.030 A 
ATOM      5  C   UNL     1       2.216  -0.203   3.095  0.00  0.00    +0.063 A 
ATOM      6  C   UNL     1       3.122   0.351   4.101  0.00  0.00    +0.147 A 
ATOM      7  N   UNL     1       3.413  -0.609   4.939  0.00  0.00    -0.157 NA
ATOM      8  N   UNL     1       2.757  -1.786   4.564  0.00  0.00    -0.258 N 
ATOM      9  H   UNL     1       2.817  -2.660   5.046  0.00  0.00    +0.191 HD
ATOM     10  C   UNL     1       2.019  -1.554   3.436  0.00  0.00    +0.160 A 
ATOM     11  N   UNL     1       1.230  -2.315   2.686  0.00  0.00    -0.213 NA
ATOM     12  N   UNL     1       3.592   1.665   4.156  0.00  0.00    -0.341 N 
ATOM     13  C   UNL     1       1.781   1.773   1.608  0.00  0.00    +0.018 C 
ATOM     14  C   UNL     1       1.346   2.021   0.163  0.00  0.00    -0.073 C 
ATOM     15  C   UNL     1       0.059  -0.010  -0.003  0.00  0.00    -0.039 C 
ATOM     16  H   UNL     1      -0.709  -2.306   0.128  0.00  0.00    +0.154 HD
ATOM     17  H   UNL     1       3.316   2.307   3.483  0.00  0.00    +0.144 HD
ATOM     18  H   UNL     1       4.194   1.936   4.867  0.00  0.00    +0.144 HD
ATOM     19  N   UNL     1      -0.012   1.461  -0.002  0.00  0.00    +0.385 N 
ATOM     20  H   UNL     1      -0.599   1.768   0.783  0.00  0.00    -0.081 HD
ENDROOT
BRANCH   1  24
ATOM     21  C   UNL     1      -0.422  -6.724   1.778  0.00  0.00    +0.000 A 
ATOM     22  C   UNL     1      -1.533  -6.064   1.284  0.00  0.00    +0.002 A 
ATOM     23  C   UNL     1      -1.460  -4.719   0.981  0.00  0.00    +0.023 A 
ATOM     24  C   UNL     1      -0.270  -4.029   1.172  0.00  0.00    +0.032 A 
ATOM     25  C   UNL     1       0.845  -4.696   1.663  0.00  0.00    +0.023 A 
ATOM     26  C   UNL     1       0.764  -6.040   1.969  0.00  0.00    +0.002 A 
ENDBRANCH   1  24
BRANCH  19  27
ATOM     27  C   UNL     1      -0.610   1.941  -1.266  0.00  0.00    -0.068 C 
ATOM     28  C   UNL     1       0.287   1.575  -2.451  0.00  0.00    -0.015 C 
ATOM     29  C   UNL     1      -0.349   2.082  -3.747  0.00  0.00    -0.002 C 
ATOM     30  C   UNL     1      -0.507   3.602  -3.678  0.00  0.00    -0.000 C 
ATOM     31  C   UNL     1      -1.403   3.968  -2.493  0.00  0.00    -0.002 C 
ATOM     32  C   UNL     1      -0.768   3.461  -1.197  0.00  0.00    -0.015 C 
ENDBRANCH  19  27
TORSDOF 2
