REMARK  Name = ZINC40867542
REMARK  6 active torsions:
REMARK  status: ('A' for Active; 'I' for Inactive)
REMARK    1  A    between atoms: C_1  and  C_2
REMARK    2  A    between atoms: N_4  and  N_5
REMARK    3  A    between atoms: C_9  and  C_10
REMARK    4  A    between atoms: C_13  and  O_17
REMARK    5  A    between atoms: C_14  and  O_16
REMARK    6  A    between atoms: O_17  and  C_18
REMARK                            x       y       z     vdW  Elec       q    Type
REMARK                         _______ _______ _______ _____ _____    ______ ____
ROOT
ATOM      1  N   UNL     1      -0.148  -2.179  -2.225  0.00  0.00    -0.170 N 
ATOM      2  C   UNL     1       1.031  -2.776  -2.188  0.00  0.00    +0.275 C 
ATOM      3  O   UNL     1       2.062  -2.171  -2.416  0.00  0.00    -0.267 OA
ATOM      4  C   UNL     1       1.033  -4.215  -1.854  0.00  0.00    +0.079 C 
ATOM      5  C   UNL     1       2.077  -5.075  -1.744  0.00  0.00    +0.028 C 
ATOM      6  S   UNL     1      -0.716  -4.511  -1.636  0.00  0.00    -0.059 S 
ATOM      7  C   UNL     1      -1.288  -2.852  -1.966  0.00  0.00    +0.138 C 
ATOM      8  S   UNL     1      -2.894  -2.260  -1.958  0.00  0.00    -0.026 S 
ENDROOT
BRANCH   5   9
ATOM      9  C   UNL     1       1.829  -6.511  -1.563  0.00  0.00    -0.020 A 
ATOM     10  C   UNL     1       0.565  -7.046  -1.841  0.00  0.00    +0.012 A 
ATOM     11  C   UNL     1       0.336  -8.394  -1.671  0.00  0.00    +0.050 A 
ATOM     12  C   UNL     1       1.354  -9.224  -1.224  0.00  0.00    +0.161 A 
ATOM     13  C   UNL     1       2.616  -8.700  -0.944  0.00  0.00    +0.159 A 
ATOM     14  C   UNL     1       2.857  -7.351  -1.117  0.00  0.00    +0.057 A 
BRANCH  13  15
ATOM     15  O   UNL     1       3.610  -9.518  -0.505  0.00  0.00    -0.503 OA
ATOM     16  H   UNL     1       4.144  -9.902  -1.214  0.00  0.00    +0.292 HD
ENDBRANCH  13  15
BRANCH  12  17
ATOM     17  O   UNL     1       1.121 -10.552  -1.058  0.00  0.00    -0.491 OA
ATOM     18  C   UNL     1      -0.193 -11.024  -1.363  0.00  0.00    +0.277 C 
ENDBRANCH  12  17
ENDBRANCH   5   9
BRANCH   1  22
ATOM     19  C   UNL     1      -0.521   1.555  -1.895  0.00  0.00    +0.111 C 
ATOM     20  C   UNL     1      -0.450   0.087  -1.561  0.00  0.00    +0.226 C 
ATOM     21  O   UNL     1      -0.603  -0.283  -0.416  0.00  0.00    -0.275 OA
ATOM     22  N   UNL     1      -0.215  -0.814  -2.535  0.00  0.00    -0.226 N 
ATOM     23  H   UNL     1      -0.093  -0.518  -3.451  0.00  0.00    +0.173 HD
ENDBRANCH   1  22
TORSDOF 4
