REMARK  Name = ZINC39662535
REMARK  7 active torsions:
REMARK  status: ('A' for Active; 'I' for Inactive)
REMARK    1  A    between atoms: C_4  and  C_7
REMARK    2  A    between atoms: C_7  and  C_9
REMARK    3  A    between atoms: C_7  and  N_11
REMARK    4  A    between atoms: C_12  and  C_14
REMARK    5  A    between atoms: C_25  and  C_27
REMARK    6  A    between atoms: C_30  and  O_33
REMARK    7  A    between atoms: O_33  and  C_34
REMARK                            x       y       z     vdW  Elec       q    Type
REMARK                         _______ _______ _______ _____ _____    ______ ____
ROOT
ATOM      1  C   UNL     1       4.532  -2.663   2.842  0.00  0.00    +0.100 C 
ATOM      2  C   UNL     1       3.739  -2.647   4.169  0.00  0.00    +0.121 C 
ATOM      3  N   UNL     1       4.514  -3.525   5.078  0.00  0.00    -0.296 N 
ATOM      4  C   UNL     1       5.931  -3.209   4.776  0.00  0.00    +0.115 C 
ATOM      5  C   UNL     1       5.969  -3.031   3.245  0.00  0.00    -0.004 C 
ATOM      6  C   UNL     1       6.928  -1.906   2.870  0.00  0.00    -0.010 C 
ATOM      7  C   UNL     1       8.359  -2.319   3.227  0.00  0.00    -0.082 C 
ATOM      8  N   UNL     1       8.709  -3.549   2.506  0.00  0.00    +0.379 N 
ATOM      9  C   UNL     1       7.841  -4.650   2.942  0.00  0.00    -0.082 C 
ATOM     10  C   UNL     1       6.389  -4.335   2.573  0.00  0.00    -0.010 C 
ATOM     11  C   UNL     1       4.038  -4.410   5.976  0.00  0.00    +0.248 C 
ATOM     12  O   UNL     1       2.847  -4.652   6.018  0.00  0.00    -0.270 OA
ATOM     13  H   UNL     1       8.590  -3.401   1.515  0.00  0.00    -0.086 HD
ATOM     14  H   UNL     1       9.671  -3.786   2.695  0.00  0.00    -0.086 HD
ENDROOT
BRANCH  11  15
ATOM     15  C   UNL     1       4.962  -5.084   6.909  0.00  0.00    +0.055 A 
ATOM     16  C   UNL     1       6.231  -4.546   7.167  0.00  0.00    +0.020 A 
ATOM     17  C   UNL     1       7.059  -5.213   8.046  0.00  0.00    +0.068 A 
ATOM     18  C   UNL     1       6.612  -6.388   8.644  0.00  0.00    +0.220 A 
ATOM     19  N   UNL     1       5.408  -6.871   8.379  0.00  0.00    -0.220 NA
ATOM     20  C   UNL     1       4.583  -6.264   7.551  0.00  0.00    +0.127 A 
BRANCH  18  21
ATOM     21  O   UNL     1       7.421  -7.047   9.508  0.00  0.00    -0.438 OA
BRANCH  21  22
ATOM     22  C   UNL     1       6.919  -8.137  10.146  0.00  0.00    +0.130 A 
ATOM     23  C   UNL     1       6.842  -9.355   9.486  0.00  0.00    +0.046 A 
ATOM     24  C   UNL     1       6.332 -10.461  10.137  0.00  0.00    +0.004 A 
ATOM     25  C   UNL     1       5.897 -10.355  11.446  0.00  0.00    +0.000 A 
ATOM     26  C   UNL     1       5.973  -9.143  12.106  0.00  0.00    +0.004 A 
ATOM     27  C   UNL     1       6.488  -8.035  11.461  0.00  0.00    +0.046 A 
ENDBRANCH  21  22
ENDBRANCH  18  21
ENDBRANCH  11  15
BRANCH   1  29
ATOM     28  N   UNL     1       4.581  -1.190   0.856  0.00  0.00    -0.296 N 
ATOM     29  C   UNL     1       4.500  -1.302   2.196  0.00  0.00    +0.219 C 
ATOM     30  O   UNL     1       4.402  -0.307   2.883  0.00  0.00    -0.275 OA
ATOM     31  H   UNL     1       4.660  -1.986   0.307  0.00  0.00    +0.150 HD
BRANCH  28  32
ATOM     32  C   UNL     1       4.551   0.133   0.227  0.00  0.00    +0.207 C 
BRANCH  32  36
ATOM     33  C   UNL     1       3.125  -0.226  -3.783  0.00  0.00    +0.000 A 
ATOM     34  C   UNL     1       2.721   0.838  -2.999  0.00  0.00    +0.000 A 
ATOM     35  C   UNL     1       3.183   0.954  -1.701  0.00  0.00    +0.006 A 
ATOM     36  C   UNL     1       4.047   0.006  -1.187  0.00  0.00    -0.013 A 
ATOM     37  C   UNL     1       4.450  -1.059  -1.971  0.00  0.00    +0.006 A 
ATOM     38  C   UNL     1       3.990  -1.175  -3.270  0.00  0.00    +0.000 A 
ENDBRANCH  32  36
BRANCH  32  39
ATOM     39  C   UNL     1       5.908   0.702   0.216  0.00  0.00    +0.090 C 
ATOM     40  N   UNL     1       6.956   1.141   0.207  0.00  0.00    -0.194 NA
ENDBRANCH  32  39
ENDBRANCH  28  32
ENDBRANCH   1  29
TORSDOF 7
