REMARK  Name = ZINC09820677
REMARK  6 active torsions:
REMARK  status: ('A' for Active; 'I' for Inactive)
REMARK    1  A    between atoms: C_1  and  C_2
REMARK    2  A    between atoms: C_5  and  N_8
REMARK    3  A    between atoms: C_13  and  C_17
REMARK    4  A    between atoms: N_15  and  C_16
REMARK    5  A    between atoms: N_19  and  C_20
REMARK    6  A    between atoms: C_20  and  C_21
REMARK                            x       y       z     vdW  Elec       q    Type
REMARK                         _______ _______ _______ _____ _____    ______ ____
ROOT
ATOM      1  N   UNL     1      -0.435   1.367  -7.682  0.00  0.00    -0.227 N 
ATOM      2  C   UNL     1      -1.085   2.413  -7.132  0.00  0.00    +0.285 A 
ATOM      3  O   UNL     1      -1.566   3.279  -7.840  0.00  0.00    -0.265 OA
ATOM      4  C   UNL     1      -1.202   2.493  -5.724  0.00  0.00    +0.132 A 
ATOM      5  C   UNL     1      -0.636   1.491  -4.951  0.00  0.00    +0.086 A 
ATOM      6  C   UNL     1      -0.903   1.817  -3.599  0.00  0.00    +0.078 A 
ATOM      7  C   UNL     1      -1.610   3.005  -3.600  0.00  0.00    +0.101 A 
ATOM      8  N   UNL     1      -1.787   3.406  -4.870  0.00  0.00    -0.344 N 
ATOM      9  C   UNL     1      -2.491   4.622  -5.284  0.00  0.00    +0.149 C 
ATOM     10  N   UNL     1       0.013   0.439  -5.573  0.00  0.00    -0.305 N 
ATOM     11  H   UNL     1       0.408  -0.269  -5.041  0.00  0.00    +0.170 HD
ATOM     12  C   UNL     1       0.102   0.402  -6.916  0.00  0.00    +0.334 A 
ATOM     13  O   UNL     1       0.680  -0.526  -7.448  0.00  0.00    -0.246 OA
ENDROOT
BRANCH   1  18
ATOM     14  C   UNL     1       0.038   1.037 -13.328  0.00  0.00    +0.044 C 
ATOM     15  C   UNL     1      -0.087   1.124 -11.828  0.00  0.00    -0.050 A 
ATOM     16  C   UNL     1      -1.175   0.554 -11.193  0.00  0.00    +0.005 A 
ATOM     17  C   UNL     1      -1.293   0.633  -9.819  0.00  0.00    +0.026 A 
ATOM     18  C   UNL     1      -0.318   1.285  -9.076  0.00  0.00    +0.054 A 
ATOM     19  C   UNL     1       0.770   1.861  -9.718  0.00  0.00    +0.026 A 
ATOM     20  C   UNL     1       0.885   1.774 -11.091  0.00  0.00    +0.005 A 
ENDBRANCH   1  18
BRANCH   6  21
ATOM     21  C   UNL     1      -0.499   1.042  -2.416  0.00  0.00    +0.248 C 
ATOM     22  O   UNL     1       0.125   0.006  -2.551  0.00  0.00    -0.270 OA
ATOM     23  N   UNL     1      -0.819   1.478  -1.182  0.00  0.00    -0.304 N 
ATOM     24  H   UNL     1      -1.317   2.304  -1.073  0.00  0.00    +0.149 HD
BRANCH  23  25
ATOM     25  C   UNL     1      -0.417   0.706  -0.004  0.00  0.00    +0.179 C 
BRANCH  25  26
ATOM     26  C   UNL     1      -0.894   1.405   1.243  0.00  0.00    +0.122 A 
ATOM     27  C   UNL     1      -2.080   1.213   1.848  0.00  0.00    +0.046 A 
ATOM     28  C   UNL     1      -2.110   2.068   2.973  0.00  0.00    +0.041 A 
ATOM     29  C   UNL     1      -0.940   2.732   2.989  0.00  0.00    +0.195 A 
ATOM     30  O   UNL     1      -0.206   2.323   1.941  0.00  0.00    -0.466 OA
ENDBRANCH  25  26
ENDBRANCH  23  25
ENDBRANCH   6  21
TORSDOF 4
