REMARK  Name = ZINC37909650
REMARK  6 active torsions:
REMARK  status: ('A' for Active; 'I' for Inactive)
REMARK    1  A    between atoms: C_1  and  C_2
REMARK    2  A    between atoms: C_8  and  C_10
REMARK    3  A    between atoms: C_12  and  N_18
REMARK    4  A    between atoms: N_14  and  C_15
REMARK    5  A    between atoms: C_15  and  C_16
REMARK    6  A    between atoms: C_15  and  C_17
REMARK                            x       y       z     vdW  Elec       q    Type
REMARK                         _______ _______ _______ _____ _____    ______ ____
ROOT
ATOM      1  C   UNL     1       1.368  -0.556   3.556  0.00  0.00    +0.107 A 
ATOM      2  C   UNL     1       1.101  -0.449   4.905  0.00  0.00    +0.055 A 
ATOM      3  C   UNL     1       2.024  -1.264   5.574  0.00  0.00    +0.043 A 
ATOM      4  C   UNL     1       2.822  -1.842   4.639  0.00  0.00    +0.109 A 
ATOM      5  N   UNL     1       2.427  -1.421   3.407  0.00  0.00    -0.339 N 
ENDROOT
BRANCH   1  12
ATOM      6  C   UNL     1      -1.705   0.774   0.626  0.00  0.00    +0.028 C 
ATOM      7  C   UNL     1      -1.222   1.647   1.786  0.00  0.00    +0.073 C 
ATOM      8  C   UNL     1      -2.433   2.241   2.535  0.00  0.00    +0.024 C 
ATOM      9  C   UNL     1      -2.612   1.271   3.732  0.00  0.00    +0.021 C 
ATOM     10  C   UNL     1      -1.143   0.907   4.060  0.00  0.00    +0.108 C 
ATOM     11  N   UNL     1      -0.469   0.829   2.747  0.00  0.00    -0.294 N 
ATOM     12  C   UNL     1       0.648   0.125   2.475  0.00  0.00    +0.263 C 
ATOM     13  O   UNL     1       1.059   0.055   1.331  0.00  0.00    -0.268 OA
ENDBRANCH   1  12
BRANCH   5  14
ATOM     14  C   UNL     1       3.031  -1.821   2.134  0.00  0.00    +0.081 C 
ATOM     15  C   UNL     1       4.465  -1.293   2.062  0.00  0.00    +0.030 C 
ATOM     16  C   UNL     1       3.043  -3.347   2.032  0.00  0.00    +0.030 C 
ENDBRANCH   5  14
BRANCH   3  17
ATOM     17  N   UNL     1       2.110  -1.450   6.967  0.00  0.00    -0.357 N 
ATOM     18  H   UNL     1       1.491  -0.991   7.556  0.00  0.00    +0.142 HD
ATOM     19  H   UNL     1       2.787  -2.038   7.337  0.00  0.00    +0.142 HD
ENDBRANCH   3  17
TORSDOF 3
