REMARK  Name = ZINC01057858
REMARK  4 active torsions:
REMARK  status: ('A' for Active; 'I' for Inactive)
REMARK    1  A    between atoms: C_1  and  C_2
REMARK    2  A    between atoms: C_3  and  C_13
REMARK    3  A    between atoms: N_15  and  N_16
REMARK    4  A    between atoms: C_17  and  C_18
REMARK                            x       y       z     vdW  Elec       q    Type
REMARK                         _______ _______ _______ _____ _____    ______ ____
ROOT
ATOM      1  C   UNL     1      -2.887   8.557   0.064  0.00  0.00    +0.068 C 
ATOM      2  C   UNL     1      -3.989   7.530   0.062  0.00  0.00    +0.076 A 
ATOM      3  C   UNL     1      -3.837   6.172   0.054  0.00  0.00    +0.172 A 
ATOM      4  N   UNL     1      -5.057   5.607   0.051  0.00  0.00    -0.124 NA
ATOM      5  N   UNL     1      -5.958   6.526   0.065  0.00  0.00    -0.058 NA
ATOM      6  N   UNL     1      -5.318   7.774   0.069  0.00  0.00    -0.192 N 
ATOM      7  C   UNL     1      -5.937   9.029   0.079  0.00  0.00    +0.240 A 
ATOM      8  C   UNL     1      -7.382   9.273   0.087  0.00  0.00    +0.206 A 
ATOM      9  N   UNL     1      -7.580  10.563   0.096  0.00  0.00    -0.032 NA
ATOM     10  O   UNL     1      -6.313  11.196   0.094  0.00  0.00    -0.239 OA
ATOM     11  N   UNL     1      -5.326  10.180   0.089  0.00  0.00    -0.027 NA
ATOM     12  N   UNL     1      -8.372   8.297   0.085  0.00  0.00    -0.337 N 
ATOM     13  H   UNL     1      -8.128   7.359   0.078  0.00  0.00    +0.144 HD
ATOM     14  H   UNL     1      -9.307   8.556   0.090  0.00  0.00    +0.144 HD
ENDROOT
BRANCH   3  15
ATOM     15  C   UNL     1      -2.552   5.449   0.044  0.00  0.00    +0.285 C 
ATOM     16  O   UNL     1      -1.505   6.068   0.042  0.00  0.00    -0.267 OA
ATOM     17  N   UNL     1      -2.537   4.101   0.036  0.00  0.00    -0.202 N 
ATOM     18  H   UNL     1      -3.372   3.607   0.038  0.00  0.00    +0.178 HD
BRANCH  17  19
ATOM     19  N   UNL     1      -1.316   3.414   0.027  0.00  0.00    -0.187 NA
ATOM     20  C   UNL     1      -1.302   2.116   0.020  0.00  0.00    +0.138 C 
BRANCH  20  21
ATOM     21  C   UNL     1      -0.017   1.393   0.010  0.00  0.00    -0.004 A 
ATOM     22  C   UNL     1       0.002  -0.004   0.002  0.00  0.00    +0.009 A 
ATOM     23  C   UNL     1       1.207  -0.674  -0.013  0.00  0.00    +0.002 A 
ATOM     24  C   UNL     1       2.396   0.034  -0.021  0.00  0.00    +0.014 A 
ATOM     25  C   UNL     1       2.386   1.418  -0.013  0.00  0.00    +0.014 A 
ATOM     26  C   UNL     1       1.187   2.101   0.002  0.00  0.00    +0.023 A 
ATOM     27  I   UNL     1       4.193   2.477  -0.025  0.00  0.00    -0.044 I 
ENDBRANCH  20  21
ENDBRANCH  17  19
ENDBRANCH   3  15
TORSDOF 3
