REMARK  Name = ZINC54871355
REMARK  6 active torsions:
REMARK  status: ('A' for Active; 'I' for Inactive)
REMARK    1  A    between atoms: C_1  and  C_2
REMARK    2  A    between atoms: C_2  and  C_3
REMARK    3  A    between atoms: C_3  and  C_4
REMARK    4  A    between atoms: C_9  and  C_12
REMARK    5  A    between atoms: N_14  and  N_15
REMARK    6  A    between atoms: C_16  and  C_18
REMARK                            x       y       z     vdW  Elec       q    Type
REMARK                         _______ _______ _______ _____ _____    ______ ____
ROOT
ATOM      1  C   UNL     1      -5.663  -4.585   2.229  0.00  0.00    +0.232 C 
ATOM      2  O   UNL     1      -6.132  -3.809   3.035  0.00  0.00    -0.274 OA
ATOM      3  N   UNL     1      -5.904  -5.905   2.347  0.00  0.00    -0.234 N 
ATOM      4  H   UNL     1      -5.529  -6.526   1.702  0.00  0.00    +0.173 HD
ENDROOT
BRANCH   1  10
ATOM      5  C   UNL     1      -1.413  -2.041   0.005  0.00  0.00    +0.216 C 
ATOM      6  O   UNL     1      -0.354  -2.632  -0.009  0.00  0.00    -0.276 OA
ATOM      7  N   UNL     1      -2.571  -2.730   0.012  0.00  0.00    -0.301 N 
ATOM      8  C   UNL     1      -3.861  -2.027   0.022  0.00  0.00    +0.108 C 
ATOM      9  C   UNL     1      -4.698  -2.549   1.194  0.00  0.00    +0.032 C 
ATOM     10  C   UNL     1      -4.812  -4.071   1.096  0.00  0.00    +0.079 C 
ATOM     11  C   UNL     1      -3.418  -4.697   1.182  0.00  0.00    +0.032 C 
ATOM     12  C   UNL     1      -2.567  -4.199   0.004  0.00  0.00    +0.108 C 
BRANCH   5  13
ATOM     13  C   UNL     1      -1.433  -0.534   0.013  0.00  0.00    +0.096 C 
BRANCH  13  15
ATOM     14  C   UNL     1      -0.019   1.526   0.010  0.00  0.00    +0.004 C 
ATOM     15  C   UNL     1       0.002  -0.004   0.002  0.00  0.00    +0.006 C 
ENDBRANCH  13  15
ENDBRANCH   5  13
ENDBRANCH   1  10
BRANCH   3  16
ATOM     16  N   UNL     1      -6.695  -6.383   3.400  0.00  0.00    -0.231 N 
ATOM     17  C   UNL     1      -6.936  -7.704   3.517  0.00  0.00    +0.273 C 
ATOM     18  O   UNL     1      -6.467  -8.479   2.711  0.00  0.00    -0.270 OA
ATOM     19  H   UNL     1      -7.070  -5.762   4.045  0.00  0.00    +0.173 HD
BRANCH  17  20
ATOM     20  C   UNL     1      -7.787  -8.217   4.650  0.00  0.00    +0.297 C 
ATOM     21  C   UNL     1      -9.225  -7.705   4.490  0.00  0.00    +0.283 C 
ATOM     22  O   UNL     1     -10.007  -8.222   5.572  0.00  0.00    -0.484 OA
ATOM     23  C   UNL     1      -9.862  -9.545   5.855  0.00  0.00    +0.162 A 
ATOM     24  C   UNL     1     -10.823 -10.187   6.622  0.00  0.00    +0.049 A 
ATOM     25  C   UNL     1     -10.687 -11.529   6.920  0.00  0.00    +0.004 A 
ATOM     26  C   UNL     1      -9.594 -12.236   6.455  0.00  0.00    +0.004 A 
ATOM     27  C   UNL     1      -8.633 -11.603   5.690  0.00  0.00    +0.049 A 
ATOM     28  C   UNL     1      -8.764 -10.256   5.386  0.00  0.00    +0.163 A 
ATOM     29  O   UNL     1      -7.813  -9.648   4.624  0.00  0.00    -0.472 OA
ENDBRANCH  17  20
ENDBRANCH   3  16
TORSDOF 5
