REMARK  Name = ZINC40380803
REMARK  8 active torsions:
REMARK  status: ('A' for Active; 'I' for Inactive)
REMARK    1  A    between atoms: C_1  and  C_2
REMARK    2  A    between atoms: C_2  and  C_3
REMARK    3  A    between atoms: C_2  and  C_4
REMARK    4  A    between atoms: C_2  and  S_5
REMARK    5  A    between atoms: S_5  and  C_6
REMARK    6  A    between atoms: C_6  and  C_7
REMARK    7  A    between atoms: N_12  and  S_15
REMARK    8  A    between atoms: S_15  and  N_18
REMARK                            x       y       z     vdW  Elec       q    Type
REMARK                         _______ _______ _______ _____ _____    ______ ____
ROOT
ATOM      1  C   UNL     1       3.338  -0.298  -2.546  0.00  0.00    +0.226 C 
ATOM      2  O   UNL     1       2.848  -1.001  -3.405  0.00  0.00    -0.275 OA
ATOM      3  N   UNL     1       4.617   0.111  -2.659  0.00  0.00    -0.298 N 
ATOM      4  C   UNL     1       5.226   0.957  -1.623  0.00  0.00    +0.125 C 
ATOM      5  C   UNL     1       6.503   0.274  -1.120  0.00  0.00    +0.129 C 
ATOM      6  N   UNL     1       7.314  -0.118  -2.281  0.00  0.00    -0.164 NA
ATOM      7  C   UNL     1       6.706  -0.965  -3.317  0.00  0.00    +0.129 C 
ATOM      8  C   UNL     1       5.430  -0.285  -3.818  0.00  0.00    +0.125 C 
ENDROOT
BRANCH   6   9
ATOM      9  S   UNL     1       8.886   0.385  -2.420  0.00  0.00    +0.095 S 
ATOM     10  O   UNL     1       9.203   0.349  -3.805  0.00  0.00    -0.141 OA
ATOM     11  O   UNL     1       9.004   1.568  -1.642  0.00  0.00    -0.141 OA
BRANCH   9  12
ATOM     12  N   UNL     1       9.833  -0.760  -1.688  0.00  0.00    -0.193 NA
ATOM     13  H   UNL     1       9.424  -1.542  -1.285  0.00  0.00    +0.145 HD
ATOM     14  H   UNL     1      10.796  -0.648  -1.662  0.00  0.00    +0.145 HD
ENDBRANCH   9  12
ENDBRANCH   6   9
BRANCH   1  15
ATOM     15  C   UNL     1       2.517   0.116  -1.353  0.00  0.00    +0.165 C 
BRANCH  15  16
ATOM     16  S   UNL     1       0.851  -0.589  -1.490  0.00  0.00    -0.145 S 
BRANCH  16  18
ATOM     17  C   UNL     1      -0.019   1.526   0.010  0.00  0.00    +0.022 C 
ATOM     18  C   UNL     1       0.002  -0.004   0.002  0.00  0.00    +0.009 C 
ATOM     19  C   UNL     1       0.742  -0.511   1.242  0.00  0.00    +0.022 C 
ATOM     20  C   UNL     1      -1.433  -0.534   0.013  0.00  0.00    +0.022 C 
ENDBRANCH  16  18
ENDBRANCH  15  16
ENDBRANCH   1  15
TORSDOF 5
