REMARK  Name = ZINC61092779
REMARK  4 active torsions:
REMARK  status: ('A' for Active; 'I' for Inactive)
REMARK    1  A    between atoms: C_1  and  C_2
REMARK    2  A    between atoms: C_3  and  N_20
REMARK    3  A    between atoms: C_4  and  C_8
REMARK    4  A    between atoms: N_10  and  C_11
REMARK                            x       y       z     vdW  Elec       q    Type
REMARK                         _______ _______ _______ _____ _____    ______ ____
ROOT
ATOM      1  C   UNL     1       0.049  -3.372  -1.393  0.00  0.00    +0.270 C 
ATOM      2  O   UNL     1       0.039  -3.313  -2.607  0.00  0.00    -0.268 OA
ATOM      3  N   UNL     1       0.062  -4.571  -0.776  0.00  0.00    -0.278 N 
ATOM      4  H   UNL     1       0.136  -4.618   0.190  0.00  0.00    +0.155 HD
ENDROOT
BRANCH   3   5
ATOM      5  C   UNL     1      -0.031  -5.747  -1.530  0.00  0.00    +0.072 A 
ATOM      6  C   UNL     1       0.555  -5.816  -2.787  0.00  0.00    +0.067 A 
ATOM      7  C   UNL     1       0.462  -6.979  -3.530  0.00  0.00    +0.160 A 
ATOM      8  C   UNL     1      -0.216  -8.076  -3.020  0.00  0.00    +0.161 A 
ATOM      9  C   UNL     1      -0.801  -8.010  -1.768  0.00  0.00    +0.081 A 
ATOM     10  C   UNL     1      -0.705  -6.850  -1.019  0.00  0.00    +0.147 A 
ATOM     11  F   UNL     1      -1.272  -6.788   0.206  0.00  0.00    -0.203 F 
ATOM     12  F   UNL     1      -0.306  -9.211  -3.748  0.00  0.00    -0.202 F 
ATOM     13  F   UNL     1       1.032  -7.046  -4.753  0.00  0.00    -0.202 F 
ENDBRANCH   3   5
BRANCH   1  17
ATOM     14  C   UNL     1       0.030   1.504   0.007  0.00  0.00    +0.067 C 
ATOM     15  C   UNL     1       0.039  -0.003  -0.000  0.00  0.00    +0.054 A 
ATOM     16  C   UNL     1       0.035  -0.806  -1.097  0.00  0.00    +0.078 A 
ATOM     17  C   UNL     1       0.048  -2.133  -0.595  0.00  0.00    +0.168 A 
ATOM     18  N   UNL     1       0.058  -2.048   0.722  0.00  0.00    -0.167 NA
ATOM     19  N   UNL     1       0.058  -0.816   1.088  0.00  0.00    -0.279 N 
ATOM     20  H   UNL     1       0.068  -0.511   2.009  0.00  0.00    +0.189 HD
BRANCH  16  21
ATOM     21  N   UNL     1       0.021  -0.407  -2.442  0.00  0.00    -0.355 N 
ATOM     22  H   UNL     1       0.013   0.536  -2.668  0.00  0.00    +0.142 HD
ATOM     23  H   UNL     1       0.020  -1.074  -3.146  0.00  0.00    +0.142 HD
ENDBRANCH  16  21
ENDBRANCH   1  17
TORSDOF 3
