REMARK  Name = ZINC61638930
REMARK  6 active torsions:
REMARK  status: ('A' for Active; 'I' for Inactive)
REMARK    1  A    between atoms: C_1  and  C_2
REMARK    2  A    between atoms: N_5  and  C_11
REMARK    3  A    between atoms: C_7  and  C_10
REMARK    4  A    between atoms: C_11  and  C_12
REMARK    5  A    between atoms: C_16  and  N_18
REMARK    6  A    between atoms: N_18  and  N_19
REMARK                            x       y       z     vdW  Elec       q    Type
REMARK                         _______ _______ _______ _____ _____    ______ ____
ROOT
ATOM      1  C   UNL     1      -2.696  -4.052  -0.132  0.00  0.00    +0.076 A 
ATOM      2  C   UNL     1      -2.677  -4.590  -1.404  0.00  0.00    +0.064 A 
ATOM      3  C   UNL     1      -2.611  -5.970  -1.558  0.00  0.00    +0.025 A 
ATOM      4  C   UNL     1      -2.566  -6.759  -0.422  0.00  0.00    +0.046 A 
ATOM      5  C   UNL     1      -2.589  -6.149   0.827  0.00  0.00    +0.132 A 
ATOM      6  N   UNL     1      -2.647  -4.830   0.933  0.00  0.00    -0.233 NA
ATOM      7 CL   UNL     1      -2.735  -3.554  -2.796  0.00  0.00    -0.082 Cl
ENDROOT
BRANCH   5   8
ATOM      8  N   UNL     1      -2.546  -6.931   1.976  0.00  0.00    -0.268 N 
ATOM      9  H   UNL     1      -2.499  -7.897   1.904  0.00  0.00    +0.167 HD
BRANCH   8  10
ATOM     10  N   UNL     1      -2.568  -6.338   3.207  0.00  0.00    -0.255 NA
ATOM     11  H   UNL     1      -2.530  -7.029   3.942  0.00  0.00    +0.140 HD
ATOM     12  H   UNL     1      -1.817  -5.670   3.300  0.00  0.00    +0.140 HD
ENDBRANCH   8  10
ENDBRANCH   5   8
BRANCH   1  13
ATOM     13  C   UNL     1      -2.768  -2.557   0.042  0.00  0.00    +0.141 C 
BRANCH  13  17
ATOM     14  C   UNL     1      -0.019   1.526   0.010  0.00  0.00    +0.039 C 
ATOM     15  C   UNL     1       0.002  -0.004   0.002  0.00  0.00    +0.130 C 
ATOM     16  C   UNL     1      -1.434  -0.535   0.015  0.00  0.00    +0.116 C 
ATOM     17  N   UNL     1      -1.407  -2.003   0.085  0.00  0.00    -0.292 NA
ATOM     18  C   UNL     1      -0.692  -2.455   1.287  0.00  0.00    +0.116 C 
ATOM     19  C   UNL     1       0.736  -1.905   1.261  0.00  0.00    +0.130 C 
ATOM     20  O   UNL     1       0.692  -0.479   1.161  0.00  0.00    -0.371 OA
ATOM     21  C   UNL     1       1.483  -2.478   0.055  0.00  0.00    +0.039 C 
ENDBRANCH  13  17
ENDBRANCH   1  13
TORSDOF 4
