REMARK  Name = ZINC39444107
REMARK  9 active torsions:
REMARK  status: ('A' for Active; 'I' for Inactive)
REMARK    1  A    between atoms: C_4  and  N_7
REMARK    2  A    between atoms: C_8  and  S_22
REMARK    3  A    between atoms: C_12  and  C_13
REMARK    4  A    between atoms: C_13  and  N_14
REMARK    5  A    between atoms: N_14  and  C_15
REMARK    6  A    between atoms: S_22  and  C_23
REMARK    7  A    between atoms: C_23  and  C_24
REMARK    8  A    between atoms: N_26  and  N_27
REMARK    9  A    between atoms: C_28  and  C_29
REMARK                            x       y       z     vdW  Elec       q    Type
REMARK                         _______ _______ _______ _____ _____    ______ ____
ROOT
ATOM      1  N   UNL     1       3.620  -0.649  -0.038  0.00  0.00    -0.257 N 
ATOM      2  C   UNL     1       3.817  -2.106   0.050  0.00  0.00    +0.241 C 
ATOM      3  N   UNL     1       5.281  -2.266  -0.012  0.00  0.00    -0.237 N 
ATOM      4  N   UNL     1       5.808  -0.974  -0.124  0.00  0.00    -0.172 NA
ATOM      5  C   UNL     1       4.883  -0.086  -0.143  0.00  0.00    +0.139 C 
ATOM      6  H   UNL     1       5.779  -3.098   0.019  0.00  0.00    +0.171 HD
ENDROOT
BRANCH   1  10
ATOM      7  C   UNL     1      -0.017   1.378   0.003  0.00  0.00    +0.000 A 
ATOM      8  C   UNL     1       1.169   2.089   0.016  0.00  0.00    +0.002 A 
ATOM      9  C   UNL     1       2.377   1.420   0.003  0.00  0.00    +0.023 A 
ATOM     10  C   UNL     1       2.400   0.031  -0.024  0.00  0.00    +0.038 A 
ATOM     11  C   UNL     1       1.206  -0.680  -0.036  0.00  0.00    +0.023 A 
ATOM     12  C   UNL     1       0.002  -0.004  -0.023  0.00  0.00    +0.002 A 
ENDBRANCH   1  10
BRANCH   5  13
ATOM     13  C   UNL     1       5.137   1.395  -0.262  0.00  0.00    +0.175 C 
BRANCH  13  14
ATOM     14  N   UNL     1       6.568   1.629  -0.475  0.00  0.00    -0.337 N 
ATOM     15  H   UNL     1       7.181   0.878  -0.519  0.00  0.00    +0.147 HD
BRANCH  14  16
ATOM     16  C   UNL     1       7.049   2.933  -0.616  0.00  0.00    +0.028 A 
ATOM     17  C   UNL     1       6.173   4.009  -0.549  0.00  0.00    +0.024 A 
ATOM     18  C   UNL     1       6.652   5.297  -0.688  0.00  0.00    +0.022 A 
ATOM     19  C   UNL     1       8.003   5.516  -0.895  0.00  0.00    +0.041 A 
ATOM     20  C   UNL     1       8.877   4.446  -0.963  0.00  0.00    +0.022 A 
ATOM     21  C   UNL     1       8.405   3.156  -0.818  0.00  0.00    +0.024 A 
ATOM     22 CL   UNL     1       8.601   7.136  -1.071  0.00  0.00    -0.084 Cl
ENDBRANCH  14  16
ENDBRANCH  13  14
ENDBRANCH   5  13
BRANCH   2  23
ATOM     23  S   UNL     1       3.022  -2.942  -1.349  0.00  0.00    -0.108 S 
BRANCH  23  24
ATOM     24  C   UNL     1       3.845  -2.241  -2.805  0.00  0.00    +0.170 C 
BRANCH  24  25
ATOM     25  C   UNL     1       3.270  -2.859  -4.054  0.00  0.00    +0.242 C 
ATOM     26  O   UNL     1       2.392  -3.691  -3.970  0.00  0.00    -0.273 OA
ATOM     27  N   UNL     1       3.733  -2.488  -5.264  0.00  0.00    -0.206 N 
ATOM     28  H   UNL     1       4.436  -1.823  -5.332  0.00  0.00    +0.177 HD
BRANCH  27  29
ATOM     29  N   UNL     1       3.198  -3.062  -6.425  0.00  0.00    -0.188 NA
ATOM     30  C   UNL     1       3.647  -2.702  -7.601  0.00  0.00    +0.136 C 
BRANCH  30  31
ATOM     31  C   UNL     1       3.112  -3.277  -8.762  0.00  0.00    +0.000 C 
ATOM     32  C   UNL     1       3.479  -3.010 -10.079  0.00  0.00    +0.004 A 
ATOM     33  C   UNL     1       4.436  -2.140 -10.646  0.00  0.00    +0.010 A 
ATOM     34  C   UNL     1       4.581  -2.085 -11.994  0.00  0.00    +0.001 A 
ATOM     35  C   UNL     1       3.801  -2.872 -12.847  0.00  0.00    +0.002 A 
ATOM     36  C   UNL     1       2.864  -3.728 -12.374  0.00  0.00    +0.026 A 
ATOM     37  C   UNL     1       2.655  -3.842 -10.974  0.00  0.00    +0.043 A 
ATOM     38  N   UNL     1       1.823  -4.585 -10.275  0.00  0.00    -0.380 N 
ATOM     39  C   UNL     1       2.021  -4.321  -8.847  0.00  0.00    +0.150 C 
ATOM     40  H   UNL     1       1.182  -5.211 -10.647  0.00  0.00    +0.160 HD
ENDBRANCH  30  31
ENDBRANCH  27  29
ENDBRANCH  24  25
ENDBRANCH  23  24
ENDBRANCH   2  23
TORSDOF 9
