REMARK  Name = ZINC13527543
REMARK  7 active torsions:
REMARK  status: ('A' for Active; 'I' for Inactive)
REMARK    1  A    between atoms: C_1  and  C_2
REMARK    2  A    between atoms: C_15  and  O_33
REMARK    3  A    between atoms: C_18  and  C_32
REMARK    4  A    between atoms: C_23  and  C_25
REMARK    5  A    between atoms: C_25  and  C_27
REMARK    6  A    between atoms: C_27  and  O_28
REMARK    7  A    between atoms: O_28  and  S_29
REMARK                            x       y       z     vdW  Elec       q    Type
REMARK                         _______ _______ _______ _____ _____    ______ ____
ROOT
ATOM      1  C   UNL     1      -2.550   1.803  -0.380  0.00  0.00    +0.016 C 
ATOM      2  C   UNL     1      -1.060   2.131  -0.495  0.00  0.00    -0.005 C 
ATOM      3  C   UNL     1      -0.929   3.507  -1.125  0.00  0.00    +0.019 C 
ATOM      4  C   UNL     1      -1.076   3.449  -2.645  0.00  0.00    +0.080 C 
ATOM      5  C   UNL     1      -0.012   2.504  -3.168  0.00  0.00    +0.156 C 
ATOM      6  O   UNL     1       0.721   2.811  -4.084  0.00  0.00    -0.293 OA
ATOM      7  C   UNL     1       0.084   1.198  -2.506  0.00  0.00    +0.046 C 
ATOM      8  C   UNL     1      -0.403   1.036  -1.276  0.00  0.00    -0.060 C 
ATOM      9  C   UNL     1      -0.291  -0.342  -0.649  0.00  0.00    +0.032 C 
ATOM     10  C   UNL     1       0.278  -0.196   0.764  0.00  0.00    +0.008 C 
ATOM     11  C   UNL     1      -0.595   0.778   1.561  0.00  0.00    -0.001 C 
ATOM     12  C   UNL     1      -0.491   2.174   0.928  0.00  0.00    +0.031 C 
ATOM     13  C   UNL     1      -1.248   3.220   1.740  0.00  0.00    +0.119 C 
ATOM     14  C   UNL     1      -0.805   3.226   3.214  0.00  0.00    +0.039 C 
ATOM     15  C   UNL     1      -1.042   1.828   3.756  0.00  0.00    -0.017 C 
ATOM     16  C   UNL     1      -0.086   0.879   2.985  0.00  0.00    -0.001 C 
ATOM     17  C   UNL     1      -0.119  -0.402   3.812  0.00  0.00    +0.005 C 
ATOM     18  C   UNL     1      -0.400   0.057   5.265  0.00  0.00    +0.012 C 
ATOM     19  C   UNL     1      -0.606   1.595   5.207  0.00  0.00    +0.064 C 
ATOM     20  C   UNL     1      -2.498   1.401   3.560  0.00  0.00    +0.012 C 
ENDROOT
BRANCH  19  21
ATOM     21  C   UNL     1      -1.685   2.025   6.168  0.00  0.00    +0.165 C 
ATOM     22  O   UNL     1      -2.841   2.015   5.821  0.00  0.00    -0.295 OA
BRANCH  21  23
ATOM     23  C   UNL     1      -1.320   2.467   7.561  0.00  0.00    +0.270 C 
BRANCH  23  24
ATOM     24  O   UNL     1      -2.507   2.822   8.274  0.00  0.00    -0.206 OA
BRANCH  24  25
ATOM     25  S   UNL     1      -2.256   3.287   9.702  0.00  0.00    +0.239 S 
ATOM     26  O   UNL     1      -3.529   3.397  10.323  0.00  0.00    -0.116 OA
ATOM     27  O   UNL     1      -1.223   2.461  10.222  0.00  0.00    -0.116 OA
ATOM     28  O   UNL     1      -1.688   4.697   9.623  0.00  0.00    -0.022 OA
ENDBRANCH  24  25
ENDBRANCH  23  24
ENDBRANCH  21  23
ENDBRANCH  19  21
BRANCH  13  29
ATOM     29  O   UNL     1      -2.647   2.940   1.672  0.00  0.00    -0.391 OA
ATOM     30  H   UNL     1      -3.197   3.564   2.165  0.00  0.00    +0.210 HD
ENDBRANCH  13  29
TORSDOF 5
