REMARK  Name = ZINC19623384
REMARK  8 active torsions:
REMARK  status: ('A' for Active; 'I' for Inactive)
REMARK    1  A    between atoms: C_1  and  C_2
REMARK    2  A    between atoms: C_2  and  C_4
REMARK    3  A    between atoms: C_2  and  N_11
REMARK    4  A    between atoms: N_9  and  C_10
REMARK    5  A    between atoms: N_11  and  C_12
REMARK    6  A    between atoms: C_12  and  C_13
REMARK    7  A    between atoms: C_13  and  C_15
REMARK    8  A    between atoms: C_13  and  C_21
REMARK                            x       y       z     vdW  Elec       q    Type
REMARK                         _______ _______ _______ _____ _____    ______ ____
ROOT
ATOM      1  C   UNL     1       2.866  -1.043   2.218  0.00  0.00    +0.034 C 
ENDROOT
BRANCH   1   2
ATOM      2  C   UNL     1       4.339  -1.203   1.940  0.00  0.00    -0.017 A 
ATOM      3  C   UNL     1       5.189  -0.237   1.556  0.00  0.00    +0.087 A 
ATOM      4  N   UNL     1       6.446  -0.755   1.403  0.00  0.00    -0.360 N 
ATOM      5  H   UNL     1       7.276  -0.102   1.098  0.00  0.00    +0.165 HD
ATOM      6  C   UNL     1       6.434  -2.103   1.683  0.00  0.00    +0.047 A 
ATOM      7  C   UNL     1       5.114  -2.443   2.031  0.00  0.00    +0.003 A 
ATOM      8  C   UNL     1       4.800  -3.760   2.368  0.00  0.00    +0.010 A 
ATOM      9  C   UNL     1       5.777  -4.715   2.358  0.00  0.00    +0.001 A 
ATOM     10  C   UNL     1       7.081  -4.385   2.014  0.00  0.00    +0.002 A 
ATOM     11  C   UNL     1       7.413  -3.091   1.679  0.00  0.00    +0.026 A 
ENDBRANCH   1   2
BRANCH   1  12
ATOM     12  C   UNL     1       2.671  -0.055   3.339  0.00  0.00    -0.042 A 
ATOM     13  C   UNL     1       3.133   1.241   3.206  0.00  0.00    +0.004 A 
ATOM     14  C   UNL     1       2.950   2.149   4.232  0.00  0.00    +0.000 A 
ATOM     15  C   UNL     1       2.313   1.758   5.395  0.00  0.00    +0.000 A 
ATOM     16  C   UNL     1       1.856   0.461   5.530  0.00  0.00    +0.000 A 
ATOM     17  C   UNL     1       2.035  -0.446   4.502  0.00  0.00    +0.004 A 
ENDBRANCH   1  12
BRANCH   1  18
ATOM     18  C   UNL     1       2.162  -0.532   0.959  0.00  0.00    -0.069 C 
BRANCH  18  19
ATOM     19  N   UNL     1       0.713  -0.491   1.192  0.00  0.00    +0.387 N 
ATOM     20  H   UNL     1       0.511   0.181   2.040  0.00  0.00    -0.085 HD
ATOM     21  H   UNL     1       0.365  -1.505   1.437  0.00  0.00    -0.085 HD
BRANCH  19  23
ATOM     22  C   UNL     1      -0.019   1.526   0.010  0.00  0.00    -0.004 C 
ATOM     23  C   UNL     1       0.002  -0.004   0.002  0.00  0.00    +0.013 C 
BRANCH  23  24
ATOM     24  C   UNL     1      -1.412  -0.526   0.013  0.00  0.00    +0.206 C 
ATOM     25  O   UNL     1      -1.790  -1.233   0.922  0.00  0.00    -0.277 OA
ATOM     26  N   UNL     1      -2.256  -0.206  -0.988  0.00  0.00    -0.242 N 
ATOM     27  C   UNL     1      -3.520  -0.672  -0.979  0.00  0.00    +0.306 C 
ATOM     28  O   UNL     1      -3.899  -1.381  -0.067  0.00  0.00    -0.252 OA
ATOM     29  N   UNL     1      -4.364  -0.353  -1.980  0.00  0.00    -0.302 N 
ATOM     30  C   UNL     1      -5.738  -0.860  -1.970  0.00  0.00    +0.129 C 
ATOM     31  H   UNL     1      -1.912   0.436  -1.813  0.00  0.00    +0.159 HD
ATOM     32  H   UNL     1      -4.021   0.289  -2.805  0.00  0.00    +0.150 HD
ENDBRANCH  23  24
ENDBRANCH  19  23
ENDBRANCH  18  19
ENDBRANCH   1  18
TORSDOF 6
