REMARK  Name = ZINC04777706
REMARK  4 active torsions:
REMARK  status: ('A' for Active; 'I' for Inactive)
REMARK    1  A    between atoms: C_1  and  C_2
REMARK    2  A    between atoms: C_15  and  O_27
REMARK    3  A    between atoms: C_18  and  C_26
REMARK    4  A    between atoms: C_23  and  O_25
REMARK                            x       y       z     vdW  Elec       q    Type
REMARK                         _______ _______ _______ _____ _____    ______ ____
ROOT
ATOM      1  C   UNL     1      -2.345  -0.179  -1.742  0.00  0.00    +0.016 C 
ATOM      2  C   UNL     1      -2.223   1.257  -1.224  0.00  0.00    -0.005 C 
ATOM      3  C   UNL     1      -0.746   1.607  -1.225  0.00  0.00    +0.019 C 
ATOM      4  C   UNL     1      -0.013   1.087   0.008  0.00  0.00    +0.080 C 
ATOM      5  C   UNL     1      -0.717   1.587   1.248  0.00  0.00    +0.156 C 
ATOM      6  O   UNL     1      -0.094   2.013   2.204  0.00  0.00    -0.293 OA
ATOM      7  C   UNL     1      -2.180   1.544   1.258  0.00  0.00    +0.046 C 
ATOM      8  C   UNL     1      -2.866   1.338   0.138  0.00  0.00    -0.060 C 
ATOM      9  C   UNL     1      -4.371   1.186   0.256  0.00  0.00    +0.032 C 
ATOM     10  C   UNL     1      -5.073   2.099  -0.763  0.00  0.00    +0.008 C 
ATOM     11  C   UNL     1      -4.482   1.800  -2.133  0.00  0.00    -0.001 C 
ATOM     12  C   UNL     1      -3.000   2.213  -2.126  0.00  0.00    +0.031 C 
ATOM     13  C   UNL     1      -2.528   2.304  -3.568  0.00  0.00    +0.119 C 
ATOM     14  C   UNL     1      -3.132   3.575  -4.204  0.00  0.00    +0.041 C 
ATOM     15  C   UNL     1      -4.562   3.749  -3.755  0.00  0.00    -0.001 C 
ATOM     16  C   UNL     1      -5.177   2.408  -3.312  0.00  0.00    +0.001 C 
ATOM     17  C   UNL     1      -6.660   2.768  -3.141  0.00  0.00    +0.007 C 
ATOM     18  C   UNL     1      -6.931   3.751  -4.312  0.00  0.00    +0.032 C 
ATOM     19  C   UNL     1      -5.545   4.168  -4.866  0.00  0.00    +0.121 C 
ATOM     20  C   UNL     1      -4.649   4.806  -2.651  0.00  0.00    +0.014 C 
ENDROOT
BRANCH  19  21
ATOM     21  O   UNL     1      -5.264   3.457  -6.070  0.00  0.00    -0.391 OA
ATOM     22  H   UNL     1      -5.852   3.680  -6.804  0.00  0.00    +0.210 HD
ENDBRANCH  19  21
BRANCH  13  23
ATOM     23  O   UNL     1      -1.106   2.386  -3.656  0.00  0.00    -0.391 OA
ATOM     24  H   UNL     1      -0.770   2.445  -4.561  0.00  0.00    +0.210 HD
ENDBRANCH  13  23
TORSDOF 2
