REMARK  Name = ZINC49563070
REMARK  4 active torsions:
REMARK  status: ('A' for Active; 'I' for Inactive)
REMARK    1  A    between atoms: C_1  and  O_2
REMARK    2  A    between atoms: O_2  and  C_3
REMARK    3  A    between atoms: C_8  and  N_9
REMARK    4  A    between atoms: N_9  and  C_10
REMARK                            x       y       z     vdW  Elec       q    Type
REMARK                         _______ _______ _______ _____ _____    ______ ____
ROOT
ATOM      1  C   UNL     1       0.156  -4.238  -0.191  0.00  0.00    +0.190 C 
ATOM      2  C   UNL     1      -0.944  -4.858   0.639  0.00  0.00    +0.005 A 
ATOM      3  C   UNL     1      -2.317  -4.785   0.578  0.00  0.00    +0.046 A 
ATOM      4  C   UNL     1      -3.088  -5.479   1.497  0.00  0.00    +0.124 A 
ATOM      5  C   UNL     1      -2.472  -6.243   2.474  0.00  0.00    +0.040 A 
ATOM      6  C   UNL     1      -1.096  -6.318   2.535  0.00  0.00    +0.026 A 
ATOM      7  C   UNL     1      -0.315  -5.622   1.614  0.00  0.00    +0.039 A 
ATOM      8  N   UNL     1       1.072  -5.538   1.472  0.00  0.00    -0.283 N 
ATOM      9  C   UNL     1       1.433  -4.752   0.440  0.00  0.00    +0.242 C 
ATOM     10  O   UNL     1       2.564  -4.500   0.084  0.00  0.00    -0.273 OA
ATOM     11  F   UNL     1      -4.436  -5.409   1.442  0.00  0.00    -0.205 F 
ATOM     12  H   UNL     1       1.703  -5.995   2.050  0.00  0.00    +0.155 HD
ENDROOT
BRANCH   1  13
ATOM     13  N   UNL     1       0.097  -2.777  -0.113  0.00  0.00    -0.326 N 
ATOM     14  H   UNL     1      -0.335  -2.349   0.643  0.00  0.00    +0.147 HD
BRANCH  13  20
ATOM     15  C   UNL     1       0.606  -0.608  -1.057  0.00  0.00    +0.141 A 
ATOM     16  C   UNL     1       1.173   0.159  -2.062  0.00  0.00    +0.048 A 
ATOM     17  C   UNL     1       1.786  -0.456  -3.138  0.00  0.00    +0.019 A 
ATOM     18  C   UNL     1       1.837  -1.836  -3.214  0.00  0.00    +0.020 A 
ATOM     19  C   UNL     1       1.274  -2.608  -2.214  0.00  0.00    +0.042 A 
ATOM     20  C   UNL     1       0.662  -1.998  -1.129  0.00  0.00    +0.071 A 
ATOM     21 BR   UNL     1       2.676  -2.670  -4.690  0.00  0.00    -0.050 Br
BRANCH  15  23
ATOM     22  C   UNL     1      -0.017   1.425   0.010  0.00  0.00    +0.277 C 
ATOM     23  O   UNL     1       0.002  -0.004   0.002  0.00  0.00    -0.493 OA
ENDBRANCH  15  23
ENDBRANCH  13  20
ENDBRANCH   1  13
TORSDOF 3
