REMARK  Name = ZINC50305895
REMARK  6 active torsions:
REMARK  status: ('A' for Active; 'I' for Inactive)
REMARK    1  A    between atoms: C_1  and  C_2
REMARK    2  A    between atoms: C_3  and  N_21
REMARK    3  A    between atoms: C_4  and  C_8
REMARK    4  A    between atoms: N_10  and  C_11
REMARK    5  A    between atoms: C_11  and  C_13
REMARK    6  A    between atoms: C_11  and  C_14
REMARK                            x       y       z     vdW  Elec       q    Type
REMARK                         _______ _______ _______ _____ _____    ______ ____
ROOT
ATOM      1  C   UNL     1       0.042  -3.372  -1.392  0.00  0.00    +0.266 C 
ATOM      2  O   UNL     1       0.035  -3.313  -2.607  0.00  0.00    -0.268 OA
ATOM      3  N   UNL     1       0.062  -4.571  -0.776  0.00  0.00    -0.303 N 
ATOM      4  H   UNL     1       0.068  -4.618   0.192  0.00  0.00    +0.150 HD
ENDROOT
BRANCH   1   8
ATOM      5  C   UNL     1      -0.018   1.503   0.010  0.00  0.00    +0.067 C 
ATOM      6  C   UNL     1       0.002  -0.004   0.002  0.00  0.00    +0.054 A 
ATOM      7  C   UNL     1       0.008  -0.806  -1.096  0.00  0.00    +0.078 A 
ATOM      8  C   UNL     1       0.029  -2.133  -0.594  0.00  0.00    +0.168 A 
ATOM      9  N   UNL     1       0.034  -2.049   0.723  0.00  0.00    -0.167 NA
ATOM     10  N   UNL     1       0.024  -0.818   1.090  0.00  0.00    -0.279 N 
ATOM     11  H   UNL     1       0.029  -0.513   2.011  0.00  0.00    +0.189 HD
BRANCH   7  12
ATOM     12  N   UNL     1      -0.004  -0.407  -2.440  0.00  0.00    -0.355 N 
ATOM     13  H   UNL     1      -0.018   0.537  -2.666  0.00  0.00    +0.142 HD
ATOM     14  H   UNL     1       0.002  -1.074  -3.144  0.00  0.00    +0.142 HD
ENDBRANCH   7  12
ENDBRANCH   1   8
BRANCH   3  15
ATOM     15  C   UNL     1       0.075  -5.802  -1.570  0.00  0.00    +0.103 C 
ATOM     16  C   UNL     1      -1.359  -6.183  -1.944  0.00  0.00    +0.033 C 
BRANCH  15  17
ATOM     17  C   UNL     1       0.695  -6.913  -0.763  0.00  0.00    +0.008 A 
ATOM     18  C   UNL     1       0.667  -6.864   0.618  0.00  0.00    +0.008 A 
ATOM     19  C   UNL     1       1.236  -7.883   1.358  0.00  0.00    +0.000 A 
ATOM     20  C   UNL     1       1.834  -8.953   0.719  0.00  0.00    +0.003 A 
ATOM     21  C   UNL     1       1.863  -9.005  -0.662  0.00  0.00    +0.039 A 
ATOM     22  C   UNL     1       1.289  -7.987  -1.405  0.00  0.00    +0.128 A 
ATOM     23  F   UNL     1       1.313  -8.039  -2.755  0.00  0.00    -0.205 F 
ENDBRANCH  15  17
ENDBRANCH   3  15
TORSDOF 4
