REMARK  Name = ZINC63573373
REMARK  6 active torsions:
REMARK  status: ('A' for Active; 'I' for Inactive)
REMARK    1  A    between atoms: C_1  and  C_2
REMARK    2  A    between atoms: C_5  and  C_8
REMARK    3  A    between atoms: C_15  and  O_20
REMARK    4  A    between atoms: O_20  and  C_21
REMARK    5  A    between atoms: N_27  and  C_28
REMARK    6  A    between atoms: C_33  and  C_34
REMARK                            x       y       z     vdW  Elec       q    Type
REMARK                         _______ _______ _______ _____ _____    ______ ____
ROOT
ATOM      1  C   UNL     1      -0.468  -4.551   0.701  0.00  0.00    +0.134 C 
ATOM      2  C   UNL     1      -1.577  -5.437   1.279  0.00  0.00    +0.131 C 
ATOM      3  C   UNL     1      -1.070  -6.872   1.204  0.00  0.00    -0.035 C 
ATOM      4  C   UNL     1      -1.975  -7.554   0.514  0.00  0.00    +0.003 A 
ATOM      5  C   UNL     1      -2.079  -8.980   0.171  0.00  0.00    +0.055 A 
ATOM      6  C   UNL     1      -3.154  -9.352  -0.577  0.00  0.00    +0.121 A 
ATOM      7  C   UNL     1      -4.142  -8.463  -1.026  0.00  0.00    +0.047 A 
ATOM      8  C   UNL     1      -4.147  -7.131  -0.765  0.00  0.00    +0.029 A 
ATOM      9  C   UNL     1      -3.035  -6.609   0.042  0.00  0.00    +0.043 A 
ATOM     10  N   UNL     1      -2.794  -5.383   0.467  0.00  0.00    -0.375 N 
ATOM     11  C   UNL     1       0.262  -7.291   1.776  0.00  0.00    +0.052 C 
ATOM     12  C   UNL     1       1.310  -6.306   1.226  0.00  0.00    +0.114 C 
ATOM     13  N   UNL     1       0.799  -4.936   1.343  0.00  0.00    -0.276 N 
ATOM     14  C   UNL     1       1.496  -4.021   2.046  0.00  0.00    +0.307 C 
ATOM     15  O   UNL     1       1.019  -2.923   2.255  0.00  0.00    -0.252 OA
ATOM     16  N   UNL     1       2.723  -4.324   2.516  0.00  0.00    -0.269 N 
ATOM     17  H   UNL     1       3.138  -5.168   2.279  0.00  0.00    +0.156 HD
ATOM     18  H   UNL     1      -3.316  -4.588   0.278  0.00  0.00    +0.160 HD
ENDROOT
BRANCH  16  19
ATOM     19  C   UNL     1       3.397  -3.421   3.344  0.00  0.00    +0.039 A 
ATOM     20  C   UNL     1       3.141  -2.059   3.244  0.00  0.00    +0.043 A 
ATOM     21  C   UNL     1       3.808  -1.170   4.064  0.00  0.00    +0.043 A 
ATOM     22  C   UNL     1       4.732  -1.635   4.985  0.00  0.00    +0.020 A 
ATOM     23  C   UNL     1       4.989  -2.989   5.086  0.00  0.00    +0.006 A 
ATOM     24  C   UNL     1       4.320  -3.884   4.273  0.00  0.00    -0.029 A 
ATOM     25  C   UNL     1       4.597  -5.361   4.388  0.00  0.00    +0.045 C 
ATOM     26 CL   UNL     1       3.489   0.532   3.939  0.00  0.00    -0.083 Cl
ENDBRANCH  16  19
BRANCH   1  31
ATOM     27  C   UNL     1      -1.615   1.001   1.821  0.00  0.00    +0.044 C 
ATOM     28  C   UNL     1      -1.316  -0.447   1.529  0.00  0.00    -0.050 A 
ATOM     29  C   UNL     1      -1.643  -1.420   2.454  0.00  0.00    +0.004 A 
ATOM     30  C   UNL     1      -1.369  -2.748   2.186  0.00  0.00    +0.006 A 
ATOM     31  C   UNL     1      -0.767  -3.103   0.993  0.00  0.00    -0.025 A 
ATOM     32  C   UNL     1      -0.441  -2.130   0.067  0.00  0.00    +0.006 A 
ATOM     33  C   UNL     1      -0.720  -0.802   0.333  0.00  0.00    +0.004 A 
ENDBRANCH   1  31
BRANCH   6  34
ATOM     34  O   UNL     1      -3.277 -10.664  -0.910  0.00  0.00    -0.495 OA
ATOM     35  C   UNL     1      -4.413 -11.030  -1.696  0.00  0.00    +0.277 C 
ENDBRANCH   6  34
TORSDOF 3
