REMARK  Name = ZINC00182418
REMARK  4 active torsions:
REMARK  status: ('A' for Active; 'I' for Inactive)
REMARK    1  A    between atoms: C_1  and  C_2
REMARK    2  A    between atoms: N_12  and  C_15
REMARK    3  A    between atoms: C_18  and  S_21
REMARK    4  A    between atoms: S_21  and  N_24
REMARK                            x       y       z     vdW  Elec       q    Type
REMARK                         _______ _______ _______ _____ _____    ______ ____
ROOT
ATOM      1  C   UNL     1      -0.018   1.503   0.010  0.00  0.00    +0.039 C 
ATOM      2  C   UNL     1       0.002  -0.004   0.002  0.00  0.00    -0.076 C 
ATOM      3  C   UNL     1       0.004  -0.595  -1.146  0.00  0.00    -0.027 C 
ATOM      4  C   UNL     1       0.074  -2.081  -1.305  0.00  0.00    +0.040 C 
ATOM      5  C   UNL     1      -0.123  -2.831  -0.028  0.00  0.00    +0.092 C 
ATOM      6  C   UNL     1       0.462  -2.163   1.226  0.00  0.00    +0.092 C 
ATOM      7  C   UNL     1       0.024  -0.700   1.319  0.00  0.00    +0.043 C 
ATOM      8  C   UNL     1      -0.366  -2.893   2.297  0.00  0.00    +0.230 C 
ATOM      9  O   UNL     1      -0.034  -3.103   3.443  0.00  0.00    -0.274 OA
ATOM     10  N   UNL     1      -1.529  -3.256   1.722  0.00  0.00    -0.210 N 
ATOM     11  C   UNL     1      -1.540  -3.109   0.385  0.00  0.00    +0.230 C 
ATOM     12  O   UNL     1      -2.506  -3.195  -0.342  0.00  0.00    -0.274 OA
ENDROOT
BRANCH  10  13
ATOM     13  C   UNL     1      -2.629  -3.728   2.453  0.00  0.00    +0.044 A 
ATOM     14  C   UNL     1      -2.551  -3.834   3.835  0.00  0.00    +0.026 A 
ATOM     15  C   UNL     1      -3.636  -4.300   4.552  0.00  0.00    +0.030 A 
ATOM     16  C   UNL     1      -4.798  -4.659   3.895  0.00  0.00    +0.105 A 
ATOM     17  C   UNL     1      -4.878  -4.554   2.518  0.00  0.00    +0.030 A 
ATOM     18  C   UNL     1      -3.799  -4.084   1.796  0.00  0.00    +0.026 A 
BRANCH  16  19
ATOM     19  S   UNL     1      -6.180  -5.253   4.813  0.00  0.00    +0.056 S 
ATOM     20  O   UNL     1      -6.956  -6.038   3.917  0.00  0.00    -0.153 OA
ATOM     21  O   UNL     1      -5.665  -5.773   6.031  0.00  0.00    -0.153 OA
BRANCH  19  22
ATOM     22  N   UNL     1      -7.104  -3.938   5.213  0.00  0.00    -0.204 NA
ATOM     23  H   UNL     1      -6.830  -3.050   4.934  0.00  0.00    +0.144 HD
ATOM     24  H   UNL     1      -7.919  -4.056   5.725  0.00  0.00    +0.144 HD
ENDBRANCH  19  22
ENDBRANCH  16  19
ENDBRANCH  10  13
TORSDOF 3
