REMARK  Name = ZINC11678690
REMARK  6 active torsions:
REMARK  status: ('A' for Active; 'I' for Inactive)
REMARK    1  A    between atoms: C_1  and  C_2
REMARK    2  A    between atoms: C_17  and  C_28
REMARK    3  A    between atoms: C_22  and  C_23
REMARK    4  A    between atoms: C_22  and  O_27
REMARK    5  A    between atoms: C_23  and  C_25
REMARK    6  A    between atoms: C_25  and  O_26
REMARK                            x       y       z     vdW  Elec       q    Type
REMARK                         _______ _______ _______ _____ _____    ______ ____
ROOT
ATOM      1  C   UNL     1       0.015   1.089  -0.031  0.00  0.00    +0.016 C 
ATOM      2  C   UNL     1      -0.700   1.571   1.233  0.00  0.00    -0.007 C 
ATOM      3  C   UNL     1       0.065   1.046   2.435  0.00  0.00    +0.019 C 
ATOM      4  C   UNL     1      -0.270  -0.416   2.723  0.00  0.00    +0.080 C 
ATOM      5  C   UNL     1      -1.767  -0.502   2.949  0.00  0.00    +0.156 C 
ATOM      6  O   UNL     1      -2.235  -1.076   3.910  0.00  0.00    -0.293 OA
ATOM      7  C   UNL     1      -2.619   0.144   1.946  0.00  0.00    +0.046 C 
ATOM      8  C   UNL     1      -2.123   1.107   1.167  0.00  0.00    -0.060 C 
ATOM      9  C   UNL     1      -3.040   1.733   0.132  0.00  0.00    +0.032 C 
ATOM     10  C   UNL     1      -2.927   3.255   0.235  0.00  0.00    +0.008 C 
ATOM     11  C   UNL     1      -1.458   3.666   0.084  0.00  0.00    -0.003 C 
ATOM     12  C   UNL     1      -0.664   3.104   1.241  0.00  0.00    +0.002 C 
ATOM     13  C   UNL     1       0.811   3.545   1.090  0.00  0.00    +0.005 C 
ATOM     14  C   UNL     1       0.877   5.067   1.169  0.00  0.00    +0.010 C 
ATOM     15  C   UNL     1       0.088   5.699   0.019  0.00  0.00    +0.007 C 
ATOM     16  C   UNL     1      -1.356   5.170   0.001  0.00  0.00    +0.002 C 
ATOM     17  C   UNL     1      -2.012   5.873   1.205  0.00  0.00    +0.008 C 
ATOM     18  C   UNL     1      -1.418   7.300   1.156  0.00  0.00    +0.043 C 
ATOM     19  C   UNL     1      -0.093   7.198   0.377  0.00  0.00    +0.131 C 
ATOM     20  C   UNL     1       0.781   5.511  -1.331  0.00  0.00    +0.015 C 
ENDROOT
BRANCH  19  21
ATOM     21  C   UNL     1       1.051   7.667   1.239  0.00  0.00    +0.190 C 
ATOM     22  O   UNL     1       0.957   7.624   2.442  0.00  0.00    -0.292 OA
BRANCH  21  23
ATOM     23  C   UNL     1       2.312   8.188   0.599  0.00  0.00    +0.233 C 
BRANCH  23  24
ATOM     24  O   UNL     1       3.241   8.567   1.616  0.00  0.00    -0.387 OA
ATOM     25  H   UNL     1       4.077   8.913   1.276  0.00  0.00    +0.210 HD
ENDBRANCH  23  24
ENDBRANCH  21  23
ENDBRANCH  19  21
BRANCH  19  26
ATOM     26  O   UNL     1      -0.164   7.984  -0.814  0.00  0.00    -0.380 OA
ATOM     27  H   UNL     1      -0.302   8.928  -0.656  0.00  0.00    +0.211 HD
ENDBRANCH  19  26
TORSDOF 4
