REMARK  Name = ZINC12878520
REMARK  6 active torsions:
REMARK  status: ('A' for Active; 'I' for Inactive)
REMARK    1  A    between atoms: C_1  and  N_2
REMARK    2  A    between atoms: C_6  and  C_7
REMARK    3  A    between atoms: N_9  and  N_10
REMARK    4  A    between atoms: N_10  and  S_11
REMARK    5  A    between atoms: S_11  and  C_14
REMARK    6  A    between atoms: C_19  and  C_20
REMARK                            x       y       z     vdW  Elec       q    Type
REMARK                         _______ _______ _______ _____ _____    ______ ____
ROOT
ATOM      1  N   UNL     1       0.645   0.235  -0.174  0.00  0.00    -0.108 NA
ATOM      2  H   UNL     1       1.539   0.526  -0.413  0.00  0.00    +0.172 HD
ENDROOT
BRANCH   1   5
ATOM      3  C   UNL     1       1.057  -1.902   0.792  0.00  0.00    +0.275 C 
ATOM      4  O   UNL     1       1.874  -1.394   1.538  0.00  0.00    -0.267 OA
ATOM      5  N   UNL     1       0.359  -1.133  -0.067  0.00  0.00    -0.227 N 
ATOM      6  H   UNL     1      -0.341  -1.526  -0.611  0.00  0.00    +0.171 HD
BRANCH   3  12
ATOM      7  C   UNL     1      -1.129  -3.449  -0.765  0.00  0.00    +0.149 C 
ATOM      8  N   UNL     1      -0.138  -4.041   0.137  0.00  0.00    -0.345 N 
ATOM      9  C   UNL     1      -0.024  -5.360   0.430  0.00  0.00    +0.101 A 
ATOM     10  C   UNL     1       1.003  -5.528   1.297  0.00  0.00    +0.036 A 
ATOM     11  C   UNL     1       1.559  -4.271   1.554  0.00  0.00    +0.047 A 
ATOM     12  C   UNL     1       0.832  -3.351   0.827  0.00  0.00    +0.106 A 
ATOM     13 BR   UNL     1       1.587  -7.173   2.026  0.00  0.00    -0.049 Br
ENDBRANCH   3  12
ENDBRANCH   1   5
BRANCH   1  14
ATOM     14  S   UNL     1      -0.545   1.353   0.101  0.00  0.00    +0.074 S 
ATOM     15  O   UNL     1      -0.997   1.146   1.432  0.00  0.00    -0.152 OA
ATOM     16  O   UNL     1      -0.037   2.603  -0.345  0.00  0.00    -0.152 OA
BRANCH  14  17
ATOM     17  C   UNL     1      -1.894   0.950  -0.959  0.00  0.00    +0.118 A 
ATOM     18  C   UNL     1      -3.096   0.534  -0.418  0.00  0.00    +0.029 A 
ATOM     19  C   UNL     1      -4.156   0.223  -1.249  0.00  0.00    +0.002 A 
ATOM     20  C   UNL     1      -4.010   0.317  -2.621  0.00  0.00    +0.001 A 
ATOM     21  C   UNL     1      -2.806   0.728  -3.161  0.00  0.00    +0.014 A 
ATOM     22  C   UNL     1      -1.748   1.044  -2.330  0.00  0.00    +0.081 A 
BRANCH  22  23
ATOM     23  C   UNL     1      -0.435   1.492  -2.919  0.00  0.00    +0.419 C 
ATOM     24  F   UNL     1      -0.482   1.368  -4.311  0.00  0.00    -0.166 F 
ATOM     25  F   UNL     1      -0.201   2.828  -2.577  0.00  0.00    -0.166 F 
ATOM     26  F   UNL     1       0.598   0.694  -2.414  0.00  0.00    -0.166 F 
ENDBRANCH  22  23
ENDBRANCH  14  17
ENDBRANCH   1  14
TORSDOF 5
