REMARK  Name = ZINC43756854
REMARK  4 active torsions:
REMARK  status: ('A' for Active; 'I' for Inactive)
REMARK    1  A    between atoms: C_1  and  C_2
REMARK    2  A    between atoms: C_13  and  O_15
REMARK    3  A    between atoms: C_21  and  C_28
REMARK    4  A    between atoms: C_24  and  O_27
REMARK                            x       y       z     vdW  Elec       q    Type
REMARK                         _______ _______ _______ _____ _____    ______ ____
ROOT
ATOM      1  C   UNL     1      -0.019   1.524   0.010  0.00  0.00    +0.014 C 
ATOM      2  C   UNL     1       0.002  -0.004   0.002  0.00  0.00    -0.003 C 
ATOM      3  C   UNL     1       0.464  -0.539  -1.325  0.00  0.00    +0.010 C 
ATOM      4  C   UNL     1       1.989  -0.476  -1.471  0.00  0.00    +0.005 C 
ATOM      5  C   UNL     1       2.672   0.244  -0.330  0.00  0.00    +0.006 C 
ATOM      6  C   UNL     1       2.296  -0.323   1.037  0.00  0.00    +0.063 C 
ATOM      7  C   UNL     1       0.838  -0.595   1.157  0.00  0.00    +0.008 C 
ATOM      8  C   UNL     1       0.073  -0.086   2.384  0.00  0.00    +0.007 C 
ATOM      9  C   UNL     1      -1.414  -0.273   1.965  0.00  0.00    +0.032 C 
ATOM     10  C   UNL     1      -1.413  -0.461   0.426  0.00  0.00    +0.121 C 
ATOM     11  C   UNL     1       2.887   0.580   2.092  0.00  0.00    +0.137 C 
ATOM     12  O   UNL     1       2.245   1.111   2.961  0.00  0.00    -0.297 OA
ATOM     13  C   UNL     1       4.396   0.779   1.986  0.00  0.00    +0.078 C 
ATOM     14  C   UNL     1       4.884  -0.081   0.820  0.00  0.00    +0.005 C 
ATOM     15  C   UNL     1       4.191   0.292  -0.484  0.00  0.00    -0.025 C 
ATOM     16  C   UNL     1       4.654  -0.645  -1.596  0.00  0.00    +0.010 C 
ATOM     17  C   UNL     1       6.173  -0.585  -1.753  0.00  0.00    +0.032 C 
ATOM     18  C   UNL     1       6.875  -0.911  -0.438  0.00  0.00    +0.115 C 
ATOM     19  C   UNL     1       6.400   0.026   0.674  0.00  0.00    +0.035 C 
ATOM     20  C   UNL     1       4.551   1.729  -0.870  0.00  0.00    +0.012 C 
ENDROOT
BRANCH  10  21
ATOM     21  O   UNL     1      -1.604  -1.832   0.090  0.00  0.00    -0.391 OA
ATOM     22  H   UNL     1      -2.474  -2.179   0.331  0.00  0.00    +0.210 HD
ENDBRANCH  10  21
BRANCH  18  23
ATOM     23  O   UNL     1       6.605  -2.265  -0.071  0.00  0.00    -0.392 OA
ATOM     24  H   UNL     1       6.904  -2.916  -0.721  0.00  0.00    +0.210 HD
ENDBRANCH  18  23
TORSDOF 2
