REMARK  Name = ZINC49508695
REMARK  7 active torsions:
REMARK  status: ('A' for Active; 'I' for Inactive)
REMARK    1  A    between atoms: C_1  and  N_2
REMARK    2  A    between atoms: C_10  and  C_12
REMARK    3  A    between atoms: C_12  and  C_14
REMARK    4  A    between atoms: C_12  and  N_34
REMARK    5  A    between atoms: C_14  and  N_15
REMARK    6  A    between atoms: C_16  and  C_18
REMARK    7  A    between atoms: N_20  and  C_21
REMARK                            x       y       z     vdW  Elec       q    Type
REMARK                         _______ _______ _______ _____ _____    ______ ____
ROOT
ATOM      1  N   UNL     1       5.248  -3.200   1.926  0.00  0.00    -0.309 N 
ATOM      2  C   UNL     1       5.876  -3.198   3.119  0.00  0.00    +0.299 C 
ATOM      3  O   UNL     1       6.941  -2.629   3.243  0.00  0.00    -0.265 OA
ATOM      4  H   UNL     1       4.397  -3.655   1.827  0.00  0.00    +0.149 HD
ENDROOT
BRANCH   2   5
ATOM      5  C   UNL     1       5.262  -3.896   4.288  0.00  0.00    +0.303 C 
ATOM      6  O   UNL     1       4.197  -4.465   4.163  0.00  0.00    -0.265 OA
ATOM      7  N   UNL     1       5.890  -3.894   5.480  0.00  0.00    -0.278 N 
ATOM      8  H   UNL     1       6.701  -3.376   5.600  0.00  0.00    +0.155 HD
BRANCH   7   9
ATOM      9  C   UNL     1       5.371  -4.637   6.545  0.00  0.00    +0.034 A 
ATOM     10  C   UNL     1       5.495  -4.135   7.838  0.00  0.00    +0.028 A 
ATOM     11  C   UNL     1       4.987  -4.829   8.911  0.00  0.00    -0.023 A 
ATOM     12  C   UNL     1       4.340  -6.035   8.633  0.00  0.00    +0.043 A 
ATOM     13  C   UNL     1       4.234  -6.555   7.353  0.00  0.00    -0.022 A 
ATOM     14  C   UNL     1       4.740  -5.855   6.273  0.00  0.00    +0.028 A 
ATOM     15  C   UNL     1       3.543  -7.881   7.455  0.00  0.00    +0.056 C 
ATOM     16  C   UNL     1       3.246  -8.055   8.964  0.00  0.00    +0.118 C 
ATOM     17  N   UNL     1       3.732  -6.834   9.599  0.00  0.00    -0.271 N 
ATOM     18  C   UNL     1       3.632  -6.403  10.876  0.00  0.00    +0.220 C 
ATOM     19  O   UNL     1       3.318  -7.164  11.766  0.00  0.00    -0.275 OA
ATOM     20  C   UNL     1       3.922  -4.950  11.165  0.00  0.00    +0.101 C 
ATOM     21  C   UNL     1       5.092  -4.409  10.346  0.00  0.00    +0.046 C 
ENDBRANCH   7   9
ENDBRANCH   2   5
BRANCH   1  22
ATOM     22  C   UNL     1       5.851  -2.516   0.780  0.00  0.00    +0.094 C 
BRANCH  22  23
ATOM     23  C   UNL     1       5.005  -2.772  -0.469  0.00  0.00    -0.020 C 
BRANCH  23  33
ATOM     24  C   UNL     1      -0.189   1.115   0.230  0.00  0.00    +0.129 C 
ATOM     25  N   UNL     1      -0.081  -0.345   0.169  0.00  0.00    -0.333 N 
ATOM     26  C   UNL     1      -1.281  -1.187   0.265  0.00  0.00    +0.105 C 
ATOM     27  C   UNL     1      -0.968  -2.341   1.227  0.00  0.00    +0.024 C 
ATOM     28  C   UNL     1       0.154  -3.190   0.630  0.00  0.00    +0.038 C 
ATOM     29  C   UNL     1       1.319  -2.321   0.234  0.00  0.00    -0.026 A 
ATOM     30  C   UNL     1       1.166  -0.960   0.013  0.00  0.00    +0.033 A 
ATOM     31  C   UNL     1       2.260  -0.187  -0.361  0.00  0.00    +0.023 A 
ATOM     32  C   UNL     1       3.499  -0.774  -0.518  0.00  0.00    +0.004 A 
ATOM     33  C   UNL     1       3.652  -2.131  -0.300  0.00  0.00    -0.059 A 
ATOM     34  C   UNL     1       2.566  -2.902   0.083  0.00  0.00    +0.007 A 
ENDBRANCH  23  33
BRANCH  23  35
ATOM     35  N   UNL     1       5.677  -2.196  -1.642  0.00  0.00    +0.385 N 
ATOM     36  C   UNL     1       4.811  -2.337  -2.818  0.00  0.00    -0.078 C 
ATOM     37  C   UNL     1       5.471  -1.666  -4.025  0.00  0.00    -0.019 C 
ATOM     38  C   UNL     1       6.820  -2.337  -4.300  0.00  0.00    -0.004 C 
ATOM     39  C   UNL     1       7.688  -2.249  -3.042  0.00  0.00    -0.019 C 
ATOM     40  C   UNL     1       6.946  -2.898  -1.871  0.00  0.00    -0.078 C 
ATOM     41  H   UNL     1       5.860  -1.218  -1.476  0.00  0.00    -0.081 HD
ENDBRANCH  23  35
ENDBRANCH  22  23
ENDBRANCH   1  22
TORSDOF 6
