REMARK  Name = ZINC62854684
REMARK  4 active torsions:
REMARK  status: ('A' for Active; 'I' for Inactive)
REMARK    1  A    between atoms: C_1  and  C_2
REMARK    2  A    between atoms: C_2  and  C_8
REMARK    3  A    between atoms: N_10  and  C_11
REMARK    4  A    between atoms: C_14  and  C_17
REMARK                            x       y       z     vdW  Elec       q    Type
REMARK                         _______ _______ _______ _____ _____    ______ ____
ROOT
ATOM      1  C   UNL     1       0.705  -0.491  -1.239  0.00  0.00    +0.217 C 
ATOM      2  O   UNL     1       1.702  -1.176  -1.142  0.00  0.00    -0.275 OA
ATOM      3  N   UNL     1       0.227  -0.166  -2.456  0.00  0.00    -0.312 N 
ATOM      4  H   UNL     1      -0.570   0.382  -2.534  0.00  0.00    +0.149 HD
ENDROOT
BRANCH   1   6
ATOM      5  C   UNL     1      -0.019   1.526   0.010  0.00  0.00    +0.019 C 
ATOM      6  C   UNL     1       0.002  -0.004   0.002  0.00  0.00    +0.029 C 
ATOM      7  C   UNL     1      -1.434  -0.535   0.018  0.00  0.00    +0.012 C 
ATOM      8  C   UNL     1      -1.402  -2.064   0.089  0.00  0.00    -0.018 C 
ATOM      9  C   UNL     1      -0.610  -2.496   1.325  0.00  0.00    -0.083 C 
ATOM     10  N   UNL     1       0.761  -1.980   1.237  0.00  0.00    +0.380 N 
ATOM     11  C   UNL     1       0.742  -0.512   1.241  0.00  0.00    -0.067 C 
ATOM     12  H   UNL     1       1.296  -2.310   2.027  0.00  0.00    -0.086 HD
ATOM     13  H   UNL     1       1.189  -2.307   0.384  0.00  0.00    -0.086 HD
ENDBRANCH   1   6
BRANCH   3  14
ATOM     14  C   UNL     1       0.911  -0.639  -3.662  0.00  0.00    +0.073 C 
ATOM     15  C   UNL     1       2.048   0.322  -4.014  0.00  0.00    +0.023 C 
ATOM     16  C   UNL     1       1.476   1.718  -4.267  0.00  0.00    +0.014 C 
ATOM     17  C   UNL     1       0.481   1.659  -5.427  0.00  0.00    +0.075 C 
ATOM     18  C   UNL     1      -0.656   0.699  -5.075  0.00  0.00    +0.014 C 
ATOM     19  C   UNL     1      -0.084  -0.698  -4.823  0.00  0.00    +0.023 C 
BRANCH  17  20
ATOM     20  C   UNL     1      -0.082   3.035  -5.676  0.00  0.00    +0.214 C 
ATOM     21  O   UNL     1       0.277   3.970  -4.993  0.00  0.00    -0.276 OA
ATOM     22  N   UNL     1      -0.985   3.226  -6.658  0.00  0.00    -0.329 N 
ATOM     23  H   UNL     1      -1.272   2.478  -7.205  0.00  0.00    +0.145 HD
ATOM     24  H   UNL     1      -1.348   4.111  -6.819  0.00  0.00    +0.145 HD
ENDBRANCH  17  20
ENDBRANCH   3  14
TORSDOF 3
