REMARK  Name = ZINC02311114
REMARK  6 active torsions:
REMARK  status: ('A' for Active; 'I' for Inactive)
REMARK    1  A    between atoms: C_1  and  C_2
REMARK    2  A    between atoms: C_2  and  C_4
REMARK    3  A    between atoms: C_2  and  N_10
REMARK    4  A    between atoms: C_11  and  C_13
REMARK    5  A    between atoms: N_24  and  C_27
REMARK    6  A    between atoms: C_25  and  N_26
REMARK                            x       y       z     vdW  Elec       q    Type
REMARK                         _______ _______ _______ _____ _____    ______ ____
ROOT
ATOM      1  C   UNL     1       1.311  -0.472  -0.013  0.00  0.00    +0.104 A 
ATOM      2  C   UNL     1       2.180   0.717  -0.015  0.00  0.00    +0.123 A 
ATOM      3  C   UNL     1       1.269   1.865   0.000  0.00  0.00    +0.166 A 
ATOM      4  N   UNL     1       1.765   3.084   0.003  0.00  0.00    -0.225 NA
ATOM      5  C   UNL     1       3.091   3.264  -0.009  0.00  0.00    +0.092 A 
ATOM      6  C   UNL     1       3.630   4.565  -0.007  0.00  0.00    +0.030 A 
ATOM      7  C   UNL     1       4.979   4.739  -0.018  0.00  0.00    +0.002 A 
ATOM      8  C   UNL     1       5.843   3.646  -0.032  0.00  0.00    +0.002 A 
ATOM      9  C   UNL     1       5.361   2.374  -0.035  0.00  0.00    +0.030 A 
ATOM     10  C   UNL     1       3.970   2.153  -0.024  0.00  0.00    +0.090 A 
ATOM     11  N   UNL     1       3.485   0.906  -0.026  0.00  0.00    -0.241 NA
ATOM     12  N   UNL     1      -0.016   1.359   0.009  0.00  0.00    -0.280 N 
ATOM     13  C   UNL     1       0.002  -0.004   0.002  0.00  0.00    +0.117 A 
ENDROOT
BRANCH  12  14
ATOM     14  C   UNL     1      -1.180   2.140   0.019  0.00  0.00    +0.052 A 
ATOM     15  C   UNL     1      -2.035   2.100   1.113  0.00  0.00    +0.026 A 
ATOM     16  C   UNL     1      -3.181   2.870   1.121  0.00  0.00    +0.005 A 
ATOM     17  C   UNL     1      -3.479   3.682   0.042  0.00  0.00    +0.038 A 
ATOM     18  C   UNL     1      -2.629   3.724  -1.050  0.00  0.00    +0.125 A 
ATOM     19  C   UNL     1      -1.476   2.958  -1.061  0.00  0.00    +0.064 A 
ATOM     20  F   UNL     1      -2.922   4.518  -2.104  0.00  0.00    -0.205 F 
ENDBRANCH  12  14
BRANCH   1  22
ATOM     21  N   UNL     1       1.949  -2.519   1.137  0.00  0.00    -0.305 N 
ATOM     22  C   UNL     1       1.741  -1.868  -0.025  0.00  0.00    +0.250 C 
ATOM     23  O   UNL     1       1.910  -2.445  -1.084  0.00  0.00    -0.270 OA
ATOM     24  H   UNL     1       1.815  -2.060   1.981  0.00  0.00    +0.150 HD
BRANCH  21  26
ATOM     25  C   UNL     1       1.155  -4.828   1.006  0.00  0.00    +0.033 C 
ATOM     26  C   UNL     1       2.380  -3.919   1.126  0.00  0.00    +0.100 C 
BRANCH  26  27
ATOM     27  C   UNL     1       3.113  -4.230   2.405  0.00  0.00    -0.027 A 
ATOM     28  C   UNL     1       2.661  -3.712   3.604  0.00  0.00    +0.005 A 
ATOM     29  C   UNL     1       3.331  -4.000   4.778  0.00  0.00    +0.000 A 
ATOM     30  C   UNL     1       4.459  -4.800   4.752  0.00  0.00    +0.000 A 
ATOM     31  C   UNL     1       4.913  -5.314   3.552  0.00  0.00    +0.000 A 
ATOM     32  C   UNL     1       4.241  -5.029   2.379  0.00  0.00    +0.005 A 
ENDBRANCH  26  27
ENDBRANCH  21  26
ENDBRANCH   1  22
BRANCH  13  33
ATOM     33  N   UNL     1      -1.113  -0.801   0.009  0.00  0.00    -0.343 N 
ATOM     34  H   UNL     1      -1.996  -0.400   0.020  0.00  0.00    +0.144 HD
ATOM     35  H   UNL     1      -1.019  -1.767   0.003  0.00  0.00    +0.144 HD
ENDBRANCH  13  33
TORSDOF 5
