REMARK  Name = ZINC06683777
REMARK  4 active torsions:
REMARK  status: ('A' for Active; 'I' for Inactive)
REMARK    1  A    between atoms: C_5  and  C_6
REMARK    2  A    between atoms: N_7  and  N_8
REMARK    3  A    between atoms: C_9  and  C_11
REMARK    4  A    between atoms: C_13  and  N_18
REMARK                            x       y       z     vdW  Elec       q    Type
REMARK                         _______ _______ _______ _____ _____    ______ ____
ROOT
ATOM      1  C   UNL     1      -6.027  -1.071   0.052  0.00  0.00    +0.125 A 
ATOM      2  C   UNL     1      -7.252  -0.411   0.074  0.00  0.00    +0.091 A 
ATOM      3  C   UNL     1      -8.426  -1.165   0.074  0.00  0.00    +0.067 A 
ATOM      4  C   UNL     1      -8.319  -2.555   0.065  0.00  0.00    +0.098 A 
ATOM      5  C   UNL     1      -7.063  -3.138   0.050  0.00  0.00    +0.128 A 
ATOM      6 CL   UNL     1      -6.923  -4.869   0.039  0.00  0.00    -0.062 Cl
ATOM      7 CL   UNL     1      -9.746  -3.545   0.073  0.00  0.00    -0.079 Cl
ATOM      8 CL   UNL     1      -7.319   1.323   0.092  0.00  0.00    -0.079 Cl
ATOM      9  N   UNL     1      -5.901  -2.436   0.043  0.00  0.00    -0.339 N 
ATOM     10  H   UNL     1      -4.984  -2.898   0.032  0.00  0.00    +0.167 HD
ENDROOT
BRANCH   1  12
ATOM     11  N   UNL     1      -3.582  -0.919   0.030  0.00  0.00    -0.202 N 
ATOM     12  C   UNL     1      -4.772  -0.286   0.045  0.00  0.00    +0.281 C 
ATOM     13  O   UNL     1      -4.815   0.929   0.053  0.00  0.00    -0.267 OA
ATOM     14  H   UNL     1      -3.548  -1.888   0.025  0.00  0.00    +0.178 HD
BRANCH  11  16
ATOM     15  C   UNL     1      -1.247  -0.785   0.009  0.00  0.00    +0.138 C 
ATOM     16  N   UNL     1      -2.394  -0.176   0.024  0.00  0.00    -0.187 NA
BRANCH  15  21
ATOM     17  C   UNL     1       1.287  -0.652  -0.014  0.00  0.00    +0.017 A 
ATOM     18  C   UNL     1       2.392   0.122  -0.020  0.00  0.00    +0.046 A 
ATOM     19  S   UNL     1       1.719   1.774  -0.005  0.00  0.00    -0.104 S 
ATOM     20  C   UNL     1      -0.017   1.366   0.010  0.00  0.00    +0.054 A 
ATOM     21  C   UNL     1       0.002  -0.004   0.002  0.00  0.00    +0.002 A 
ENDBRANCH  15  21
ENDBRANCH  11  16
ENDBRANCH   1  12
BRANCH   3  22
ATOM     22  N   UNL     1      -9.674  -0.545   0.089  0.00  0.00    -0.356 N 
ATOM     23  H   UNL     1     -10.482  -1.081   0.093  0.00  0.00    +0.142 HD
ATOM     24  H   UNL     1      -9.734   0.423   0.095  0.00  0.00    +0.142 HD
ENDBRANCH   3  22
TORSDOF 4
