REMARK  Name = ZINC48577774
REMARK  5 active torsions:
REMARK  status: ('A' for Active; 'I' for Inactive)
REMARK    1  A    between atoms: C_1  and  C_2
REMARK    2  A    between atoms: C_2  and  C_4
REMARK    3  A    between atoms: C_2  and  N_10
REMARK    4  A    between atoms: C_11  and  C_13
REMARK    5  A    between atoms: N_15  and  C_16
REMARK                            x       y       z     vdW  Elec       q    Type
REMARK                         _______ _______ _______ _____ _____    ______ ____
ROOT
ATOM      1  C   UNL     1       2.730  -1.072  -2.442  0.00  0.00    +0.303 C 
ATOM      2  O   UNL     1       2.087  -1.375  -3.426  0.00  0.00    -0.265 OA
ATOM      3  N   UNL     1       4.073  -1.179  -2.455  0.00  0.00    -0.278 N 
ATOM      4  H   UNL     1       4.591  -0.875  -1.694  0.00  0.00    +0.155 HD
ENDROOT
BRANCH   3   5
ATOM      5  C   UNL     1       4.719  -1.727  -3.566  0.00  0.00    +0.037 A 
ATOM      6  C   UNL     1       5.862  -2.504  -3.388  0.00  0.00    +0.024 A 
ATOM      7  C   UNL     1       6.503  -3.047  -4.478  0.00  0.00    +0.014 A 
ATOM      8  C   UNL     1       6.007  -2.818  -5.758  0.00  0.00    +0.028 A 
ATOM      9  C   UNL     1       6.430  -3.234  -7.109  0.00  0.00    +0.028 A 
ATOM     10  C   UNL     1       7.478  -4.007  -7.598  0.00  0.00    +0.012 A 
ATOM     11  C   UNL     1       7.599  -4.214  -8.956  0.00  0.00    +0.001 A 
ATOM     12  C   UNL     1       6.680  -3.655  -9.830  0.00  0.00    +0.004 A 
ATOM     13  C   UNL     1       5.637  -2.888  -9.355  0.00  0.00    +0.047 A 
ATOM     14  C   UNL     1       5.499  -2.667  -7.990  0.00  0.00    +0.136 A 
ATOM     15  O   UNL     1       4.592  -1.973  -7.268  0.00  0.00    -0.455 OA
ATOM     16  C   UNL     1       4.857  -2.037  -5.945  0.00  0.00    +0.138 A 
ATOM     17  C   UNL     1       4.216  -1.500  -4.837  0.00  0.00    +0.070 A 
ENDBRANCH   3   5
BRANCH   1  19
ATOM     18  N   UNL     1       0.688  -0.474  -1.203  0.00  0.00    -0.301 N 
ATOM     19  C   UNL     1       2.032  -0.581  -1.216  0.00  0.00    +0.300 C 
ATOM     20  O   UNL     1       2.674  -0.278  -0.232  0.00  0.00    -0.265 OA
ATOM     21  H   UNL     1       0.175  -0.716  -1.990  0.00  0.00    +0.150 HD
BRANCH  18  23
ATOM     22  C   UNL     1      -0.021   1.537  -0.007  0.00  0.00    +0.033 C 
ATOM     23  C   UNL     1       0.004   0.008  -0.001  0.00  0.00    +0.101 C 
BRANCH  23  24
ATOM     24  C   UNL     1      -1.409  -0.518   0.017  0.00  0.00    -0.027 A 
ATOM     25  C   UNL     1      -2.141  -0.573  -1.154  0.00  0.00    +0.005 A 
ATOM     26  C   UNL     1      -3.436  -1.055  -1.138  0.00  0.00    +0.000 A 
ATOM     27  C   UNL     1      -4.000  -1.482   0.050  0.00  0.00    +0.000 A 
ATOM     28  C   UNL     1      -3.268  -1.427   1.222  0.00  0.00    +0.000 A 
ATOM     29  C   UNL     1      -1.971  -0.949   1.204  0.00  0.00    +0.005 A 
ENDBRANCH  23  24
ENDBRANCH  18  23
ENDBRANCH   1  19
TORSDOF 4
