REMARK  Name = ZINC63139504
REMARK  9 active torsions:
REMARK  status: ('A' for Active; 'I' for Inactive)
REMARK    1  A    between atoms: C_1  and  C_2
REMARK    2  A    between atoms: C_2  and  C_3
REMARK    3  A    between atoms: C_2  and  C_4
REMARK    4  A    between atoms: C_7  and  C_10
REMARK    5  A    between atoms: N_29  and  C_32
REMARK    6  A    between atoms: C_34  and  C_40
REMARK    7  A    between atoms: C_34  and  C_41
REMARK    8  A    between atoms: C_36  and  C_38
REMARK    9  A    between atoms: C_36  and  C_39
REMARK                            x       y       z     vdW  Elec       q    Type
REMARK                         _______ _______ _______ _____ _____    ______ ____
ROOT
ATOM      1  C   UNL     1      -5.638  -2.173  -0.164  0.00  0.00    +0.133 C 
ATOM      2  C   UNL     1      -5.624  -3.624   0.314  0.00  0.00    +0.131 C 
ATOM      3  C   UNL     1      -6.955  -4.223  -0.135  0.00  0.00    -0.034 C 
ATOM      4  C   UNL     1      -7.595  -4.600   0.964  0.00  0.00    -0.001 A 
ATOM      5  C   UNL     1      -8.896  -5.259   1.163  0.00  0.00    +0.010 A 
ATOM      6  C   UNL     1      -9.255  -5.502   2.451  0.00  0.00    +0.001 A 
ATOM      7  C   UNL     1      -8.459  -5.159   3.548  0.00  0.00    +0.002 A 
ATOM      8  C   UNL     1      -7.248  -4.552   3.459  0.00  0.00    +0.026 A 
ATOM      9  C   UNL     1      -6.762  -4.247   2.154  0.00  0.00    +0.043 A 
ATOM     10  N   UNL     1      -5.631  -3.682   1.782  0.00  0.00    -0.375 N 
ATOM     11  C   UNL     1      -7.336  -4.275  -1.589  0.00  0.00    +0.065 C 
ATOM     12  C   UNL     1      -6.939  -2.990  -2.268  0.00  0.00    +0.167 C 
ATOM     13  N   UNL     1      -6.107  -2.058  -1.537  0.00  0.00    -0.279 N 
ATOM     14  C   UNL     1      -5.772  -0.912  -2.217  0.00  0.00    +0.234 C 
ATOM     15  O   UNL     1      -5.026  -0.084  -1.738  0.00  0.00    -0.274 OA
ATOM     16  C   UNL     1      -6.377  -0.732  -3.593  0.00  0.00    +0.204 C 
ATOM     17  N   UNL     1      -7.803  -1.100  -3.529  0.00  0.00    -0.288 N 
ATOM     18  C   UNL     1      -8.109  -2.258  -2.875  0.00  0.00    +0.237 C 
ATOM     19  O   UNL     1      -9.245  -2.673  -2.791  0.00  0.00    -0.274 OA
ATOM     20  H   UNL     1      -4.926  -3.357   2.364  0.00  0.00    +0.160 HD
ENDROOT
BRANCH  17  21
ATOM     21  C   UNL     1      -8.844  -0.262  -4.138  0.00  0.00    +0.074 C 
ATOM     22  C   UNL     1      -8.555  -0.107  -5.632  0.00  0.00    +0.009 C 
ATOM     23  C   UNL     1      -9.624   0.774  -6.277  0.00  0.00    -0.072 C 
ATOM     24  N   UNL     1      -9.762   2.055  -5.599  0.00  0.00    +0.386 N 
ATOM     25  C   UNL     1      -9.839   2.045  -4.147  0.00  0.00    -0.072 C 
ATOM     26  C   UNL     1      -8.813   1.125  -3.496  0.00  0.00    +0.009 C 
ATOM     27  C   UNL     1     -11.245   1.689  -3.658  0.00  0.00    -0.010 C 
ATOM     28  C   UNL     1      -9.542   3.483  -3.658  0.00  0.00    -0.010 C 
ATOM     29  C   UNL     1     -10.951   0.021  -6.359  0.00  0.00    -0.010 C 
ATOM     30  C   UNL     1      -9.168   1.060  -7.727  0.00  0.00    -0.010 C 
ATOM     31  H   UNL     1      -8.977   2.650  -5.876  0.00  0.00    -0.084 HD
ATOM     32  H   UNL     1     -10.595   2.523  -5.964  0.00  0.00    -0.084 HD
ENDBRANCH  17  21
BRANCH   1  36
ATOM     33  C   UNL     1      -1.677  -0.593   0.087  0.00  0.00    -0.045 A 
ATOM     34  C   UNL     1      -2.592  -0.324   1.087  0.00  0.00    +0.004 A 
ATOM     35  C   UNL     1      -3.874  -0.836   1.006  0.00  0.00    +0.006 A 
ATOM     36  C   UNL     1      -4.240  -1.615  -0.076  0.00  0.00    -0.025 A 
ATOM     37  C   UNL     1      -3.325  -1.882  -1.077  0.00  0.00    +0.006 A 
ATOM     38  C   UNL     1      -2.044  -1.367  -0.997  0.00  0.00    +0.004 A 
BRANCH  33  40
ATOM     39  C   UNL     1      -0.342   1.492   0.227  0.00  0.00    +0.012 C 
ATOM     40  C   UNL     1      -0.279  -0.036   0.176  0.00  0.00    +0.013 C 
ATOM     41  C   UNL     1       0.400  -0.561   1.442  0.00  0.00    +0.012 C 
ENDBRANCH  33  40
ENDBRANCH   1  36
TORSDOF 3
