REMARK  Name = ZINC43666284
REMARK  4 active torsions:
REMARK  status: ('A' for Active; 'I' for Inactive)
REMARK    1  A    between atoms: C_4  and  C_7
REMARK    2  A    between atoms: C_7  and  C_9
REMARK    3  A    between atoms: C_7  and  N_16
REMARK    4  A    between atoms: C_17  and  N_22
REMARK                            x       y       z     vdW  Elec       q    Type
REMARK                         _______ _______ _______ _____ _____    ______ ____
ROOT
ATOM      1  C   UNL     1       3.711  -0.707  -0.038  0.00  0.00    +0.169 C 
ENDROOT
BRANCH   1   2
ATOM      2  C   UNL     1       3.740  -1.658  -1.207  0.00  0.00    -0.019 A 
ATOM      3  C   UNL     1       2.732  -2.591  -1.362  0.00  0.00    +0.009 A 
ATOM      4  C   UNL     1       2.756  -3.463  -2.434  0.00  0.00    +0.039 A 
ATOM      5  C   UNL     1       3.791  -3.402  -3.352  0.00  0.00    +0.123 A 
ATOM      6  C   UNL     1       4.800  -2.466  -3.195  0.00  0.00    +0.039 A 
ATOM      7  C   UNL     1       4.770  -1.592  -2.126  0.00  0.00    +0.009 A 
ATOM      8  F   UNL     1       3.816  -4.254  -4.400  0.00  0.00    -0.205 F 
ENDBRANCH   1   2
BRANCH   1  12
ATOM      9  C   UNL     1       0.416   1.978  -0.463  0.00  0.00    +0.000 A 
ATOM     10  C   UNL     1       0.188   0.634  -0.230  0.00  0.00    +0.000 A 
ATOM     11  C   UNL     1       1.254  -0.234  -0.093  0.00  0.00    +0.006 A 
ATOM     12  C   UNL     1       2.549   0.240  -0.188  0.00  0.00    -0.019 A 
ATOM     13  C   UNL     1       2.777   1.583  -0.422  0.00  0.00    +0.006 A 
ATOM     14  C   UNL     1       1.711   2.452  -0.558  0.00  0.00    +0.000 A 
ENDBRANCH   1  12
BRANCH   1  15
ATOM     15  N   UNL     1       3.564  -1.467   1.206  0.00  0.00    -0.238 N 
ATOM     16  C   UNL     1       4.435  -1.472   2.248  0.00  0.00    +0.130 A 
ATOM     17  C   UNL     1       3.928  -2.304   3.200  0.00  0.00    +0.077 A 
ATOM     18  C   UNL     1       2.718  -2.816   2.722  0.00  0.00    +0.151 A 
ATOM     19  N   UNL     1       2.497  -2.312   1.535  0.00  0.00    -0.176 NA
ATOM     20 BR   UNL     1       4.720  -2.697   4.872  0.00  0.00    -0.045 Br
BRANCH  16  21
ATOM     21  N   UNL     1       5.628  -0.759   2.328  0.00  0.00    -0.342 N 
ATOM     22  H   UNL     1       5.904  -0.190   1.592  0.00  0.00    +0.144 HD
ATOM     23  H   UNL     1       6.184  -0.830   3.120  0.00  0.00    +0.144 HD
ENDBRANCH  16  21
ENDBRANCH   1  15
TORSDOF 4
