REMARK  Name = ZINC43473155
REMARK  3 active torsions:
REMARK  status: ('A' for Active; 'I' for Inactive)
REMARK    1  A    between atoms: C_3  and  N_16
REMARK    2  A    between atoms: C_6  and  O_7
REMARK    3  A    between atoms: O_7  and  C_8
REMARK                            x       y       z     vdW  Elec       q    Type
REMARK                         _______ _______ _______ _____ _____    ______ ____
ROOT
ATOM      1  C   UNL     1       0.002   1.358   0.251  0.00  0.00    +0.048 A 
ATOM      2  C   UNL     1       1.190   2.064   0.243  0.00  0.00    +0.029 A 
ATOM      3  C   UNL     1       2.385   1.409  -0.016  0.00  0.00    +0.060 A 
ATOM      4  C   UNL     1       2.386   0.041  -0.267  0.00  0.00    +0.147 A 
ATOM      5  C   UNL     1       1.197  -0.664  -0.258  0.00  0.00    +0.086 A 
ATOM      6  C   UNL     1       0.003  -0.006   0.001  0.00  0.00    +0.133 A 
ATOM      7  F   UNL     1       3.549  -0.599  -0.520  0.00  0.00    -0.203 F 
ENDROOT
BRANCH   3   8
ATOM      8  N   UNL     1       3.589   2.124  -0.025  0.00  0.00    -0.356 N 
ATOM      9  H   UNL     1       3.588   3.079   0.150  0.00  0.00    +0.142 HD
ATOM     10  H   UNL     1       4.425   1.666  -0.206  0.00  0.00    +0.142 HD
ENDBRANCH   3   8
BRANCH   6  11
ATOM     11  O   UNL     1      -1.167  -0.700   0.010  0.00  0.00    -0.438 OA
BRANCH  11  12
ATOM     12  C   UNL     1      -1.984  -0.584  -1.067  0.00  0.00    +0.221 A 
ATOM     13  C   UNL     1      -3.234  -1.190  -1.050  0.00  0.00    +0.069 A 
ATOM     14  C   UNL     1      -4.058  -1.065  -2.154  0.00  0.00    +0.027 A 
ATOM     15  C   UNL     1      -3.600  -0.334  -3.243  0.00  0.00    +0.059 A 
ATOM     16  C   UNL     1      -2.345   0.241  -3.191  0.00  0.00    +0.134 A 
ATOM     17  N   UNL     1      -1.584   0.108  -2.121  0.00  0.00    -0.220 NA
ATOM     18 CL   UNL     1      -4.593  -0.146  -4.655  0.00  0.00    -0.082 Cl
ENDBRANCH  11  12
ENDBRANCH   6  11
TORSDOF 3
