REMARK  Name = ZINC02761656
REMARK  9 active torsions:
REMARK  status: ('A' for Active; 'I' for Inactive)
REMARK    1  A    between atoms: C_1  and  C_2
REMARK    2  A    between atoms: C_4  and  C_25
REMARK    3  A    between atoms: C_8  and  N_24
REMARK    4  A    between atoms: C_9  and  C_11
REMARK    5  A    between atoms: N_13  and  C_14
REMARK    6  A    between atoms: C_17  and  O_22
REMARK    7  A    between atoms: C_18  and  O_20
REMARK    8  A    between atoms: O_20  and  C_21
REMARK    9  A    between atoms: O_22  and  C_23
REMARK                            x       y       z     vdW  Elec       q    Type
REMARK                         _______ _______ _______ _____ _____    ______ ____
ROOT
ATOM      1  C   UNL     1      -0.656   1.743   0.726  0.00  0.00    +0.044 C 
ATOM      2  C   UNL     1      -0.571   0.259   0.482  0.00  0.00    -0.037 A 
ATOM      3  C   UNL     1      -1.039  -0.284  -0.692  0.00  0.00    +0.036 A 
ATOM      4  C   UNL     1      -0.960  -1.650  -0.914  0.00  0.00    +0.145 A 
ATOM      5  N   UNL     1      -0.435  -2.446  -0.003  0.00  0.00    -0.235 NA
ATOM      6  C   UNL     1       0.027  -1.975   1.136  0.00  0.00    +0.112 A 
ATOM      7  C   UNL     1      -0.003  -0.599   1.456  0.00  0.00    +0.032 A 
ATOM      8  C   UNL     1       0.555  -0.255   2.755  0.00  0.00    +0.054 A 
ATOM      9  C   UNL     1       1.056  -1.269   3.541  0.00  0.00    +0.097 A 
ATOM     10  S   UNL     1       0.780  -2.729   2.557  0.00  0.00    -0.062 S 
ENDROOT
BRANCH   9  11
ATOM     11  C   UNL     1       1.642  -1.176   4.828  0.00  0.00    +0.257 C 
ATOM     12  O   UNL     1       1.750  -0.091   5.370  0.00  0.00    -0.269 OA
ATOM     13  N   UNL     1       2.081  -2.287   5.451  0.00  0.00    -0.281 N 
ATOM     14  H   UNL     1       1.997  -3.151   5.017  0.00  0.00    +0.155 HD
BRANCH  13  15
ATOM     15  C   UNL     1       2.656  -2.195   6.724  0.00  0.00    +0.037 A 
ATOM     16  C   UNL     1       2.257  -1.190   7.595  0.00  0.00    +0.027 A 
ATOM     17  C   UNL     1       2.824  -1.099   8.852  0.00  0.00    +0.051 A 
ATOM     18  C   UNL     1       3.792  -2.009   9.246  0.00  0.00    +0.162 A 
ATOM     19  C   UNL     1       4.194  -3.017   8.375  0.00  0.00    +0.163 A 
ATOM     20  C   UNL     1       3.622  -3.112   7.117  0.00  0.00    +0.072 A 
BRANCH  19  21
ATOM     21  O   UNL     1       5.143  -3.911   8.760  0.00  0.00    -0.491 OA
ATOM     22  C   UNL     1       5.507  -4.919   7.815  0.00  0.00    +0.277 C 
ENDBRANCH  19  21
BRANCH  18  23
ATOM     23  O   UNL     1       4.349  -1.917  10.484  0.00  0.00    -0.491 OA
ATOM     24  C   UNL     1       3.889  -0.857  11.325  0.00  0.00    +0.277 C 
ENDBRANCH  18  23
ENDBRANCH  13  15
ENDBRANCH   9  11
BRANCH   4  25
ATOM     25  C   UNL     1      -1.478  -2.230  -2.205  0.00  0.00    +0.434 C 
ATOM     26  F   UNL     1      -0.448  -2.251  -3.152  0.00  0.00    -0.164 F 
ATOM     27  F   UNL     1      -1.933  -3.534  -1.981  0.00  0.00    -0.164 F 
ATOM     28  F   UNL     1      -2.532  -1.443  -2.680  0.00  0.00    -0.164 F 
ENDBRANCH   4  25
BRANCH   8  29
ATOM     29  N   UNL     1       0.582   1.063   3.191  0.00  0.00    -0.356 N 
ATOM     30  H   UNL     1       0.517   1.787   2.550  0.00  0.00    +0.142 HD
ATOM     31  H   UNL     1       0.666   1.258   4.138  0.00  0.00    +0.142 HD
ENDBRANCH   8  29
TORSDOF 6
