REMARK  Name = ZINC38632899
REMARK  6 active torsions:
REMARK  status: ('A' for Active; 'I' for Inactive)
REMARK    1  A    between atoms: N_9  and  C_11
REMARK    2  A    between atoms: C_11  and  C_13
REMARK    3  A    between atoms: C_11  and  C_28
REMARK    4  A    between atoms: C_13  and  N_14
REMARK    5  A    between atoms: C_15  and  C_17
REMARK    6  A    between atoms: N_19  and  C_20
REMARK                            x       y       z     vdW  Elec       q    Type
REMARK                         _______ _______ _______ _____ _____    ______ ____
ROOT
ATOM      1  C   UNL     1       5.957  -2.023   0.985  0.00  0.00    +0.131 C 
ENDROOT
BRANCH   1   2
ATOM      2  N   UNL     1       5.930  -0.622   0.557  0.00  0.00    -0.306 N 
ATOM      3  C   UNL     1       6.864   0.239   1.008  0.00  0.00    +0.299 C 
ATOM      4  O   UNL     1       7.727  -0.147   1.770  0.00  0.00    -0.265 OA
ATOM      5  H   UNL     1       5.241  -0.315  -0.052  0.00  0.00    +0.149 HD
BRANCH   3   6
ATOM      6  C   UNL     1       6.836   1.667   0.572  0.00  0.00    +0.303 C 
ATOM      7  O   UNL     1       5.973   2.052  -0.190  0.00  0.00    -0.265 OA
ATOM      8  N   UNL     1       7.770   2.527   1.023  0.00  0.00    -0.278 N 
ATOM      9  H   UNL     1       8.416   2.238   1.687  0.00  0.00    +0.155 HD
BRANCH   8  10
ATOM     10  C   UNL     1       7.807   3.837   0.536  0.00  0.00    +0.037 A 
ATOM     11  C   UNL     1       9.026   4.479   0.358  0.00  0.00    +0.026 A 
ATOM     12  C   UNL     1       9.062   5.773  -0.123  0.00  0.00    +0.043 A 
ATOM     13  C   UNL     1       7.883   6.432  -0.429  0.00  0.00    +0.159 A 
ATOM     14  C   UNL     1       6.664   5.795  -0.252  0.00  0.00    +0.160 A 
ATOM     15  C   UNL     1       6.625   4.497   0.224  0.00  0.00    +0.064 A 
ATOM     16  F   UNL     1       5.515   6.440  -0.550  0.00  0.00    -0.202 F 
ATOM     17  F   UNL     1       7.921   7.698  -0.900  0.00  0.00    -0.202 F 
ENDBRANCH   8  10
ENDBRANCH   3   6
ENDBRANCH   1   2
BRANCH   1  18
ATOM     18  C   UNL     1       4.863  -2.802   0.253  0.00  0.00    +0.140 C 
BRANCH  18  27
ATOM     19  C   UNL     1      -1.346  -1.180   0.611  0.00  0.00    +0.000 A 
ATOM     20  C   UNL     1      -1.149  -1.940  -0.527  0.00  0.00    +0.000 A 
ATOM     21  C   UNL     1       0.099  -2.465  -0.796  0.00  0.00    +0.005 A 
ATOM     22  C   UNL     1       1.158  -2.233   0.070  0.00  0.00    -0.030 A 
ATOM     23  C   UNL     1       0.962  -1.473   1.202  0.00  0.00    -0.042 A 
ATOM     24  C   UNL     1      -0.293  -0.948   1.472  0.00  0.00    +0.004 A 
ATOM     25  C   UNL     1       2.084  -1.185   2.166  0.00  0.00    +0.051 C 
ATOM     26  C   UNL     1       3.237  -2.161   1.931  0.00  0.00    +0.090 C 
ATOM     27  N   UNL     1       3.562  -2.165   0.496  0.00  0.00    -0.287 NA
ATOM     28  C   UNL     1       2.499  -2.832  -0.263  0.00  0.00    +0.120 C 
ENDBRANCH  18  27
BRANCH  18  29
ATOM     29  C   UNL     1       4.830  -4.220   0.760  0.00  0.00    +0.123 A 
ATOM     30  C   UNL     1       5.385  -5.285   0.153  0.00  0.00    +0.046 A 
ATOM     31  C   UNL     1       5.116  -6.408   0.970  0.00  0.00    +0.041 A 
ATOM     32  C   UNL     1       4.413  -5.962   2.026  0.00  0.00    +0.195 A 
ATOM     33  O   UNL     1       4.248  -4.635   1.897  0.00  0.00    -0.466 OA
ENDBRANCH  18  29
ENDBRANCH   1  18
TORSDOF 6
