REMARK  Name = ZINC04267400
REMARK  6 active torsions:
REMARK  status: ('A' for Active; 'I' for Inactive)
REMARK    1  A    between atoms: C_7  and  N_20
REMARK    2  A    between atoms: C_8  and  C_10
REMARK    3  A    between atoms: N_12  and  C_13
REMARK    4  A    between atoms: C_21  and  C_23
REMARK    5  A    between atoms: C_23  and  C_24
REMARK    6  A    between atoms: C_24  and  C_25
REMARK                            x       y       z     vdW  Elec       q    Type
REMARK                         _______ _______ _______ _____ _____    ______ ____
ROOT
ATOM      1  C   UNL     1       8.240  -0.171   4.460  0.00  0.00    +0.001 A 
ATOM      2  C   UNL     1       9.315   0.671   4.213  0.00  0.00    +0.004 A 
ATOM      3  C   UNL     1       9.179   1.762   3.382  0.00  0.00    +0.047 A 
ATOM      4  C   UNL     1       7.952   2.026   2.782  0.00  0.00    +0.138 A 
ATOM      5  C   UNL     1       6.866   1.173   3.041  0.00  0.00    +0.042 A 
ATOM      6  C   UNL     1       7.025   0.070   3.881  0.00  0.00    +0.013 A 
ATOM      7  C   UNL     1       5.741   1.714   2.268  0.00  0.00    +0.092 A 
ATOM      8  C   UNL     1       6.224   2.824   1.631  0.00  0.00    +0.212 A 
ATOM      9  O   UNL     1       7.528   2.993   1.945  0.00  0.00    -0.448 OA
ENDROOT
BRANCH   8  10
ATOM     10  C   UNL     1       5.449   3.692   0.747  0.00  0.00    +0.286 C 
ATOM     11  O   UNL     1       4.255   3.504   0.602  0.00  0.00    -0.266 OA
ATOM     12  N   UNL     1       6.057   4.702   0.092  0.00  0.00    -0.277 N 
ATOM     13  H   UNL     1       6.996   4.887   0.251  0.00  0.00    +0.155 HD
BRANCH  12  14
ATOM     14  C   UNL     1       5.333   5.482  -0.817  0.00  0.00    +0.069 A 
ATOM     15  C   UNL     1       3.986   5.734  -0.599  0.00  0.00    +0.026 A 
ATOM     16  C   UNL     1       3.275   6.510  -1.494  0.00  0.00    +0.002 A 
ATOM     17  C   UNL     1       3.902   7.026  -2.614  0.00  0.00    +0.003 A 
ATOM     18  C   UNL     1       5.242   6.773  -2.839  0.00  0.00    +0.040 A 
ATOM     19  C   UNL     1       5.961   6.002  -1.943  0.00  0.00    +0.144 A 
ATOM     20  F   UNL     1       7.271   5.754  -2.163  0.00  0.00    -0.204 F 
ENDBRANCH  12  14
ENDBRANCH   8  10
BRANCH   7  21
ATOM     21  N   UNL     1       4.449   1.206   2.203  0.00  0.00    -0.282 N 
ATOM     22  C   UNL     1       4.229  -0.107   2.417  0.00  0.00    +0.217 C 
ATOM     23  O   UNL     1       5.165  -0.856   2.600  0.00  0.00    -0.275 OA
ATOM     24  H   UNL     1       3.705   1.796   2.003  0.00  0.00    +0.155 HD
BRANCH  22  25
ATOM     25  C   UNL     1       2.821  -0.643   2.428  0.00  0.00    +0.096 C 
BRANCH  25  26
ATOM     26  C   UNL     1       2.851  -2.150   2.690  0.00  0.00    +0.013 C 
BRANCH  26  27
ATOM     27  C   UNL     1       1.421  -2.694   2.702  0.00  0.00    -0.011 C 
ATOM     28  C   UNL     1       0.804  -2.537   1.310  0.00  0.00    +0.003 C 
ATOM     29  C   UNL     1      -0.626  -3.082   1.322  0.00  0.00    +0.000 C 
ATOM     30  C   UNL     1      -0.605  -4.562   1.707  0.00  0.00    +0.000 C 
ATOM     31  C   UNL     1       0.012  -4.719   3.098  0.00  0.00    +0.000 C 
ATOM     32  C   UNL     1       1.442  -4.175   3.086  0.00  0.00    +0.003 C 
ENDBRANCH  26  27
ENDBRANCH  25  26
ENDBRANCH  22  25
ENDBRANCH   7  21
TORSDOF 6
