REMARK  Name = ZINC65563779
REMARK  4 active torsions:
REMARK  status: ('A' for Active; 'I' for Inactive)
REMARK    1  A    between atoms: C_1  and  S_2
REMARK    2  A    between atoms: S_2  and  N_5
REMARK    3  A    between atoms: N_5  and  C_6
REMARK    4  A    between atoms: C_13  and  C_15
REMARK                            x       y       z     vdW  Elec       q    Type
REMARK                         _______ _______ _______ _____ _____    ______ ____
ROOT
ATOM      1  C   UNL     1       2.361  -0.054  -1.092  0.00  0.00    +0.093 C 
ATOM      2  C   UNL     1       2.504   1.374  -1.623  0.00  0.00    +0.023 C 
ATOM      3  C   UNL     1       3.987   1.701  -1.816  0.00  0.00    +0.021 C 
ATOM      4  C   UNL     1       4.587   0.740  -2.847  0.00  0.00    +0.108 C 
ATOM      5  N   UNL     1       4.325  -0.640  -2.416  0.00  0.00    -0.300 N 
ATOM      6  C   UNL     1       2.943  -1.036  -2.115  0.00  0.00    +0.128 C 
ATOM      7  C   UNL     1       5.334  -1.526  -2.300  0.00  0.00    +0.219 C 
ATOM      8  O   UNL     1       5.114  -2.644  -1.884  0.00  0.00    -0.275 OA
ENDROOT
BRANCH   7   9
ATOM      9  C   UNL     1       6.735  -1.127  -2.686  0.00  0.00    +0.078 C 
ATOM     10  C   UNL     1       6.800  -0.891  -4.196  0.00  0.00    +0.032 C 
ATOM     11  C   UNL     1       8.217  -0.453  -4.580  0.00  0.00    +0.110 C 
ATOM     12  N   UNL     1       9.172  -1.453  -4.085  0.00  0.00    -0.286 N 
ATOM     13  C   UNL     1       9.134  -1.822  -2.663  0.00  0.00    +0.110 C 
ATOM     14  C   UNL     1       7.707  -2.245  -2.300  0.00  0.00    +0.032 C 
ATOM     15  C   UNL     1      10.065  -2.022  -4.918  0.00  0.00    +0.300 C 
ATOM     16  O   UNL     1      10.147  -1.644  -6.071  0.00  0.00    -0.253 OA
ATOM     17  N   UNL     1      10.867  -3.011  -4.474  0.00  0.00    -0.313 N 
ATOM     18  H   UNL     1      10.853  -3.263  -3.538  0.00  0.00    +0.146 HD
ATOM     19  H   UNL     1      11.458  -3.470  -5.091  0.00  0.00    +0.146 HD
ENDBRANCH   7   9
BRANCH   1  20
ATOM     20  N   UNL     1       0.943  -0.356  -0.877  0.00  0.00    -0.190 NA
ATOM     21  H   UNL     1       0.398  -0.673  -1.614  0.00  0.00    +0.148 HD
BRANCH  20  23
ATOM     22  C   UNL     1       0.363   1.628   0.940  0.00  0.00    +0.214 C 
ATOM     23  S   UNL     1       0.273  -0.156   0.624  0.00  0.00    +0.027 S 
ATOM     24  O   UNL     1       1.141  -0.854   1.505  0.00  0.00    -0.158 OA
ATOM     25  O   UNL     1      -1.082  -0.557   0.472  0.00  0.00    -0.158 OA
ENDBRANCH  20  23
ENDBRANCH   1  20
TORSDOF 3
