REMARK  Name = ZINC01342939
REMARK  4 active torsions:
REMARK  status: ('A' for Active; 'I' for Inactive)
REMARK    1  A    between atoms: C_1  and  C_2
REMARK    2  A    between atoms: C_4  and  C_24
REMARK    3  A    between atoms: C_10  and  N_23
REMARK    4  A    between atoms: C_11  and  C_15
REMARK                            x       y       z     vdW  Elec       q    Type
REMARK                         _______ _______ _______ _____ _____    ______ ____
ROOT
ATOM      1  C   UNL     1       2.321   1.824  -1.831  0.00  0.00    +0.044 C 
ATOM      2  C   UNL     1       1.062   2.281  -1.140  0.00  0.00    -0.050 A 
ATOM      3  C   UNL     1       1.137   3.270  -0.159  0.00  0.00    +0.008 A 
ATOM      4  C   UNL     1       0.021   3.705   0.485  0.00  0.00    -0.024 A 
ATOM      5  C   UNL     1      -1.232   3.154   0.161  0.00  0.00    +0.075 A 
ATOM      6  C   UNL     1      -1.310   2.152  -0.842  0.00  0.00    +0.002 A 
ATOM      7  C   UNL     1      -0.131   1.724  -1.482  0.00  0.00    +0.013 A 
ATOM      8  C   UNL     1      -2.550   1.593  -1.170  0.00  0.00    +0.022 A 
ATOM      9  C   UNL     1      -3.700   2.048  -0.500  0.00  0.00    +0.030 A 
ATOM     10  C   UNL     1      -5.080   1.615  -0.683  0.00  0.00    +0.053 A 
ATOM     11  C   UNL     1      -6.056   2.201   0.088  0.00  0.00    +0.097 A 
ATOM     12  S   UNL     1      -5.155   3.364   1.093  0.00  0.00    -0.062 S 
ATOM     13  C   UNL     1      -3.514   3.058   0.483  0.00  0.00    +0.111 A 
ATOM     14  N   UNL     1      -2.343   3.564   0.778  0.00  0.00    -0.239 NA
ATOM     15  C   UNL     1       0.126   4.774   1.543  0.00  0.00    +0.046 C 
ENDROOT
BRANCH  11  16
ATOM     16  C   UNL     1      -7.449   1.942   0.083  0.00  0.00    +0.255 C 
ATOM     17  O   UNL     1      -7.856   0.800  -0.025  0.00  0.00    -0.269 OA
ATOM     18  N   UNL     1      -8.325   2.961   0.199  0.00  0.00    -0.297 N 
ATOM     19  C   UNL     1      -7.856   4.353   0.209  0.00  0.00    +0.108 C 
ATOM     20  C   UNL     1      -8.618   5.134  -0.872  0.00  0.00    +0.019 C 
ATOM     21  C   UNL     1     -10.123   4.976  -0.642  0.00  0.00    +0.003 C 
ATOM     22  C   UNL     1     -10.506   3.498  -0.754  0.00  0.00    +0.019 C 
ATOM     23  C   UNL     1      -9.765   2.700   0.323  0.00  0.00    +0.108 C 
ENDBRANCH  11  16
BRANCH  10  24
ATOM     24  N   UNL     1      -5.400   0.635  -1.610  0.00  0.00    -0.356 N 
ATOM     25  H   UNL     1      -6.322   0.356  -1.722  0.00  0.00    +0.142 HD
ATOM     26  H   UNL     1      -4.702   0.229  -2.147  0.00  0.00    +0.142 HD
ENDBRANCH  10  24
TORSDOF 2
