REMARK  Name = ZINC66566684
REMARK  8 active torsions:
REMARK  status: ('A' for Active; 'I' for Inactive)
REMARK    1  A    between atoms: C_1  and  C_2
REMARK    2  A    between atoms: C_7  and  N_10
REMARK    3  A    between atoms: C_11  and  C_13
REMARK    4  A    between atoms: C_13  and  N_14
REMARK    5  A    between atoms: N_17  and  C_20
REMARK    6  A    between atoms: C_20  and  C_22
REMARK    7  A    between atoms: C_20  and  C_23
REMARK    8  A    between atoms: N_28  and  C_29
REMARK                            x       y       z     vdW  Elec       q    Type
REMARK                         _______ _______ _______ _____ _____    ______ ____
ROOT
ATOM      1  N   UNL     1      -2.306  -5.648   2.322  0.00  0.00    -0.292 NA
ATOM      2  C   UNL     1      -1.592  -6.600   1.460  0.00  0.00    +0.100 C 
ATOM      3  C   UNL     1      -1.567  -7.974   2.134  0.00  0.00    +0.100 C 
ATOM      4  N   UNL     1      -2.944  -8.422   2.380  0.00  0.00    -0.289 NA
ATOM      5  C   UNL     1      -3.659  -7.470   3.242  0.00  0.00    +0.100 C 
ATOM      6  C   UNL     1      -3.684  -6.096   2.568  0.00  0.00    +0.100 C 
ENDROOT
BRANCH   4   7
ATOM      7  C   UNL     1      -2.964  -9.772   2.958  0.00  0.00    +0.140 C 
ATOM      8  C   UNL     1      -2.428  -9.721   4.391  0.00  0.00    +0.034 C 
BRANCH   7   9
ATOM      9  C   UNL     1      -4.378 -10.294   2.969  0.00  0.00    +0.237 C 
ATOM     10  O   UNL     1      -5.280  -9.608   2.538  0.00  0.00    -0.274 OA
ATOM     11  N   UNL     1      -4.639 -11.522   3.458  0.00  0.00    -0.239 N 
ATOM     12  C   UNL     1      -5.903 -11.989   3.468  0.00  0.00    +0.306 C 
ATOM     13  O   UNL     1      -6.808 -11.302   3.035  0.00  0.00    -0.252 OA
ATOM     14  N   UNL     1      -6.165 -13.217   3.957  0.00  0.00    -0.296 N 
ATOM     15  H   UNL     1      -3.917 -12.070   3.804  0.00  0.00    +0.159 HD
ATOM     16  H   UNL     1      -5.443 -13.765   4.302  0.00  0.00    +0.151 HD
BRANCH  14  17
ATOM     17  C   UNL     1      -7.539 -13.724   3.967  0.00  0.00    +0.075 C 
ATOM     18  C   UNL     1      -8.019 -14.440   5.232  0.00  0.00    +0.024 C 
ATOM     19  C   UNL     1      -7.732 -15.242   3.961  0.00  0.00    +0.024 C 
ENDBRANCH  14  17
ENDBRANCH   7   9
ENDBRANCH   4   7
BRANCH   1  20
ATOM     20  C   UNL     1      -2.287  -4.298   1.743  0.00  0.00    +0.180 C 
BRANCH  20  22
ATOM     21  N   UNL     1      -0.612  -2.548   1.244  0.00  0.00    -0.311 N 
ATOM     22  C   UNL     1      -0.873  -3.776   1.733  0.00  0.00    +0.227 C 
ATOM     23  O   UNL     1       0.030  -4.462   2.164  0.00  0.00    -0.274 OA
ATOM     24  H   UNL     1      -1.333  -2.000   0.898  0.00  0.00    +0.149 HD
BRANCH  21  30
ATOM     25  C   UNL     1      -0.019   1.526   0.010  0.00  0.00    +0.007 C 
ATOM     26  C   UNL     1       0.002  -0.004   0.002  0.00  0.00    -0.012 C 
ATOM     27  C   UNL     1       0.718  -0.497  -1.257  0.00  0.00    +0.003 C 
ATOM     28  C   UNL     1       0.739  -2.027  -1.265  0.00  0.00    +0.002 C 
ATOM     29  C   UNL     1       1.479  -2.534  -0.026  0.00  0.00    +0.022 C 
ATOM     30  C   UNL     1       0.763  -2.041   1.233  0.00  0.00    +0.073 C 
ATOM     31  C   UNL     1       0.742  -0.511   1.242  0.00  0.00    +0.025 C 
ENDBRANCH  21  30
ENDBRANCH  20  22
ENDBRANCH   1  20
TORSDOF 6
