REMARK  Name = ZINC58950743
REMARK  7 active torsions:
REMARK  status: ('A' for Active; 'I' for Inactive)
REMARK    1  A    between atoms: C_1  and  C_2
REMARK    2  A    between atoms: C_2  and  O_3
REMARK    3  A    between atoms: O_3  and  C_4
REMARK    4  A    between atoms: C_4  and  C_6
REMARK    5  A    between atoms: C_7  and  N_25
REMARK    6  A    between atoms: C_11  and  C_15
REMARK    7  A    between atoms: C_16  and  C_18
REMARK                            x       y       z     vdW  Elec       q    Type
REMARK                         _______ _______ _______ _____ _____    ______ ____
ROOT
ATOM      1  C   UNL     1       1.462  -2.349   2.421  0.00  0.00    +0.105 C 
ATOM      2  C   UNL     1       1.478  -3.693   2.590  0.00  0.00    +0.197 C 
ATOM      3  O   UNL     1       2.087  -4.311   3.620  0.00  0.00    -0.424 OA
ATOM      4  C   UNL     1       2.472  -3.548   4.673  0.00  0.00    +0.222 A 
ATOM      5  C   UNL     1       2.515  -2.182   4.619  0.00  0.00    +0.049 A 
ATOM      6  C   UNL     1       2.945  -1.716   5.853  0.00  0.00    +0.068 A 
ATOM      7  N   UNL     1       3.158  -2.752   6.629  0.00  0.00    -0.176 NA
ATOM      8  N   UNL     1       2.866  -3.917   5.902  0.00  0.00    -0.246 N 
ATOM      9  H   UNL     1       2.936  -4.827   6.230  0.00  0.00    +0.192 HD
ATOM     10  C   UNL     1       3.135  -0.271   6.236  0.00  0.00    +0.068 C 
ATOM     11  C   UNL     1       2.144  -1.406   3.380  0.00  0.00    +0.099 C 
ENDROOT
BRANCH  11  12
ATOM     12  C   UNL     1       3.386  -0.840   2.739  0.00  0.00    -0.017 A 
ATOM     13  C   UNL     1       4.397  -1.686   2.325  0.00  0.00    +0.006 A 
ATOM     14  C   UNL     1       5.535  -1.167   1.737  0.00  0.00    +0.000 A 
ATOM     15  C   UNL     1       5.663   0.199   1.563  0.00  0.00    +0.001 A 
ATOM     16  C   UNL     1       4.653   1.046   1.978  0.00  0.00    +0.020 A 
ATOM     17  C   UNL     1       3.510   0.526   2.561  0.00  0.00    +0.045 A 
ATOM     18 CL   UNL     1       2.238   1.589   3.075  0.00  0.00    -0.083 Cl
ENDBRANCH  11  12
BRANCH   2  19
ATOM     19  N   UNL     1       0.837  -4.468   1.660  0.00  0.00    -0.329 N 
ATOM     20  H   UNL     1       0.456  -4.058   0.868  0.00  0.00    +0.145 HD
ATOM     21  H   UNL     1       0.765  -5.426   1.794  0.00  0.00    +0.145 HD
ENDBRANCH   2  19
BRANCH   1  22
ATOM     22  C   UNL     1       0.790  -1.815   1.312  0.00  0.00    +0.341 C 
ATOM     23  O   UNL     1      -0.323  -1.337   1.445  0.00  0.00    -0.245 OA
BRANCH  22  24
ATOM     24  O   UNL     1       1.377  -1.831   0.095  0.00  0.00    -0.462 OA
BRANCH  24  26
ATOM     25  C   UNL     1       1.456  -1.378  -2.277  0.00  0.00    +0.048 C 
ATOM     26  C   UNL     1       0.636  -1.271  -0.990  0.00  0.00    +0.229 C 
ENDBRANCH  24  26
ENDBRANCH  22  24
ENDBRANCH   1  22
TORSDOF 5
