REMARK  Name = ZINC20292270
REMARK  7 active torsions:
REMARK  status: ('A' for Active; 'I' for Inactive)
REMARK    1  A    between atoms: C_1  and  C_2
REMARK    2  A    between atoms: C_16  and  O_17
REMARK    3  A    between atoms: C_24  and  O_25
REMARK    4  A    between atoms: N_26  and  C_27
REMARK    5  A    between atoms: C_27  and  C_28
REMARK    6  A    between atoms: C_28  and  C_29
REMARK    7  A    between atoms: C_29  and  N_30
REMARK                            x       y       z     vdW  Elec       q    Type
REMARK                         _______ _______ _______ _____ _____    ______ ____
ROOT
ATOM      1  C   UNL     1       4.559  -2.329   8.912  0.00  0.00    +0.044 C 
ATOM      2  C   UNL     1       3.985  -1.928   7.578  0.00  0.00    -0.048 A 
ATOM      3  C   UNL     1       4.534  -2.429   6.412  0.00  0.00    +0.007 A 
ATOM      4  C   UNL     1       4.013  -2.066   5.184  0.00  0.00    +0.049 A 
ATOM      5  C   UNL     1       2.936  -1.195   5.117  0.00  0.00    +0.154 A 
ATOM      6  C   UNL     1       2.384  -0.690   6.293  0.00  0.00    +0.107 A 
ATOM      7  C   UNL     1       2.912  -1.058   7.522  0.00  0.00    +0.034 A 
ATOM      8  N   UNL     1       1.297   0.189   6.228  0.00  0.00    -0.240 NA
ATOM      9  C   UNL     1       0.789   0.540   4.987  0.00  0.00    +0.118 A 
ATOM     10  C   UNL     1       1.372   0.010   3.820  0.00  0.00    +0.156 A 
ATOM     11  O   UNL     1       2.425  -0.840   3.911  0.00  0.00    -0.452 OA
ATOM     12  C   UNL     1       0.871   0.347   2.580  0.00  0.00    +0.074 A 
ATOM     13  C   UNL     1      -0.209   1.223   2.465  0.00  0.00    +0.050 A 
ATOM     14  C   UNL     1      -0.801   1.760   3.615  0.00  0.00    +0.053 A 
ATOM     15  C   UNL     1      -0.295   1.413   4.891  0.00  0.00    +0.059 A 
ATOM     16  C   UNL     1      -0.911   1.971   6.103  0.00  0.00    +0.135 A 
ATOM     17  C   UNL     1      -2.058   2.894   5.987  0.00  0.00    +0.028 A 
ATOM     18  C   UNL     1      -2.649   3.428   7.130  0.00  0.00    +0.012 A 
ATOM     19  C   UNL     1      -3.723   4.290   7.011  0.00  0.00    +0.001 A 
ATOM     20  C   UNL     1      -4.216   4.628   5.763  0.00  0.00    +0.001 A 
ATOM     21  C   UNL     1      -3.642   4.108   4.619  0.00  0.00    +0.012 A 
ATOM     22  C   UNL     1      -2.560   3.237   4.719  0.00  0.00    +0.028 A 
ATOM     23  C   UNL     1      -1.940   2.676   3.501  0.00  0.00    +0.134 A 
ATOM     24  N   UNL     1      -0.698   1.558   1.213  0.00  0.00    -0.384 N 
ATOM     25  H   UNL     1      -1.612   2.165   1.124  0.00  0.00    +0.160 HD
ENDROOT
BRANCH  16  26
ATOM     26  O   UNL     1      -0.476   1.673   7.200  0.00  0.00    -0.505 OA
ATOM     27  H   UNL     1      -0.938   2.091   8.106  0.00  0.00    +0.292 HD
ENDBRANCH  16  26
BRANCH  23  28
ATOM     28  O   UNL     1      -2.374   2.974   2.404  0.00  0.00    -0.505 OA
ATOM     29  H   UNL     1      -3.229   3.662   2.319  0.00  0.00    +0.292 HD
ENDBRANCH  23  28
BRANCH  24  30
ATOM     30  C   UNL     1       0.000   1.105   0.008  0.00  0.00    +0.111 C 
BRANCH  30  31
ATOM     31  C   UNL     1      -0.743   1.607  -1.232  0.00  0.00    +0.002 C 
BRANCH  31  32
ATOM     32  C   UNL     1      -0.013   1.134  -2.490  0.00  0.00    -0.077 C 
BRANCH  32  33
ATOM     33  N   UNL     1      -0.727   1.616  -3.680  0.00  0.00    +0.383 N 
ATOM     34  C   UNL     1       0.066   1.387  -4.899  0.00  0.00    -0.074 C 
ATOM     35  C   UNL     1      -0.849   1.558  -6.112  0.00  0.00    +0.017 C 
ATOM     36  C   UNL     1      -1.602   2.860  -6.009  0.00  0.00    -0.048 A 
ATOM     37  C   UNL     1      -2.205   3.367  -7.150  0.00  0.00    +0.004 A 
ATOM     38  C   UNL     1      -2.909   4.554  -7.098  0.00  0.00    +0.000 A 
ATOM     39  C   UNL     1      -3.012   5.240  -5.902  0.00  0.00    +0.000 A 
ATOM     40  C   UNL     1      -2.410   4.737  -4.766  0.00  0.00    +0.002 A 
ATOM     41  C   UNL     1      -1.703   3.545  -4.817  0.00  0.00    -0.061 A 
ATOM     42  C   UNL     1      -1.060   3.038  -3.552  0.00  0.00    -0.043 C 
ATOM     43  H   UNL     1      -1.665   1.048  -3.760  0.00  0.00    -0.081 HD
ENDBRANCH  32  33
ENDBRANCH  31  32
ENDBRANCH  30  31
ENDBRANCH  24  30
TORSDOF 6
