REMARK  Name = ZINC31866860
REMARK  7 active torsions:
REMARK  status: ('A' for Active; 'I' for Inactive)
REMARK    1  A    between atoms: C_3  and  S_20
REMARK    2  A    between atoms: C_6  and  C_7
REMARK    3  A    between atoms: C_7  and  N_8
REMARK    4  A    between atoms: C_9  and  C_11
REMARK    5  A    between atoms: C_11  and  S_12
REMARK    6  A    between atoms: S_12  and  C_13
REMARK    7  A    between atoms: S_20  and  N_23
REMARK                            x       y       z     vdW  Elec       q    Type
REMARK                         _______ _______ _______ _____ _____    ______ ____
ROOT
ATOM      1  C   UNL     1      -0.013   1.086   0.008  0.00  0.00    +0.139 C 
ENDROOT
BRANCH   1   7
ATOM      2  C   UNL     1      -0.360   2.779   1.819  0.00  0.00    +0.007 A 
ATOM      3  C   UNL     1      -1.010   3.227   2.953  0.00  0.00    +0.029 A 
ATOM      4  C   UNL     1      -2.012   2.463   3.523  0.00  0.00    +0.105 A 
ATOM      5  C   UNL     1      -2.366   1.254   2.955  0.00  0.00    +0.029 A 
ATOM      6  C   UNL     1      -1.719   0.808   1.818  0.00  0.00    +0.007 A 
ATOM      7  C   UNL     1      -0.718   1.572   1.248  0.00  0.00    -0.030 A 
BRANCH   4   8
ATOM      8  S   UNL     1      -2.837   3.032   4.972  0.00  0.00    +0.056 S 
ATOM      9  O   UNL     1      -2.695   4.446   4.992  0.00  0.00    -0.153 OA
ATOM     10  O   UNL     1      -4.107   2.394   4.993  0.00  0.00    -0.153 OA
BRANCH   8  11
ATOM     11  N   UNL     1      -1.995   2.453   6.274  0.00  0.00    -0.204 NA
ATOM     12  H   UNL     1      -2.480   2.788   7.203  0.00  0.00    +0.144 HD
ATOM     13  H   UNL     1      -0.963   2.834   6.242  0.00  0.00    +0.144 HD
ENDBRANCH   8  11
ENDBRANCH   4   8
ENDBRANCH   1   7
BRANCH   1  14
ATOM     14  N   UNL     1      -0.721   1.571  -1.179  0.00  0.00    -0.311 N 
ATOM     15  C   UNL     1      -0.268   1.258  -2.409  0.00  0.00    +0.223 C 
ATOM     16  O   UNL     1       0.726   0.575  -2.534  0.00  0.00    -0.275 OA
ATOM     17  H   UNL     1      -1.623   2.191  -1.066  0.00  0.00    +0.149 HD
BRANCH  15  18
ATOM     18  C   UNL     1      -0.997   1.758  -3.630  0.00  0.00    +0.170 C 
BRANCH  18  19
ATOM     19  S   UNL     1      -0.148   1.173  -5.122  0.00  0.00    -0.116 S 
BRANCH  19  20
ATOM     20  C   UNL     1      -1.108   1.831  -6.445  0.00  0.00    +0.008 A 
ATOM     21  C   UNL     1      -2.235   2.598  -6.173  0.00  0.00    +0.016 A 
ATOM     22  C   UNL     1      -2.982   3.116  -7.212  0.00  0.00    +0.016 A 
ATOM     23  C   UNL     1      -2.618   2.864  -8.522  0.00  0.00    +0.018 A 
ATOM     24  C   UNL     1      -1.499   2.096  -8.796  0.00  0.00    +0.016 A 
ATOM     25  C   UNL     1      -0.744   1.579  -7.762  0.00  0.00    +0.016 A 
ATOM     26 BR   UNL     1      -3.649   3.570  -9.941  0.00  0.00    -0.050 Br
ENDBRANCH  19  20
ENDBRANCH  18  19
ENDBRANCH  15  18
ENDBRANCH   1  14
TORSDOF 7
