REMARK  Name = ZINC03921132
REMARK  2 active torsions:
REMARK  status: ('A' for Active; 'I' for Inactive)
REMARK    1  A    between atoms: C_13  and  O_24
REMARK    2  A    between atoms: C_21  and  O_23
REMARK                            x       y       z     vdW  Elec       q    Type
REMARK                         _______ _______ _______ _____ _____    ______ ____
ROOT
ATOM      1  C   UNL     1       2.936   3.863   0.002  0.00  0.00    +0.001 A 
ATOM      2  C   UNL     1       3.374   2.546  -0.027  0.00  0.00    +0.002 A 
ATOM      3  C   UNL     1       2.472   1.504  -0.027  0.00  0.00    +0.026 A 
ATOM      4  C   UNL     1       1.107   1.771   0.001  0.00  0.00    +0.047 A 
ATOM      5  C   UNL     1       0.666   3.108   0.032  0.00  0.00    +0.007 A 
ATOM      6  C   UNL     1       1.601   4.149   0.031  0.00  0.00    +0.010 A 
ATOM      7  C   UNL     1      -0.791   3.058   0.060  0.00  0.00    +0.027 A 
ATOM      8  C   UNL     1      -1.153   1.742   0.016  0.00  0.00    +0.048 A 
ATOM      9  N   UNL     1      -0.011   0.966   0.007  0.00  0.00    -0.354 N 
ATOM     10  H   UNL     1       0.002  -0.004   0.002  0.00  0.00    +0.166 HD
ATOM     11  C   UNL     1      -2.623   1.649  -0.005  0.00  0.00    +0.049 C 
ATOM     12  C   UNL     1      -3.157   2.831  -0.251  0.00  0.00    +0.064 C 
ATOM     13  C   UNL     1      -2.062   3.845   0.137  0.00  0.00    +0.159 C 
ATOM     14  C   UNL     1      -2.231   4.862  -0.970  0.00  0.00    +0.016 A 
ATOM     15  C   UNL     1      -1.411   5.795  -1.555  0.00  0.00    +0.009 A 
ATOM     16  C   UNL     1      -1.894   6.599  -2.574  0.00  0.00    +0.000 A 
ATOM     17  C   UNL     1      -3.202   6.461  -3.002  0.00  0.00    +0.002 A 
ATOM     18  C   UNL     1      -4.031   5.524  -2.418  0.00  0.00    +0.024 A 
ATOM     19  C   UNL     1      -3.555   4.716  -1.397  0.00  0.00    +0.051 A 
ATOM     20  N   UNL     1      -4.172   3.698  -0.637  0.00  0.00    -0.206 N 
ATOM     21  C   UNL     1      -5.483   3.588  -0.345  0.00  0.00    +0.409 C 
ATOM     22  O   UNL     1      -5.881   2.655   0.324  0.00  0.00    -0.226 OA
ENDROOT
BRANCH  21  23
ATOM     23  O   UNL     1      -6.352   4.514  -0.793  0.00  0.00    -0.466 OA
ATOM     24  H   UNL     1      -7.282   4.393  -0.558  0.00  0.00    +0.297 HD
ENDBRANCH  21  23
BRANCH  13  25
ATOM     25  O   UNL     1      -2.264   4.401   1.438  0.00  0.00    -0.374 OA
ATOM     26  H   UNL     1      -3.078   4.917   1.523  0.00  0.00    +0.212 HD
ENDBRANCH  13  25
TORSDOF 2
