REMARK  Name = ZINC57845847
REMARK  7 active torsions:
REMARK  status: ('A' for Active; 'I' for Inactive)
REMARK    1  A    between atoms: C_1  and  C_2
REMARK    2  A    between atoms: C_2  and  C_4
REMARK    3  A    between atoms: C_2  and  S_6
REMARK    4  A    between atoms: C_4  and  N_5
REMARK    5  A    between atoms: S_6  and  C_7
REMARK    6  A    between atoms: C_11  and  C_20
REMARK    7  A    between atoms: C_12  and  C_14
REMARK                            x       y       z     vdW  Elec       q    Type
REMARK                         _______ _______ _______ _____ _____    ______ ____
ROOT
ATOM      1  C   UNL     1      -2.365  -0.093  -1.525  0.00  0.00    +0.192 A 
ATOM      2  N   UNL     1      -1.591   0.601  -2.350  0.00  0.00    -0.182 NA
ATOM      3  C   UNL     1      -2.048   1.027  -3.519  0.00  0.00    +0.292 A 
ATOM      4  O   UNL     1      -1.250   1.734  -4.353  0.00  0.00    -0.264 OA
ATOM      5  C   UNL     1      -3.377   0.732  -3.881  0.00  0.00    +0.144 A 
ATOM      6  C   UNL     1      -4.163  -0.009  -2.973  0.00  0.00    +0.097 A 
ATOM      7  N   UNL     1      -3.619  -0.400  -1.824  0.00  0.00    -0.220 NA
ENDROOT
BRANCH   6   8
ATOM      8  C   UNL     1      -5.567  -0.350  -3.296  0.00  0.00    +0.002 A 
ATOM      9  C   UNL     1      -6.355   0.542  -4.023  0.00  0.00    +0.010 A 
ATOM     10  C   UNL     1      -7.663   0.219  -4.321  0.00  0.00    +0.001 A 
ATOM     11  C   UNL     1      -8.193  -0.988  -3.900  0.00  0.00    +0.000 A 
ATOM     12  C   UNL     1      -7.417  -1.877  -3.179  0.00  0.00    +0.001 A 
ATOM     13  C   UNL     1      -6.106  -1.567  -2.880  0.00  0.00    +0.010 A 
ENDBRANCH   6   8
BRANCH   5  14
ATOM     14  C   UNL     1      -3.915   1.171  -5.133  0.00  0.00    +0.107 C 
ATOM     15  N   UNL     1      -4.342   1.519  -6.126  0.00  0.00    -0.191 NA
ENDBRANCH   5  14
BRANCH   1  16
ATOM     16  S   UNL     1      -1.700  -0.632   0.015  0.00  0.00    -0.085 S 
BRANCH  16  18
ATOM     17  C   UNL     1      -0.019   1.526   0.010  0.00  0.00    +0.017 C 
ATOM     18  C   UNL     1       0.002  -0.004   0.002  0.00  0.00    +0.034 C 
BRANCH  18  19
ATOM     19  C   UNL     1       0.742  -0.511   1.242  0.00  0.00    -0.072 C 
BRANCH  19  20
ATOM     20  N   UNL     1       0.762  -1.980   1.234  0.00  0.00    +0.379 N 
ATOM     21  H   UNL     1       1.234  -2.305   0.403  0.00  0.00    -0.090 HD
ATOM     22  H   UNL     1       1.250  -2.314   2.051  0.00  0.00    -0.090 HD
ATOM     23  H   UNL     1      -0.185  -2.329   1.241  0.00  0.00    -0.090 HD
ENDBRANCH  19  20
ENDBRANCH  18  19
ENDBRANCH  16  18
ENDBRANCH   1  16
TORSDOF 6
