REMARK  Name = ZINC45329229
REMARK  7 active torsions:
REMARK  status: ('A' for Active; 'I' for Inactive)
REMARK    1  A    between atoms: C_1  and  C_2
REMARK    2  A    between atoms: C_8  and  C_16
REMARK    3  A    between atoms: C_9  and  S_12
REMARK    4  A    between atoms: N_10  and  C_11
REMARK    5  A    between atoms: S_12  and  N_15
REMARK    6  A    between atoms: C_16  and  C_17
REMARK    7  A    between atoms: C_17  and  N_18
REMARK                            x       y       z     vdW  Elec       q    Type
REMARK                         _______ _______ _______ _____ _____    ______ ____
ROOT
ATOM      1  C   UNL     1      -0.018   1.503   0.010  0.00  0.00    +0.044 C 
ATOM      2  C   UNL     1       0.002  -0.004   0.002  0.00  0.00    -0.050 A 
ATOM      3  C   UNL     1       0.006  -0.686  -1.207  0.00  0.00    +0.005 A 
ATOM      4  C   UNL     1       0.024  -2.063  -1.237  0.00  0.00    +0.027 A 
ATOM      5  C   UNL     1       0.039  -2.780  -0.045  0.00  0.00    +0.051 A 
ATOM      6  C   UNL     1       0.036  -2.084   1.178  0.00  0.00    +0.005 A 
ATOM      7  C   UNL     1       0.023  -0.688   1.185  0.00  0.00    +0.013 A 
ATOM      8  C   UNL     1       0.055  -3.107   2.226  0.00  0.00    +0.003 A 
ATOM      9  C   UNL     1       0.067  -4.300   1.610  0.00  0.00    +0.178 A 
ATOM     10  N   UNL     1       0.058  -4.124   0.253  0.00  0.00    -0.327 N 
ATOM     11  C   UNL     1       0.068  -5.205  -0.736  0.00  0.00    +0.150 C 
ENDROOT
BRANCH   9  12
ATOM     12  S   UNL     1       0.092  -5.861   2.427  0.00  0.00    +0.072 S 
ATOM     13  O   UNL     1      -0.456  -5.650   3.721  0.00  0.00    -0.152 OA
ATOM     14  O   UNL     1      -0.451  -6.806   1.515  0.00  0.00    -0.152 OA
BRANCH  12  15
ATOM     15  N   UNL     1       1.680  -6.274   2.647  0.00  0.00    -0.202 NA
ATOM     16  H   UNL     1       2.383  -5.681   2.338  0.00  0.00    +0.144 HD
ATOM     17  H   UNL     1       1.908  -7.109   3.085  0.00  0.00    +0.144 HD
ENDBRANCH  12  15
ENDBRANCH   9  12
BRANCH   8  18
ATOM     18  C   UNL     1       0.059  -2.867   3.713  0.00  0.00    +0.020 C 
BRANCH  18  19
ATOM     19  C   UNL     1      -1.382  -2.805   4.224  0.00  0.00    -0.082 C 
BRANCH  19  20
ATOM     20  N   UNL     1      -1.377  -2.571   5.675  0.00  0.00    +0.378 N 
ATOM     21  H   UNL     1      -0.889  -3.324   6.136  0.00  0.00    -0.090 HD
ATOM     22  H   UNL     1      -0.912  -1.697   5.873  0.00  0.00    -0.090 HD
ATOM     23  H   UNL     1      -2.327  -2.530   6.011  0.00  0.00    -0.090 HD
ENDBRANCH  19  20
ENDBRANCH  18  19
ENDBRANCH   8  18
TORSDOF 5
