REMARK  Name = ZINC19865350
REMARK  6 active torsions:
REMARK  status: ('A' for Active; 'I' for Inactive)
REMARK    1  A    between atoms: C_1  and  C_2
REMARK    2  A    between atoms: C_2  and  C_5
REMARK    3  A    between atoms: N_3  and  O_4
REMARK    4  A    between atoms: C_11  and  C_29
REMARK    5  A    between atoms: C_21  and  C_28
REMARK    6  A    between atoms: C_24  and  O_27
REMARK                            x       y       z     vdW  Elec       q    Type
REMARK                         _______ _______ _______ _____ _____    ______ ____
ROOT
ATOM      1  C   UNL     1       0.102   3.571   0.099  0.00  0.00    +0.043 C 
ATOM      2  C   UNL     1      -0.095   4.096   1.539  0.00  0.00    +0.010 C 
ATOM      3  C   UNL     1      -1.587   3.811   1.847  0.00  0.00    +0.005 C 
ATOM      4  C   UNL     1      -1.811   2.433   1.157  0.00  0.00    -0.001 C 
ATOM      5  C   UNL     1      -1.021   2.552  -0.137  0.00  0.00    -0.021 C 
ATOM      6  C   UNL     1      -0.512   1.263  -0.720  0.00  0.00    +0.008 C 
ATOM      7  C   UNL     1       0.078   0.330   0.310  0.00  0.00    +0.005 C 
ATOM      8  C   UNL     1      -0.987   0.057   1.377  0.00  0.00    +0.003 C 
ATOM      9  C   UNL     1      -1.303   1.357   2.100  0.00  0.00    +0.000 C 
ATOM     10  C   UNL     1      -0.033   1.845   2.808  0.00  0.00    +0.031 C 
ATOM     11  C   UNL     1       0.419   0.773   3.762  0.00  0.00    -0.027 C 
ATOM     12  C   UNL     1       0.194  -0.489   3.543  0.00  0.00    -0.065 C 
ATOM     13  C   UNL     1      -0.512  -1.019   2.330  0.00  0.00    -0.008 C 
ATOM     14  C   UNL     1      -1.671  -1.913   2.774  0.00  0.00    +0.014 C 
ATOM     15  C   UNL     1      -1.133  -3.007   3.700  0.00  0.00    +0.032 C 
ATOM     16  C   UNL     1      -0.530  -2.380   4.957  0.00  0.00    +0.119 C 
ATOM     17  C   UNL     1       0.666  -1.501   4.574  0.00  0.00    +0.062 C 
ATOM     18  C   UNL     1       0.479  -1.893   1.560  0.00  0.00    +0.016 C 
ATOM     19  C   UNL     1      -1.962   3.169  -1.174  0.00  0.00    +0.012 C 
ENDROOT
BRANCH   1  21
ATOM     20  C   UNL     1       2.389   2.871   1.144  0.00  0.00    +0.064 C 
ATOM     21  C   UNL     1       1.446   2.902  -0.031  0.00  0.00    +0.058 C 
ATOM     22  N   UNL     1       1.786   2.360  -1.139  0.00  0.00    -0.097 NA
BRANCH  22  23
ATOM     23  O   UNL     1       1.053   2.639  -2.318  0.00  0.00    -0.409 OA
ATOM     24  H   UNL     1       1.346   2.173  -3.271  0.00  0.00    +0.328 HD
ENDBRANCH  22  23
ENDBRANCH   1  21
BRANCH  16  25
ATOM     25  O   UNL     1      -1.519  -1.579   5.609  0.00  0.00    -0.391 OA
ATOM     26  H   UNL     1      -1.268  -1.045   6.537  0.00  0.00    +0.210 HD
ENDBRANCH  16  25
TORSDOF 3
