REMARK  Name = ZINC48647805
REMARK  9 active torsions:
REMARK  status: ('A' for Active; 'I' for Inactive)
REMARK    1  A    between atoms: C_1  and  C_2
REMARK    2  A    between atoms: C_5  and  C_8
REMARK    3  A    between atoms: C_8  and  C_10
REMARK    4  A    between atoms: C_8  and  N_23
REMARK    5  A    between atoms: C_10  and  C_11
REMARK    6  A    between atoms: N_13  and  S_14
REMARK    7  A    between atoms: S_14  and  C_17
REMARK    8  A    between atoms: N_20  and  C_22
REMARK    9  A    between atoms: C_24  and  C_26
REMARK                            x       y       z     vdW  Elec       q    Type
REMARK                         _______ _______ _______ _____ _____    ______ ____
ROOT
ATOM      1  C   UNL     1       0.059  -4.275  -0.021  0.00  0.00    +0.112 C 
ENDROOT
BRANCH   1   6
ATOM      2  C   UNL     1      -0.481   1.470  -0.323  0.00  0.00    +0.044 C 
ATOM      3  C   UNL     1      -0.340  -0.028  -0.244  0.00  0.00    -0.050 A 
ATOM      4  C   UNL     1      -0.383  -0.788  -1.398  0.00  0.00    +0.004 A 
ATOM      5  C   UNL     1      -0.253  -2.162  -1.326  0.00  0.00    +0.006 A 
ATOM      6  C   UNL     1      -0.081  -2.777  -0.100  0.00  0.00    -0.027 A 
ATOM      7  C   UNL     1      -0.037  -2.017   1.054  0.00  0.00    +0.006 A 
ATOM      8  C   UNL     1      -0.163  -0.642   0.981  0.00  0.00    +0.004 A 
ENDBRANCH   1   6
BRANCH   1   9
ATOM      9  N   UNL     1      -0.720  -4.780   1.112  0.00  0.00    -0.308 N 
ATOM     10  C   UNL     1      -2.038  -5.021   0.969  0.00  0.00    +0.210 C 
ATOM     11  O   UNL     1      -2.561  -4.907  -0.120  0.00  0.00    -0.276 OA
ATOM     12  C   UNL     1      -2.863  -5.432   2.161  0.00  0.00    +0.109 C 
ATOM     13  H   UNL     1      -0.287  -4.941   1.965  0.00  0.00    +0.149 HD
ENDBRANCH   1   9
BRANCH   1  14
ATOM     14  C   UNL     1       1.533  -4.640   0.170  0.00  0.00    +0.129 C 
BRANCH  14  15
ATOM     15  C   UNL     1       1.689  -6.139   0.126  0.00  0.00    +0.267 C 
ATOM     16  O   UNL     1       2.910  -6.694   0.274  0.00  0.00    -0.269 OA
ATOM     17  N   UNL     1       0.655  -6.890  -0.053  0.00  0.00    -0.091 NA
BRANCH  17  18
ATOM     18  S   UNL     1       0.827  -8.537  -0.102  0.00  0.00    +0.105 S 
ATOM     19  O   UNL     1       1.586  -8.832  -1.267  0.00  0.00    -0.146 OA
ATOM     20  O   UNL     1       1.238  -8.941   1.197  0.00  0.00    -0.146 OA
BRANCH  18  21
ATOM     21  C   UNL     1      -0.776  -9.220  -0.358  0.00  0.00    +0.150 A 
ATOM     22  C   UNL     1      -1.686  -9.583   0.641  0.00  0.00    +0.163 A 
ATOM     23  N   UNL     1      -2.762 -10.050   0.063  0.00  0.00    -0.178 NA
ATOM     24  N   UNL     1      -2.572  -9.999  -1.324  0.00  0.00    -0.273 N 
ATOM     25  C   UNL     1      -1.348  -9.481  -1.557  0.00  0.00    +0.137 A 
ATOM     26  C   UNL     1      -3.534 -10.428  -2.342  0.00  0.00    +0.172 C 
ENDBRANCH  18  21
ENDBRANCH  17  18
ENDBRANCH  14  15
ENDBRANCH   1  14
TORSDOF 6
