REMARK  Name = ZINC13118280
REMARK  3 active torsions:
REMARK  status: ('A' for Active; 'I' for Inactive)
REMARK    1  A    between atoms: C_6  and  S_7
REMARK    2  A    between atoms: S_7  and  N_10
REMARK    3  A    between atoms: C_18  and  C_21
REMARK                            x       y       z     vdW  Elec       q    Type
REMARK                         _______ _______ _______ _____ _____    ______ ____
ROOT
ATOM      1  C   UNL     1       1.635   5.466  -2.273  0.00  0.00    +0.030 A 
ATOM      2  C   UNL     1       2.138   4.296  -2.807  0.00  0.00    +0.025 A 
ATOM      3  C   UNL     1       2.067   3.114  -2.081  0.00  0.00    +0.031 A 
ATOM      4  C   UNL     1       1.492   3.097  -0.819  0.00  0.00    -0.018 A 
ATOM      5  C   UNL     1       0.990   4.279  -0.293  0.00  0.00    +0.034 A 
ATOM      6  C   UNL     1       1.061   5.454  -1.015  0.00  0.00    +0.105 A 
ATOM      7  C   UNL     1       1.394   1.849  -0.001  0.00  0.00    +0.048 C 
ATOM      8  C   UNL     1      -0.016   1.306   0.009  0.00  0.00    -0.023 C 
ATOM      9  C   UNL     1       0.002  -0.004   0.002  0.00  0.00    -0.030 C 
ATOM     10  C   UNL     1       1.430  -0.516  -0.009  0.00  0.00    +0.033 C 
ATOM     11  C   UNL     1       2.241   0.691  -0.566  0.00  0.00    +0.024 C 
ATOM     12  C   UNL     1       2.121   0.653  -2.092  0.00  0.00    +0.078 C 
ATOM     13  N   UNL     1       2.578   1.936  -2.637  0.00  0.00    -0.340 N 
ATOM     14  H   UNL     1       3.219   1.967  -3.364  0.00  0.00    +0.146 HD
ENDROOT
BRANCH  12  15
ATOM     15  C   UNL     1       2.990  -0.477  -2.647  0.00  0.00    +0.014 C 
ATOM     16  C   UNL     1       2.880  -0.510  -4.176  0.00  0.00    +0.010 C 
ATOM     17  C   UNL     1       3.612  -1.753  -4.688  0.00  0.00    +0.027 C 
ATOM     18  C   UNL     1       4.980  -1.835  -4.077  0.00  0.00    -0.031 C 
ATOM     19  C   UNL     1       5.345  -1.177  -3.023  0.00  0.00    -0.031 C 
ATOM     20  C   UNL     1       4.453  -0.235  -2.267  0.00  0.00    +0.032 C 
ENDBRANCH  12  15
BRANCH   6  21
ATOM     21  S   UNL     1       0.417   6.944  -0.330  0.00  0.00    +0.056 S 
ATOM     22  O   UNL     1       0.425   6.779   1.081  0.00  0.00    -0.153 OA
ATOM     23  O   UNL     1       1.095   8.014  -0.976  0.00  0.00    -0.153 OA
BRANCH  21  24
ATOM     24  N   UNL     1      -1.171   7.046  -0.786  0.00  0.00    -0.204 NA
ATOM     25  H   UNL     1      -1.565   6.348  -1.333  0.00  0.00    +0.144 HD
ATOM     26  H   UNL     1      -1.708   7.804  -0.506  0.00  0.00    +0.144 HD
ENDBRANCH  21  24
ENDBRANCH   6  21
TORSDOF 3
