REMARK  Name = ZINC43741336
REMARK  6 active torsions:
REMARK  status: ('A' for Active; 'I' for Inactive)
REMARK    1  A    between atoms: C_1  and  C_2
REMARK    2  A    between atoms: C_8  and  C_35
REMARK    3  A    between atoms: C_9  and  O_34
REMARK    4  A    between atoms: C_19  and  C_21
REMARK    5  A    between atoms: C_21  and  N_22
REMARK    6  A    between atoms: N_25  and  C_28
REMARK                            x       y       z     vdW  Elec       q    Type
REMARK                         _______ _______ _______ _____ _____    ______ ____
ROOT
ATOM      1  C   UNL     1       0.547   2.150   0.809  0.00  0.00    +0.008 C 
ATOM      2  C   UNL     1       0.362   0.635   0.705  0.00  0.00    -0.001 C 
ATOM      3  C   UNL     1      -1.125   0.303   0.820  0.00  0.00    +0.008 C 
ATOM      4  C   UNL     1      -1.634   0.827   2.168  0.00  0.00    +0.027 C 
ATOM      5  C   UNL     1      -0.828   0.185   3.263  0.00  0.00    -0.027 C 
ATOM      6  C   UNL     1       0.401  -0.199   3.087  0.00  0.00    -0.061 C 
ATOM      7  C   UNL     1       1.162  -0.039   1.803  0.00  0.00    +0.018 C 
ATOM      8  C   UNL     1       1.638  -1.421   1.360  0.00  0.00    +0.132 C 
ATOM      9  C   UNL     1       2.508  -2.066   2.443  0.00  0.00    +0.074 C 
ATOM     10  C   UNL     1       1.766  -2.136   3.790  0.00  0.00    +0.187 C 
ATOM     11  C   UNL     1       1.143  -0.857   4.234  0.00  0.00    +0.076 C 
ATOM     12  O   UNL     1       0.806  -3.180   3.598  0.00  0.00    -0.460 OA
ATOM     13  C   UNL     1       1.429  -4.178   2.929  0.00  0.00    +0.312 C 
ATOM     14  O   UNL     1       1.133  -5.348   2.979  0.00  0.00    -0.250 OA
ATOM     15  C   UNL     1       2.577  -3.585   2.091  0.00  0.00    +0.121 C 
ATOM     16  C   UNL     1       2.402   0.811   2.085  0.00  0.00    +0.018 C 
ENDROOT
BRANCH   8  17
ATOM     17  O   UNL     1       2.402  -1.293   0.159  0.00  0.00    -0.391 OA
ATOM     18  H   UNL     1       2.739  -2.132  -0.184  0.00  0.00    +0.210 HD
ENDBRANCH   8  17
BRANCH  15  19
ATOM     19  C   UNL     1       3.924  -4.174   2.515  0.00  0.00    +0.099 C 
BRANCH  19  20
ATOM     20  N   UNL     1       4.998  -3.562   1.721  0.00  0.00    -0.305 NA
ATOM     21  C   UNL     1       4.973  -4.051   0.336  0.00  0.00    +0.066 C 
ATOM     22  C   UNL     1       6.067  -3.347  -0.471  0.00  0.00    -0.063 C 
ATOM     23  N   UNL     1       7.375  -3.618   0.139  0.00  0.00    +0.383 N 
ATOM     24  C   UNL     1       7.394  -3.102   1.514  0.00  0.00    -0.063 C 
ATOM     25  C   UNL     1       6.311  -3.804   2.336  0.00  0.00    +0.066 C 
ATOM     26  H   UNL     1       7.541  -4.613   0.151  0.00  0.00    -0.081 HD
BRANCH  23  27
ATOM     27  C   UNL     1       8.427  -2.957  -0.646  0.00  0.00    -0.068 C 
ATOM     28  C   UNL     1       8.409  -3.495  -2.078  0.00  0.00    -0.015 C 
ATOM     29  C   UNL     1       9.504  -2.807  -2.895  0.00  0.00    -0.002 C 
ATOM     30  C   UNL     1      10.868  -3.089  -2.261  0.00  0.00    -0.000 C 
ATOM     31  C   UNL     1      10.885  -2.550  -0.829  0.00  0.00    -0.002 C 
ATOM     32  C   UNL     1       9.790  -3.239  -0.012  0.00  0.00    -0.015 C 
ENDBRANCH  23  27
ENDBRANCH  19  20
ENDBRANCH  15  19
TORSDOF 4
