REMARK  Name = ZINC31911892
REMARK  3 active torsions:
REMARK  status: ('A' for Active; 'I' for Inactive)
REMARK    1  A    between atoms: C_6  and  C_11
REMARK    2  A    between atoms: C_11  and  C_13
REMARK    3  A    between atoms: C_11  and  N_19
REMARK                            x       y       z     vdW  Elec       q    Type
REMARK                         _______ _______ _______ _____ _____    ______ ____
ROOT
ATOM      1  C   UNL     1      -0.016   1.356   0.009  0.00  0.00    +0.020 A 
ATOM      2  C   UNL     1       0.002  -0.004   0.002  0.00  0.00    +0.048 A 
ATOM      3  C   UNL     1       1.240  -0.678  -0.013  0.00  0.00    +0.138 A 
ATOM      4  N   UNL     1       1.555  -1.966  -0.023  0.00  0.00    -0.236 NA
ATOM      5  C   UNL     1       2.884  -2.091  -0.037  0.00  0.00    +0.136 A 
ATOM      6  C   UNL     1       3.434  -0.858  -0.035  0.00  0.00    +0.064 A 
ATOM      7  N   UNL     1       2.405   0.044  -0.021  0.00  0.00    -0.301 N 
ATOM      8  C   UNL     1       2.373   1.409  -0.013  0.00  0.00    +0.108 A 
ATOM      9  C   UNL     1       1.195   2.068   0.002  0.00  0.00    +0.034 A 
ATOM     10 BR   UNL     1       1.175   3.959   0.011  0.00  0.00    -0.049 Br
ENDROOT
BRANCH   6  11
ATOM     11  C   UNL     1       4.906  -0.534  -0.048  0.00  0.00    +0.131 C 
BRANCH  11  12
ATOM     12  C   UNL     1       5.410  -0.540  -1.468  0.00  0.00    -0.022 A 
ATOM     13  C   UNL     1       5.714  -1.732  -2.108  0.00  0.00    +0.025 A 
ATOM     14  C   UNL     1       6.169  -1.698  -3.413  0.00  0.00    +0.111 A 
ATOM     15  N   UNL     1       6.324  -0.550  -4.044  0.00  0.00    -0.263 NA
ATOM     16  C   UNL     1       6.050   0.602  -3.465  0.00  0.00    +0.111 A 
ATOM     17  C   UNL     1       5.585   0.646  -2.163  0.00  0.00    +0.025 A 
ENDBRANCH  11  12
BRANCH  11  18
ATOM     18  N   UNL     1       5.635  -1.542   0.734  0.00  0.00    -0.319 NA
ATOM     19  H   UNL     1       6.709  -1.306   0.725  0.00  0.00    +0.119 HD
ATOM     20  H   UNL     1       5.267  -1.538   1.771  0.00  0.00    +0.119 HD
ENDBRANCH  11  18
ENDBRANCH   6  11
TORSDOF 3
