REMARK  Name = ZINC38695487
REMARK  6 active torsions:
REMARK  status: ('A' for Active; 'I' for Inactive)
REMARK    1  A    between atoms: C_1  and  C_2
REMARK    2  A    between atoms: C_5  and  N_20
REMARK    3  A    between atoms: C_7  and  N_8
REMARK    4  A    between atoms: N_8  and  S_9
REMARK    5  A    between atoms: S_9  and  C_12
REMARK    6  A    between atoms: C_17  and  C_18
REMARK                            x       y       z     vdW  Elec       q    Type
REMARK                         _______ _______ _______ _____ _____    ______ ____
ROOT
ATOM      1  C   UNL     1       0.173   2.030   0.397  0.00  0.00    +0.046 C 
ATOM      2  C   UNL     1       0.264   0.549   0.133  0.00  0.00    -0.028 A 
ATOM      3  C   UNL     1       0.426   0.087  -1.159  0.00  0.00    +0.007 A 
ATOM      4  C   UNL     1       0.509  -1.269  -1.406  0.00  0.00    +0.025 A 
ATOM      5  C   UNL     1       0.430  -2.175  -0.354  0.00  0.00    +0.053 A 
ATOM      6  C   UNL     1       0.267  -1.714   0.945  0.00  0.00    +0.049 A 
ATOM      7  C   UNL     1       0.190  -0.350   1.190  0.00  0.00    +0.053 A 
ENDROOT
BRANCH   5   8
ATOM      8  N   UNL     1       0.514  -3.546  -0.605  0.00  0.00    -0.207 N 
ATOM      9  C   UNL     1      -0.039  -4.635   0.221  0.00  0.00    +0.133 C 
ATOM     10  C   UNL     1      -0.395  -5.855  -0.649  0.00  0.00    +0.045 C 
ATOM     11  C   UNL     1       0.831  -6.052  -1.591  0.00  0.00    +0.190 C 
ATOM     12  S   UNL     1       1.258  -4.291  -1.909  0.00  0.00    +0.046 S 
ATOM     13  O   UNL     1       0.579  -3.807  -3.060  0.00  0.00    -0.155 OA
ATOM     14  O   UNL     1       2.650  -4.072  -1.728  0.00  0.00    -0.155 OA
ENDBRANCH   5   8
BRANCH   7  15
ATOM     15  N   UNL     1       0.032   0.117   2.496  0.00  0.00    -0.216 N 
ATOM     16  H   UNL     1      -0.507   0.905   2.667  0.00  0.00    +0.174 HD
BRANCH  15  17
ATOM     17  S   UNL     1       0.766  -0.673   3.753  0.00  0.00    +0.073 S 
ATOM     18  O   UNL     1       0.540   0.114   4.914  0.00  0.00    -0.150 OA
ATOM     19  O   UNL     1       0.367  -2.034   3.665  0.00  0.00    -0.150 OA
BRANCH  17  20
ATOM     20  C   UNL     1       2.501  -0.636   3.449  0.00  0.00    +0.113 A 
ATOM     21  C   UNL     1       3.189  -1.814   3.224  0.00  0.00    +0.029 A 
ATOM     22  C   UNL     1       4.550  -1.786   2.986  0.00  0.00    +0.003 A 
ATOM     23  C   UNL     1       5.225  -0.580   2.972  0.00  0.00    +0.020 A 
ATOM     24  C   UNL     1       4.537   0.599   3.197  0.00  0.00    +0.046 A 
ATOM     25  C   UNL     1       3.174   0.571   3.429  0.00  0.00    -0.006 A 
ATOM     26  C   UNL     1       2.423   1.856   3.668  0.00  0.00    +0.047 C 
ATOM     27 CL   UNL     1       5.384   2.115   3.180  0.00  0.00    -0.083 Cl
ENDBRANCH  17  20
ENDBRANCH  15  17
ENDBRANCH   7  15
TORSDOF 4
