REMARK  Name = ZINC48428502
REMARK  3 active torsions:
REMARK  status: ('A' for Active; 'I' for Inactive)
REMARK    1  A    between atoms: C_3  and  N_17
REMARK    2  A    between atoms: C_4  and  C_13
REMARK    3  A    between atoms: C_6  and  N_7
REMARK                            x       y       z     vdW  Elec       q    Type
REMARK                         _______ _______ _______ _____ _____    ______ ____
ROOT
ATOM      1  C   UNL     1      -0.049   1.566   0.048  0.00  0.00    +0.025 A 
ATOM      2  C   UNL     1       1.171   2.212   0.025  0.00  0.00    +0.026 A 
ATOM      3  C   UNL     1       2.347   1.475   0.003  0.00  0.00    +0.047 A 
ATOM      4  C   UNL     1       2.296   0.087   0.004  0.00  0.00    +0.078 A 
ATOM      5  C   UNL     1       1.077  -0.559   0.027  0.00  0.00    +0.037 A 
ATOM      6  C   UNL     1      -0.100   0.178   0.050  0.00  0.00    +0.030 A 
ENDROOT
BRANCH   3   7
ATOM      7  N   UNL     1       3.586   2.131  -0.022  0.00  0.00    -0.269 N 
ATOM      8  C   UNL     1       3.695   3.383   0.466  0.00  0.00    +0.306 C 
ATOM      9  O   UNL     1       2.746   3.904   1.020  0.00  0.00    -0.252 OA
ATOM     10  N   UNL     1       4.855   4.056   0.339  0.00  0.00    -0.285 N 
ATOM     11  C   UNL     1       6.004   3.436  -0.335  0.00  0.00    +0.109 C 
ATOM     12  C   UNL     1       5.690   3.285  -1.818  0.00  0.00    +0.019 C 
ATOM     13  C   UNL     1       5.734   4.670  -2.486  0.00  0.00    +0.002 C 
ATOM     14  C   UNL     1       4.450   5.427  -2.170  0.00  0.00    +0.000 C 
ATOM     15  C   UNL     1       4.744   6.653  -1.286  0.00  0.00    +0.002 C 
ATOM     16  C   UNL     1       5.716   6.264  -0.172  0.00  0.00    +0.019 C 
ATOM     17  C   UNL     1       4.981   5.407   0.862  0.00  0.00    +0.109 C 
ATOM     18  H   UNL     1       4.364   1.684  -0.389  0.00  0.00    +0.156 HD
ENDBRANCH   3   7
BRANCH   6  19
ATOM     19  N   UNL     1      -1.336  -0.476   0.074  0.00  0.00    -0.326 N 
ATOM     20  C   UNL     1      -1.415  -1.941   0.197  0.00  0.00    +0.133 C 
ATOM     21  C   UNL     1      -2.393  -2.278   1.329  0.00  0.00    +0.178 C 
ATOM     22  O   UNL     1      -3.627  -1.592   1.105  0.00  0.00    -0.377 OA
ATOM     23  C   UNL     1      -3.515  -0.167   1.120  0.00  0.00    +0.178 C 
ATOM     24  C   UNL     1      -2.596   0.279  -0.017  0.00  0.00    +0.133 C 
ENDBRANCH   6  19
BRANCH   4  25
ATOM     25  C   UNL     1       3.573  -0.714  -0.021  0.00  0.00    +0.419 C 
ATOM     26  F   UNL     1       3.267  -2.079  -0.015  0.00  0.00    -0.166 F 
ATOM     27  F   UNL     1       4.296  -0.402  -1.178  0.00  0.00    -0.166 F 
ATOM     28  F   UNL     1       4.340  -0.402   1.106  0.00  0.00    -0.166 F 
ENDBRANCH   4  25
TORSDOF 3
