REMARK  Name = ZINC37711258
REMARK  5 active torsions:
REMARK  status: ('A' for Active; 'I' for Inactive)
REMARK    1  A    between atoms: C_5  and  O_9
REMARK    2  A    between atoms: C_6  and  C_7
REMARK    3  A    between atoms: C_7  and  N_8
REMARK    4  A    between atoms: O_9  and  C_10
REMARK    5  A    between atoms: C_17  and  O_19
REMARK                            x       y       z     vdW  Elec       q    Type
REMARK                         _______ _______ _______ _____ _____    ______ ____
ROOT
ATOM      1  C   UNL     1      -0.046   1.276  -0.345  0.00  0.00    +0.025 A 
ATOM      2  C   UNL     1       1.132   1.974  -0.542  0.00  0.00    +0.043 A 
ATOM      3  C   UNL     1       2.348   1.317  -0.473  0.00  0.00    +0.043 A 
ATOM      4  C   UNL     1       2.387  -0.039  -0.208  0.00  0.00    +0.084 A 
ATOM      5  C   UNL     1       1.206  -0.741  -0.010  0.00  0.00    +0.141 A 
ATOM      6  C   UNL     1      -0.011  -0.079  -0.080  0.00  0.00    -0.020 A 
ATOM      7 CL   UNL     1       3.912  -0.864  -0.122  0.00  0.00    -0.080 Cl
ATOM      8 CL   UNL     1       1.085   3.677  -0.876  0.00  0.00    -0.083 Cl
ENDROOT
BRANCH   6   9
ATOM      9  C   UNL     1      -1.295  -0.839   0.135  0.00  0.00    -0.047 C 
BRANCH   9  10
ATOM     10  N   UNL     1      -1.555  -0.964   1.575  0.00  0.00    +0.381 N 
ATOM     11  H   UNL     1      -1.739  -0.052   1.965  0.00  0.00    -0.090 HD
ATOM     12  H   UNL     1      -2.356  -1.560   1.722  0.00  0.00    -0.090 HD
ATOM     13  H   UNL     1      -0.749  -1.367   2.028  0.00  0.00    -0.090 HD
ENDBRANCH   9  10
ENDBRANCH   6   9
BRANCH   5  14
ATOM     14  O   UNL     1       1.242  -2.075   0.250  0.00  0.00    -0.483 OA
BRANCH  14  15
ATOM     15  C   UNL     1       1.382  -2.465   1.618  0.00  0.00    +0.224 C 
ATOM     16  C   UNL     1       2.881  -2.691   1.914  0.00  0.00    +0.213 C 
ATOM     17  S   UNL     1       2.807  -4.127   3.072  0.00  0.00    -0.025 S 
ATOM     18  O   UNL     1       2.521  -3.660   4.383  0.00  0.00    -0.174 OA
ATOM     19  O   UNL     1       3.931  -4.968   2.852  0.00  0.00    -0.174 OA
ATOM     20  C   UNL     1       1.299  -4.923   2.365  0.00  0.00    +0.201 C 
ATOM     21  C   UNL     1       0.517  -3.692   1.864  0.00  0.00    +0.177 C 
BRANCH  21  22
ATOM     22  O   UNL     1      -0.477  -3.361   2.835  0.00  0.00    -0.386 OA
ATOM     23  H   UNL     1      -1.074  -4.091   3.051  0.00  0.00    +0.210 HD
ENDBRANCH  21  22
ENDBRANCH  14  15
ENDBRANCH   5  14
TORSDOF 5
