REMARK  Name = ZINC37609955
REMARK  7 active torsions:
REMARK  status: ('A' for Active; 'I' for Inactive)
REMARK    1  A    between atoms: C_1  and  C_2
REMARK    2  A    between atoms: C_2  and  C_3
REMARK    3  A    between atoms: C_2  and  N_4
REMARK    4  A    between atoms: N_4  and  C_5
REMARK    5  A    between atoms: C_5  and  C_6
REMARK    6  A    between atoms: N_8  and  C_9
REMARK    7  A    between atoms: C_11  and  C_17
REMARK                            x       y       z     vdW  Elec       q    Type
REMARK                         _______ _______ _______ _____ _____    ______ ____
ROOT
ATOM      1  C   UNL     1       0.802  -0.945   5.975  0.00  0.00    +0.070 A 
ATOM      2  C   UNL     1       2.179  -1.071   6.014  0.00  0.00    +0.042 A 
ATOM      3  C   UNL     1       2.795  -1.623   7.139  0.00  0.00    +0.074 A 
ATOM      4  C   UNL     1       2.015  -2.044   8.222  0.00  0.00    +0.138 A 
ATOM      5  C   UNL     1       0.639  -1.914   8.173  0.00  0.00    +0.079 A 
ATOM      6  C   UNL     1       0.033  -1.361   7.058  0.00  0.00    +0.147 A 
ATOM      7  F   UNL     1      -1.312  -1.231   7.019  0.00  0.00    -0.203 F 
ATOM      8  F   UNL     1       2.604  -2.579   9.313  0.00  0.00    -0.205 F 
ENDROOT
BRANCH   3   9
ATOM      9  C   UNL     1       4.263  -1.761   7.188  0.00  0.00    +0.244 C 
ATOM     10  O   UNL     1       4.797  -2.241   8.169  0.00  0.00    -0.270 OA
ATOM     11  N   UNL     1       5.013  -1.354   6.144  0.00  0.00    -0.325 N 
ATOM     12  H   UNL     1       4.587  -0.971   5.361  0.00  0.00    +0.145 HD
ATOM     13  H   UNL     1       5.978  -1.445   6.175  0.00  0.00    +0.145 HD
ENDBRANCH   3   9
BRANCH   1  16
ATOM     14  C   UNL     1       0.693  -0.613   3.619  0.00  0.00    +0.200 C 
ATOM     15  O   UNL     1       1.734  -1.222   3.497  0.00  0.00    -0.278 OA
ATOM     16  N   UNL     1       0.181  -0.391   4.846  0.00  0.00    -0.285 N 
ATOM     17  H   UNL     1      -0.616   0.151   4.949  0.00  0.00    +0.155 HD
BRANCH  14  18
ATOM     18  C   UNL     1      -0.030  -0.104   2.399  0.00  0.00    +0.015 C 
BRANCH  18  19
ATOM     19  N   UNL     1       0.726  -0.471   1.194  0.00  0.00    +0.386 N 
ATOM     20  H   UNL     1       0.807  -1.476   1.141  0.00  0.00    -0.085 HD
ATOM     21  H   UNL     1       1.646  -0.060   1.235  0.00  0.00    -0.085 HD
BRANCH  19  23
ATOM     22  C   UNL     1       0.007   1.555   0.021  0.00  0.00    -0.014 C 
ATOM     23  C   UNL     1       0.021   0.025   0.004  0.00  0.00    -0.078 C 
ATOM     24  C   UNL     1       0.740  -0.464  -1.255  0.00  0.00    -0.014 C 
ENDBRANCH  19  23
ENDBRANCH  18  19
ENDBRANCH  14  18
ENDBRANCH   1  16
TORSDOF 5
