REMARK  Name = ZINC53128513
REMARK  4 active torsions:
REMARK  status: ('A' for Active; 'I' for Inactive)
REMARK    1  A    between atoms: C_1  and  C_2
REMARK    2  A    between atoms: C_7  and  C_9
REMARK    3  A    between atoms: C_7  and  N_11
REMARK    4  A    between atoms: C_9  and  O_10
REMARK                            x       y       z     vdW  Elec       q    Type
REMARK                         _______ _______ _______ _____ _____    ______ ____
ROOT
ATOM      1  C   UNL     1      -0.166   1.089  -0.131  0.00  0.00    +0.007 C 
ATOM      2  C   UNL     1       0.113  -0.413  -0.034  0.00  0.00    -0.012 C 
ATOM      3  C   UNL     1       0.842  -0.878  -1.296  0.00  0.00    +0.003 C 
ATOM      4  C   UNL     1       2.165  -0.121  -1.429  0.00  0.00    +0.002 C 
ATOM      5  C   UNL     1       3.038  -0.399  -0.204  0.00  0.00    +0.028 C 
ATOM      6  C   UNL     1       2.309   0.066   1.058  0.00  0.00    +0.057 C 
ATOM      7  C   UNL     1       0.986  -0.691   1.192  0.00  0.00    +0.031 C 
ENDROOT
BRANCH   6   8
ATOM      8  N   UNL     1       2.042   1.504   0.965  0.00  0.00    -0.320 N 
ATOM      9  C   UNL     1       1.492   2.177   2.044  0.00  0.00    +0.142 A 
ATOM     10  C   UNL     1       1.069   1.481   3.181  0.00  0.00    +0.178 A 
ATOM     11  N   UNL     1       0.550   2.155   4.189  0.00  0.00    -0.151 NA
ATOM     12  N   UNL     1       0.435   3.435   4.128  0.00  0.00    -0.117 NA
ATOM     13  C   UNL     1       0.827   4.115   3.066  0.00  0.00    +0.245 A 
ATOM     14  N   UNL     1       1.360   3.501   2.024  0.00  0.00    -0.200 NA
ATOM     15 CL   UNL     1       0.646   5.842   3.040  0.00  0.00    -0.039 Cl
ATOM     16  H   UNL     1       2.249   1.984   0.149  0.00  0.00    +0.148 HD
ENDBRANCH   6   8
BRANCH   6  17
ATOM     17  C   UNL     1       3.182  -0.212   2.283  0.00  0.00    +0.181 C 
BRANCH  17  18
ATOM     18  O   UNL     1       4.375   0.571   2.206  0.00  0.00    -0.393 OA
ATOM     19  H   UNL     1       4.977   0.445   2.952  0.00  0.00    +0.209 HD
ENDBRANCH  17  18
ENDBRANCH   6  17
TORSDOF 3
