REMARK  Name = ZINC16192520
REMARK  10 active torsions:
REMARK  status: ('A' for Active; 'I' for Inactive)
REMARK    1  A    between atoms: C_1  and  C_2
REMARK    2  A    between atoms: N_4  and  C_21
REMARK    3  A    between atoms: C_8  and  C_9
REMARK    4  A    between atoms: C_11  and  O_19
REMARK    5  A    between atoms: C_12  and  O_17
REMARK    6  A    between atoms: C_13  and  O_15
REMARK    7  A    between atoms: O_15  and  C_16
REMARK    8  A    between atoms: O_17  and  C_18
REMARK    9  A    between atoms: O_19  and  C_20
REMARK   10  A    between atoms: C_24  and  S_27
REMARK                            x       y       z     vdW  Elec       q    Type
REMARK                         _______ _______ _______ _____ _____    ______ ____
ROOT
ATOM      1  C   UNL     1       0.528   1.436   0.006  0.00  0.00    +0.068 C 
ATOM      2  C   UNL     1       0.163  -0.026   0.001  0.00  0.00    +0.069 C 
ATOM      3  N   UNL     1      -0.011  -0.769  -1.049  0.00  0.00    -0.177 NA
ATOM      4  N   UNL     1      -0.341  -2.077  -0.698  0.00  0.00    -0.156 N 
ATOM      5  C   UNL     1      -0.386  -2.201   0.644  0.00  0.00    +0.272 C 
ATOM      6  O   UNL     1      -0.642  -3.208   1.280  0.00  0.00    -0.268 OA
ATOM      7  C   UNL     1      -0.054  -0.872   1.184  0.00  0.00    +0.062 C 
ATOM      8  C   UNL     1       0.032  -0.499   2.515  0.00  0.00    +0.023 C 
ENDROOT
BRANCH   8   9
ATOM      9  C   UNL     1      -0.054  -1.513   3.565  0.00  0.00    -0.017 A 
ATOM     10  C   UNL     1      -0.755  -1.241   4.750  0.00  0.00    +0.057 A 
ATOM     11  C   UNL     1      -0.834  -2.202   5.738  0.00  0.00    +0.166 A 
ATOM     12  C   UNL     1      -0.219  -3.440   5.560  0.00  0.00    +0.204 A 
ATOM     13  C   UNL     1       0.479  -3.715   4.385  0.00  0.00    +0.166 A 
ATOM     14  C   UNL     1       0.559  -2.763   3.389  0.00  0.00    +0.057 A 
BRANCH  13  15
ATOM     15  O   UNL     1       1.078  -4.924   4.218  0.00  0.00    -0.491 OA
ATOM     16  C   UNL     1       1.777  -5.138   2.990  0.00  0.00    +0.277 C 
ENDBRANCH  13  15
BRANCH  12  17
ATOM     17  O   UNL     1      -0.299  -4.382   6.536  0.00  0.00    -0.488 OA
ATOM     18  C   UNL     1      -1.404  -5.286   6.475  0.00  0.00    +0.277 C 
ENDBRANCH  12  17
BRANCH  11  19
ATOM     19  O   UNL     1      -1.513  -1.939   6.887  0.00  0.00    -0.491 OA
ATOM     20  C   UNL     1      -2.119  -0.650   7.002  0.00  0.00    +0.277 C 
ENDBRANCH  11  19
ENDBRANCH   8   9
BRANCH   4  21
ATOM     21  C   UNL     1      -0.591  -3.113  -1.608  0.00  0.00    +0.060 A 
ATOM     22  C   UNL     1      -0.918  -4.381  -1.146  0.00  0.00    +0.027 A 
ATOM     23  C   UNL     1      -1.163  -5.400  -2.045  0.00  0.00    +0.031 A 
ATOM     24  C   UNL     1      -1.083  -5.158  -3.404  0.00  0.00    +0.120 A 
ATOM     25  C   UNL     1      -0.758  -3.897  -3.868  0.00  0.00    +0.031 A 
ATOM     26  C   UNL     1      -0.517  -2.872  -2.973  0.00  0.00    +0.027 A 
BRANCH  24  27
ATOM     27  S   UNL     1      -1.396  -6.461  -4.549  0.00  0.00    +0.140 S 
ATOM     28  O   UNL     1      -0.593  -6.188  -5.730  0.00  0.00    -0.140 OA
ATOM     29  O   UNL     1      -1.000  -7.700  -3.897  0.00  0.00    -0.140 OA
ATOM     30  O   UNL     1      -2.821  -6.433  -4.842  0.00  0.00    -0.043 OA
ENDBRANCH  24  27
ENDBRANCH   4  21
TORSDOF 6
