REMARK  Name = ZINC05853183
REMARK  5 active torsions:
REMARK  status: ('A' for Active; 'I' for Inactive)
REMARK    1  A    between atoms: C_1  and  O_2
REMARK    2  A    between atoms: O_2  and  C_3
REMARK    3  A    between atoms: C_9  and  C_14
REMARK    4  A    between atoms: C_9  and  C_22
REMARK    5  A    between atoms: C_15  and  C_16
REMARK                            x       y       z     vdW  Elec       q    Type
REMARK                         _______ _______ _______ _____ _____    ______ ____
ROOT
ATOM      1  C   UNL     1       1.306   1.966  -0.032  0.00  0.00    +0.147 A 
ATOM      2  C   UNL     1       0.298   1.142   0.457  0.00  0.00    +0.083 A 
ATOM      3  C   UNL     1       0.435  -0.232   0.389  0.00  0.00    +0.025 A 
ATOM      4  C   UNL     1       1.570  -0.794  -0.164  0.00  0.00    +0.025 A 
ATOM      5  C   UNL     1       2.581   0.022  -0.653  0.00  0.00    +0.045 A 
ATOM      6  C   UNL     1       2.439   1.403  -0.583  0.00  0.00    +0.061 A 
ATOM      7  C   UNL     1       3.559   2.261  -1.125  0.00  0.00    +0.224 C 
ATOM      8  N   UNL     1       4.722   1.558  -1.692  0.00  0.00    -0.272 N 
ATOM      9  C   UNL     1       4.735   0.213  -1.700  0.00  0.00    +0.305 C 
ATOM     10  O   UNL     1       5.702  -0.354  -2.171  0.00  0.00    -0.252 OA
ATOM     11  N   UNL     1       3.733  -0.531  -1.215  0.00  0.00    -0.269 N 
ATOM     12 CL   UNL     1      -1.135   1.839   1.146  0.00  0.00    -0.080 Cl
ATOM     13  H   UNL     1       5.470   2.059  -2.055  0.00  0.00    +0.152 HD
ATOM     14  H   UNL     1       3.812  -1.497  -1.254  0.00  0.00    +0.156 HD
ENDROOT
BRANCH   7  15
ATOM     15  C   UNL     1       4.057   3.159   0.009  0.00  0.00    +0.426 C 
ATOM     16  F   UNL     1       4.361   2.374   1.126  0.00  0.00    -0.167 F 
ATOM     17  F   UNL     1       5.205   3.842  -0.407  0.00  0.00    -0.167 F 
ATOM     18  F   UNL     1       3.061   4.083   0.344  0.00  0.00    -0.167 F 
ENDBRANCH   7  15
BRANCH   1  20
ATOM     19  C   UNL     1       0.389   3.943  -0.983  0.00  0.00    +0.277 C 
ATOM     20  O   UNL     1       1.177   3.318   0.032  0.00  0.00    -0.493 OA
ENDBRANCH   1  20
BRANCH   7  21
ATOM     21  C   UNL     1       2.998   3.129  -2.174  0.00  0.00    -0.057 C 
ATOM     22  C   UNL     1       2.551   3.821  -3.010  0.00  0.00    -0.062 C 
BRANCH  22  23
ATOM     23  C   UNL     1       2.005   4.666  -4.029  0.00  0.00    +0.043 A 
ATOM     24  C   UNL     1       0.648   4.592  -4.364  0.00  0.00    +0.020 A 
ATOM     25  C   UNL     1       0.170   5.433  -5.353  0.00  0.00    +0.021 A 
ATOM     26  C   UNL     1       1.042   6.304  -5.981  0.00  0.00    +0.111 A 
ATOM     27  N   UNL     1       2.317   6.348  -5.649  0.00  0.00    -0.262 NA
ATOM     28  C   UNL     1       2.819   5.572  -4.711  0.00  0.00    +0.127 A 
ENDBRANCH  22  23
ENDBRANCH   7  21
TORSDOF 4
