REMARK  Name = ZINC21986123
REMARK  4 active torsions:
REMARK  status: ('A' for Active; 'I' for Inactive)
REMARK    1  A    between atoms: C_1  and  C_2
REMARK    2  A    between atoms: C_13  and  C_14
REMARK    3  A    between atoms: C_13  and  O_15
REMARK    4  A    between atoms: C_20  and  C_29
REMARK                            x       y       z     vdW  Elec       q    Type
REMARK                         _______ _______ _______ _____ _____    ______ ____
ROOT
ATOM      1  C   UNL     1       1.611  -0.408   1.736  0.00  0.00    +0.014 C 
ATOM      2  C   UNL     1       1.389  -0.420   0.292  0.00  0.00    -0.000 C 
ATOM      3  C   UNL     1       1.803  -1.761  -0.300  0.00  0.00    +0.010 C 
ATOM      4  C   UNL     1       3.315  -2.009  -0.070  0.00  0.00    +0.005 C 
ATOM      5  C   UNL     1       4.185  -0.867  -0.544  0.00  0.00    -0.001 C 
ATOM      6  C   UNL     1       3.641   0.538  -0.130  0.00  0.00    -0.004 C 
ATOM      7  C   UNL     1       2.186   0.659  -0.487  0.00  0.00    +0.001 C 
ATOM      8  C   UNL     1       1.500   1.934  -0.002  0.00  0.00    +0.007 C 
ATOM      9  C   UNL     1      -0.019   1.589   0.011  0.00  0.00    +0.035 C 
ATOM     10  C   UNL     1       0.002  -0.004   0.002  0.00  0.00    +0.069 C 
ATOM     11  C   UNL     1      -0.541  -0.539  -1.358  0.00  0.00    +0.042 C 
ATOM     12  C   UNL     1       4.473   1.627  -0.722  0.00  0.00    +0.004 C 
ATOM     13  C   UNL     1       4.565   1.456  -2.296  0.00  0.00    +0.005 C 
ATOM     14  C   UNL     1       5.388   0.118  -2.475  0.00  0.00    +0.001 C 
ATOM     15  C   UNL     1       4.549  -1.034  -1.971  0.00  0.00    -0.022 C 
ATOM     16  C   UNL     1       3.219  -1.188  -2.800  0.00  0.00    +0.045 C 
ATOM     17  C   UNL     1       3.428  -0.754  -4.241  0.00  0.00    -0.006 A 
ATOM     18  C   UNL     1       2.420  -0.742  -5.206  0.00  0.00    +0.138 A 
ATOM     19  N   UNL     1       2.891  -0.163  -6.293  0.00  0.00    -0.182 NA
ATOM     20  N   UNL     1       4.264   0.212  -5.995  0.00  0.00    -0.281 N 
ATOM     21  H   UNL     1       4.872   0.724  -6.755  0.00  0.00    +0.189 HD
ATOM     22  C   UNL     1       4.513  -0.193  -4.723  0.00  0.00    +0.040 A 
ATOM     23  C   UNL     1       5.717   0.036  -3.965  0.00  0.00    +0.059 C 
ATOM     24  C   UNL     1       5.403  -2.304  -2.226  0.00  0.00    +0.012 C 
ENDROOT
BRANCH  10  25
ATOM     25  O   UNL     1      -0.856  -0.456   1.041  0.00  0.00    -0.388 OA
ATOM     26  H   UNL     1      -1.933  -0.239   0.998  0.00  0.00    +0.210 HD
ENDBRANCH  10  25
TORSDOF 1
