REMARK  Name = ZINC43045238
REMARK  5 active torsions:
REMARK  status: ('A' for Active; 'I' for Inactive)
REMARK    1  A    between atoms: C_5  and  C_7
REMARK    2  A    between atoms: C_7  and  C_9
REMARK    3  A    between atoms: C_7  and  N_11
REMARK    4  A    between atoms: C_9  and  N_10
REMARK    5  A    between atoms: C_16  and  C_18
REMARK                            x       y       z     vdW  Elec       q    Type
REMARK                         _______ _______ _______ _____ _____    ______ ____
ROOT
ATOM      1  C   UNL     1       1.919  -2.744   0.702  0.00  0.00    +0.073 C 
ENDROOT
BRANCH   1   6
ATOM      2  C   UNL     1       2.114  -4.204  -2.774  0.00  0.00    +0.000 A 
ATOM      3  C   UNL     1       3.459  -4.059  -3.061  0.00  0.00    +0.003 A 
ATOM      4  C   UNL     1       4.306  -3.489  -2.131  0.00  0.00    +0.038 A 
ATOM      5  C   UNL     1       3.808  -3.062  -0.911  0.00  0.00    +0.128 A 
ATOM      6  C   UNL     1       2.462  -3.208  -0.625  0.00  0.00    +0.003 A 
ATOM      7  C   UNL     1       1.616  -3.779  -1.557  0.00  0.00    +0.008 A 
ATOM      8  F   UNL     1       4.636  -2.505  -0.001  0.00  0.00    -0.205 F 
ENDBRANCH   1   6
BRANCH   1   9
ATOM      9  N   UNL     1       0.457  -2.630   0.620  0.00  0.00    -0.286 NA
ATOM     10  C   UNL     1      -0.186  -3.936   0.814  0.00  0.00    +0.085 C 
ATOM     11  C   UNL     1      -1.692  -3.805   0.578  0.00  0.00    +0.015 C 
ATOM     12  C   UNL     1      -2.270  -2.780   1.558  0.00  0.00    +0.003 C 
ATOM     13  C   UNL     1      -1.551  -1.442   1.368  0.00  0.00    +0.028 C 
ATOM     14  C   UNL     1      -0.049  -1.641   1.581  0.00  0.00    +0.143 C 
BRANCH  14  15
ATOM     15  C   UNL     1       0.665  -0.330   1.375  0.00  0.00    +0.228 C 
ATOM     16  O   UNL     1       1.079  -0.031   0.275  0.00  0.00    -0.274 OA
ATOM     17  N   UNL     1       0.845   0.510   2.414  0.00  0.00    -0.328 N 
ATOM     18  H   UNL     1       0.514   0.270   3.294  0.00  0.00    +0.145 HD
ATOM     19  H   UNL     1       1.305   1.353   2.281  0.00  0.00    +0.145 HD
ENDBRANCH  14  15
ENDBRANCH   1   9
BRANCH   1  20
ATOM     20  C   UNL     1       2.291  -3.757   1.787  0.00  0.00    -0.062 C 
BRANCH  20  21
ATOM     21  N   UNL     1       1.700  -3.343   3.067  0.00  0.00    +0.379 N 
ATOM     22  H   UNL     1       0.700  -3.472   3.033  0.00  0.00    -0.090 HD
ATOM     23  H   UNL     1       2.087  -3.902   3.812  0.00  0.00    -0.090 HD
ATOM     24  H   UNL     1       1.909  -2.370   3.234  0.00  0.00    -0.090 HD
ENDBRANCH  20  21
ENDBRANCH   1  20
TORSDOF 5
