REMARK  Name = ZINC52854758
REMARK  6 active torsions:
REMARK  status: ('A' for Active; 'I' for Inactive)
REMARK    1  A    between atoms: C_1  and  C_2
REMARK    2  A    between atoms: C_2  and  C_3
REMARK    3  A    between atoms: C_7  and  N_22
REMARK    4  A    between atoms: N_11  and  C_12
REMARK    5  A    between atoms: C_12  and  C_14
REMARK    6  A    between atoms: C_12  and  C_15
REMARK                            x       y       z     vdW  Elec       q    Type
REMARK                         _______ _______ _______ _____ _____    ______ ____
ROOT
ATOM      1  C   UNL     1      -1.607  -1.008   0.177  0.00  0.00    +0.111 A 
ATOM      2  N   UNL     1      -2.365  -1.221   1.213  0.00  0.00    -0.232 NA
ATOM      3  C   UNL     1      -3.650  -1.399   0.810  0.00  0.00    +0.091 A 
ATOM      4  C   UNL     1      -4.844  -1.654   1.489  0.00  0.00    +0.052 A 
ATOM      5  C   UNL     1      -6.021  -1.789   0.778  0.00  0.00    +0.027 A 
ATOM      6  C   UNL     1      -6.022  -1.673  -0.611  0.00  0.00    +0.025 A 
ATOM      7  C   UNL     1      -4.851  -1.422  -1.290  0.00  0.00    +0.030 A 
ATOM      8  C   UNL     1      -3.660  -1.284  -0.590  0.00  0.00    +0.069 A 
ATOM      9  N   UNL     1      -2.352  -1.031  -0.960  0.00  0.00    -0.320 N 
ENDROOT
BRANCH   5  10
ATOM     10  N   UNL     1      -7.219  -2.043   1.456  0.00  0.00    -0.358 N 
ATOM     11  H   UNL     1      -7.221  -2.125   2.422  0.00  0.00    +0.142 HD
ATOM     12  H   UNL     1      -8.046  -2.139   0.959  0.00  0.00    +0.142 HD
ENDBRANCH   5  10
BRANCH   1  14
ATOM     13  C   UNL     1       0.146   0.718   0.489  0.00  0.00    +0.012 C 
ATOM     14  C   UNL     1      -0.120  -0.767   0.231  0.00  0.00    +0.071 C 
ENDBRANCH   1  14
BRANCH   9  15
ATOM     15  C   UNL     1      -1.860  -0.828  -2.325  0.00  0.00    +0.116 C 
ATOM     16  C   UNL     1      -3.045  -0.764  -3.291  0.00  0.00    +0.036 C 
BRANCH  15  17
ATOM     17  C   UNL     1      -0.960  -1.974  -2.710  0.00  0.00    -0.025 A 
ATOM     18  C   UNL     1      -1.414  -3.275  -2.603  0.00  0.00    +0.007 A 
ATOM     19  C   UNL     1      -0.590  -4.327  -2.957  0.00  0.00    +0.015 A 
ATOM     20  C   UNL     1       0.690  -4.077  -3.417  0.00  0.00    +0.018 A 
ATOM     21  C   UNL     1       1.145  -2.775  -3.524  0.00  0.00    +0.015 A 
ATOM     22  C   UNL     1       0.318  -1.724  -3.175  0.00  0.00    +0.007 A 
ATOM     23 BR   UNL     1       1.819  -5.515  -3.900  0.00  0.00    -0.050 Br
ENDBRANCH  15  17
ENDBRANCH   9  15
TORSDOF 4
