REMARK  Name = ZINC47202421
REMARK  4 active torsions:
REMARK  status: ('A' for Active; 'I' for Inactive)
REMARK    1  A    between atoms: C_3  and  N_11
REMARK    2  A    between atoms: C_4  and  C_8
REMARK    3  A    between atoms: N_11  and  S_12
REMARK    4  A    between atoms: S_12  and  C_15
REMARK                            x       y       z     vdW  Elec       q    Type
REMARK                         _______ _______ _______ _____ _____    ______ ____
ROOT
ATOM      1  S   UNL     1       3.532   3.810  -0.012  0.00  0.00    +0.092 S 
ATOM      2  O   UNL     1       2.960   4.210  -1.250  0.00  0.00    -0.148 OA
ATOM      3  O   UNL     1       2.984   4.197   1.240  0.00  0.00    -0.148 OA
ENDROOT
BRANCH   1   4
ATOM      4  C   UNL     1       5.203   4.368  -0.026  0.00  0.00    +0.111 A 
ATOM      5  C   UNL     1       5.870   4.574   1.174  0.00  0.00    +0.032 A 
ATOM      6  C   UNL     1       7.178   5.010   1.185  0.00  0.00    +0.049 A 
ATOM      7  C   UNL     1       7.838   5.246  -0.014  0.00  0.00    +0.139 A 
ATOM      8  C   UNL     1       7.159   5.036  -1.227  0.00  0.00    +0.019 A 
ATOM      9  C   UNL     1       5.835   4.588  -1.217  0.00  0.00    +0.040 A 
ATOM     10  C   UNL     1       7.864   5.287  -2.488  0.00  0.00    +0.018 A 
ATOM     11  C   UNL     1       9.150   5.715  -2.430  0.00  0.00    +0.092 A 
ATOM     12  C   UNL     1       9.770   5.906  -1.176  0.00  0.00    +0.337 A 
ATOM     13  O   UNL     1      10.924   6.290  -1.137  0.00  0.00    -0.245 OA
ATOM     14  O   UNL     1       9.118   5.674  -0.025  0.00  0.00    -0.422 OA
ENDBRANCH   1   4
BRANCH   1  15
ATOM     15  N   UNL     1       3.568   2.154  -0.021  0.00  0.00    -0.097 NA
BRANCH  15  18
ATOM     16  C   UNL     1      -0.017   1.381   0.010  0.00  0.00    +0.005 A 
ATOM     17  C   UNL     1       1.163   2.098   0.002  0.00  0.00    +0.028 A 
ATOM     18  C   UNL     1       2.382   1.434  -0.013  0.00  0.00    +0.091 A 
ATOM     19  C   UNL     1       2.409   0.028  -0.021  0.00  0.00    +0.123 A 
ATOM     20  C   UNL     1       1.203  -0.685  -0.013  0.00  0.00    +0.139 A 
ATOM     21  C   UNL     1       0.002  -0.004   0.002  0.00  0.00    +0.039 A 
ATOM     22  F   UNL     1       1.215  -2.036  -0.021  0.00  0.00    -0.205 F 
BRANCH  19  23
ATOM     23  C   UNL     1       3.692  -0.688  -0.037  0.00  0.00    +0.391 C 
ATOM     24  O   UNL     1       4.742  -0.060  -0.044  0.00  0.00    -0.240 OA
ATOM     25  O   UNL     1       3.710  -1.911  -0.044  0.00  0.00    -0.240 OA
ENDBRANCH  19  23
ENDBRANCH  15  18
ENDBRANCH   1  15
TORSDOF 4
