REMARK  Name = ZINC37440764
REMARK  3 active torsions:
REMARK  status: ('A' for Active; 'I' for Inactive)
REMARK    1  A    between atoms: C_4  and  N_20
REMARK    2  A    between atoms: C_6  and  C_7
REMARK    3  A    between atoms: N_15  and  C_16
REMARK                            x       y       z     vdW  Elec       q    Type
REMARK                         _______ _______ _______ _____ _____    ______ ____
ROOT
ATOM      1  C   UNL     1      -1.264  -0.774  -0.063  0.00  0.00    +0.142 A 
ATOM      2  N   UNL     1      -1.368  -2.063   0.147  0.00  0.00    -0.227 NA
ATOM      3  C   UNL     1      -2.677  -2.414   0.184  0.00  0.00    +0.091 A 
ATOM      4  C   UNL     1      -3.340  -3.631   0.373  0.00  0.00    +0.050 A 
ATOM      5  C   UNL     1      -4.716  -3.670   0.357  0.00  0.00    +0.043 A 
ATOM      6  C   UNL     1      -5.452  -2.509   0.153  0.00  0.00    +0.022 A 
ATOM      7  C   UNL     1      -4.814  -1.302  -0.035  0.00  0.00    +0.029 A 
ATOM      8  C   UNL     1      -3.427  -1.243  -0.021  0.00  0.00    +0.069 A 
ATOM      9  N   UNL     1      -2.510  -0.220  -0.170  0.00  0.00    -0.320 N 
ATOM     10 CL   UNL     1      -5.538  -5.181   0.592  0.00  0.00    -0.083 Cl
ENDROOT
BRANCH   1  16
ATOM     11  C   UNL     1       0.028   1.354   0.016  0.00  0.00    +0.013 A 
ATOM     12  C   UNL     1       1.218   2.047  -0.079  0.00  0.00    +0.022 A 
ATOM     13  C   UNL     1       2.395   1.375  -0.354  0.00  0.00    +0.062 A 
ATOM     14  C   UNL     1       2.387  -0.004  -0.536  0.00  0.00    +0.044 A 
ATOM     15  C   UNL     1       1.197  -0.708  -0.442  0.00  0.00    +0.035 A 
ATOM     16  C   UNL     1       0.010  -0.030  -0.165  0.00  0.00    +0.019 A 
ATOM     17 CL   UNL     1       3.886   2.255  -0.473  0.00  0.00    -0.082 Cl
BRANCH  14  18
ATOM     18  N   UNL     1       3.578  -0.680  -0.814  0.00  0.00    -0.357 N 
ATOM     19  H   UNL     1       4.411  -0.187  -0.880  0.00  0.00    +0.142 HD
ATOM     20  H   UNL     1       3.573  -1.641  -0.941  0.00  0.00    +0.142 HD
ENDBRANCH  14  18
ENDBRANCH   1  16
BRANCH   9  21
ATOM     21  C   UNL     1      -2.816   1.195  -0.400  0.00  0.00    +0.089 C 
ATOM     22  C   UNL     1      -3.885   1.526  -1.444  0.00  0.00    +0.027 C 
ATOM     23  C   UNL     1      -2.409   1.795  -1.747  0.00  0.00    +0.027 C 
ENDBRANCH   9  21
TORSDOF 3
