REMARK  Name = ZINC39596515
REMARK  9 active torsions:
REMARK  status: ('A' for Active; 'I' for Inactive)
REMARK    1  A    between atoms: C_1  and  C_2
REMARK    2  A    between atoms: C_3  and  C_8
REMARK    3  A    between atoms: C_4  and  C_7
REMARK    4  A    between atoms: C_12  and  C_21
REMARK    5  A    between atoms: N_23  and  C_24
REMARK    6  A    between atoms: C_24  and  C_25
REMARK    7  A    between atoms: C_25  and  C_27
REMARK    8  A    between atoms: C_25  and  O_28
REMARK    9  A    between atoms: O_28  and  C_29
REMARK                            x       y       z     vdW  Elec       q    Type
REMARK                         _______ _______ _______ _____ _____    ______ ____
ROOT
ATOM      1  C   UNL     1       0.016  -0.410  -2.612  0.00  0.00    +0.252 C 
ATOM      2  O   UNL     1       1.064  -0.207  -3.194  0.00  0.00    -0.270 OA
ATOM      3  N   UNL     1      -1.157  -0.227  -3.250  0.00  0.00    -0.296 N 
ATOM      4  C   UNL     1      -2.524  -0.416  -2.711  0.00  0.00    +0.121 C 
ATOM      5  C   UNL     1      -3.343   0.751  -3.307  0.00  0.00    +0.100 C 
ATOM      6  C   UNL     1      -2.582   1.155  -4.580  0.00  0.00    -0.004 C 
ATOM      7  C   UNL     1      -1.370   0.214  -4.650  0.00  0.00    +0.115 C 
ATOM      8  C   UNL     1      -2.113   2.603  -4.480  0.00  0.00    -0.010 C 
ATOM      9  C   UNL     1      -1.409   2.998  -5.781  0.00  0.00    -0.082 C 
ATOM     10  N   UNL     1      -2.336   2.840  -6.908  0.00  0.00    +0.379 N 
ATOM     11  C   UNL     1      -2.710   1.428  -7.055  0.00  0.00    -0.082 C 
ATOM     12  C   UNL     1      -3.468   0.967  -5.808  0.00  0.00    -0.010 C 
ATOM     13  H   UNL     1      -3.164   3.390  -6.740  0.00  0.00    -0.086 HD
ATOM     14  H   UNL     1      -1.890   3.159  -7.755  0.00  0.00    -0.086 HD
ENDROOT
BRANCH   1  17
ATOM     15  C   UNL     1      -0.010   1.506  -0.002  0.00  0.00    +0.070 C 
ATOM     16  C   UNL     1       0.016  -0.001  -0.019  0.00  0.00    +0.093 A 
ATOM     17  C   UNL     1       0.028  -0.857  -1.207  0.00  0.00    +0.101 A 
ATOM     18  C   UNL     1       0.053  -2.148  -0.763  0.00  0.00    +0.147 A 
ATOM     19  O   UNL     1       0.056  -2.127   0.572  0.00  0.00    -0.359 OA
ATOM     20  N   UNL     1       0.038  -0.785   1.018  0.00  0.00    -0.083 NA
ATOM     21  C   UNL     1       0.072  -3.381  -1.629  0.00  0.00    +0.090 C 
ENDBRANCH   1  17
BRANCH   5  22
ATOM     22  C   UNL     1      -3.396   1.904  -2.337  0.00  0.00    +0.218 C 
ATOM     23  O   UNL     1      -2.522   2.039  -1.508  0.00  0.00    -0.275 OA
ATOM     24  N   UNL     1      -4.415   2.784  -2.392  0.00  0.00    -0.312 N 
ATOM     25  H   UNL     1      -5.114   2.676  -3.056  0.00  0.00    +0.149 HD
BRANCH  24  26
ATOM     26  C   UNL     1      -4.466   3.905  -1.450  0.00  0.00    +0.148 C 
BRANCH  26  27
ATOM     27  C   UNL     1      -5.714   4.746  -1.725  0.00  0.00    +0.187 C 
ATOM     28  C   UNL     1      -5.768   5.916  -0.741  0.00  0.00    +0.053 C 
BRANCH  27  29
ATOM     29  O   UNL     1      -5.664   5.250  -3.062  0.00  0.00    -0.488 OA
BRANCH  29  30
ATOM     30  C   UNL     1      -6.850   5.554  -3.652  0.00  0.00    +0.121 A 
ATOM     31  C   UNL     1      -6.884   5.935  -4.985  0.00  0.00    +0.048 A 
ATOM     32  C   UNL     1      -8.090   6.244  -5.584  0.00  0.00    +0.042 A 
ATOM     33  C   UNL     1      -9.264   6.174  -4.853  0.00  0.00    +0.124 A 
ATOM     34  C   UNL     1      -9.232   5.794  -3.522  0.00  0.00    +0.042 A 
ATOM     35  C   UNL     1      -8.027   5.478  -2.923  0.00  0.00    +0.048 A 
ATOM     36  F   UNL     1     -10.443   6.477  -5.440  0.00  0.00    -0.205 F 
ENDBRANCH  29  30
ENDBRANCH  27  29
ENDBRANCH  26  27
ENDBRANCH  24  26
ENDBRANCH   5  22
TORSDOF 6
