REMARK  Name = ZINC06449176
REMARK  5 active torsions:
REMARK  status: ('A' for Active; 'I' for Inactive)
REMARK    1  A    between atoms: C_5  and  C_7
REMARK    2  A    between atoms: N_9  and  C_10
REMARK    3  A    between atoms: C_10  and  C_11
REMARK    4  A    between atoms: N_13  and  N_14
REMARK    5  A    between atoms: C_15  and  C_17
REMARK                            x       y       z     vdW  Elec       q    Type
REMARK                         _______ _______ _______ _____ _____    ______ ____
ROOT
ATOM      1  C   UNL     1      -7.281   1.168   2.100  0.00  0.00    +0.246 C 
ATOM      2  O   UNL     1      -6.886   1.865   3.009  0.00  0.00    -0.273 OA
ATOM      3  N   UNL     1      -6.457   0.859   1.079  0.00  0.00    -0.233 N 
ATOM      4  H   UNL     1      -6.774   0.301   0.352  0.00  0.00    +0.173 HD
ENDROOT
BRANCH   3   5
ATOM      5  N   UNL     1      -5.143   1.344   1.069  0.00  0.00    -0.234 N 
ATOM      6  C   UNL     1      -4.318   1.035   0.049  0.00  0.00    +0.235 C 
ATOM      7  O   UNL     1      -4.714   0.337  -0.861  0.00  0.00    -0.274 OA
ATOM      8  H   UNL     1      -4.826   1.902   1.797  0.00  0.00    +0.173 HD
BRANCH   6   9
ATOM      9  C   UNL     1      -2.904   1.556   0.038  0.00  0.00    +0.049 C 
ATOM     10  C   UNL     1      -2.188   1.063  -1.221  0.00  0.00    +0.019 C 
ATOM     11  C   UNL     1      -0.753   1.593  -1.232  0.00  0.00    -0.009 C 
ATOM     12  C   UNL     1      -0.013   1.086   0.008  0.00  0.00    +0.007 C 
ATOM     13  C   UNL     1      -0.729   1.579   1.267  0.00  0.00    -0.009 C 
ATOM     14  C   UNL     1      -2.164   1.050   1.278  0.00  0.00    +0.019 C 
ATOM     15  C   UNL     1      -0.750   3.109   1.275  0.00  0.00    +0.007 C 
ATOM     16  C   UNL     1      -1.490   3.616   0.036  0.00  0.00    -0.009 C 
ATOM     17  C   UNL     1      -0.773   3.123  -1.223  0.00  0.00    +0.007 C 
ATOM     18  C   UNL     1      -2.925   3.086   0.047  0.00  0.00    +0.019 C 
ENDBRANCH   6   9
ENDBRANCH   3   5
BRANCH   1  19
ATOM     19  C   UNL     1      -8.695   0.646   2.110  0.00  0.00    +0.202 C 
BRANCH  19  22
ATOM     20  C   UNL     1     -10.665   0.774   3.539  0.00  0.00    +0.246 C 
ATOM     21  O   UNL     1     -11.254   0.072   2.741  0.00  0.00    -0.270 OA
ATOM     22  N   UNL     1      -9.381   1.118   3.316  0.00  0.00    -0.303 N 
ATOM     23  H   UNL     1      -8.911   1.679   3.953  0.00  0.00    +0.150 HD
BRANCH  20  28
ATOM     24  C   UNL     1     -11.334   2.499   6.807  0.00  0.00    +0.001 A 
ATOM     25  C   UNL     1     -12.653   2.144   7.034  0.00  0.00    +0.001 A 
ATOM     26  C   UNL     1     -13.327   1.345   6.129  0.00  0.00    +0.021 A 
ATOM     27  C   UNL     1     -12.687   0.896   4.990  0.00  0.00    +0.053 A 
ATOM     28  C   UNL     1     -11.356   1.251   4.755  0.00  0.00    +0.055 A 
ATOM     29  C   UNL     1     -10.681   2.053   5.677  0.00  0.00    +0.014 A 
ATOM     30 CL   UNL     1     -13.534  -0.108   3.855  0.00  0.00    -0.083 Cl
ENDBRANCH  20  28
ENDBRANCH  19  22
ENDBRANCH   1  19
TORSDOF 5
