REMARK  Name = ZINC66156328
REMARK  10 active torsions:
REMARK  status: ('A' for Active; 'I' for Inactive)
REMARK    1  A    between atoms: C_1  and  O_2
REMARK    2  A    between atoms: O_2  and  C_3
REMARK    3  A    between atoms: C_3  and  C_4
REMARK    4  A    between atoms: C_4  and  N_5
REMARK    5  A    between atoms: N_5  and  C_6
REMARK    6  A    between atoms: C_14  and  C_16
REMARK    7  A    between atoms: C_16  and  N_17
REMARK    8  A    between atoms: C_21  and  C_24
REMARK    9  A    between atoms: C_24  and  C_25
REMARK   10  A    between atoms: C_25  and  C_26
REMARK                            x       y       z     vdW  Elec       q    Type
REMARK                         _______ _______ _______ _____ _____    ______ ____
ROOT
ATOM      1  C   UNL     1       1.699  -2.900   2.429  0.00  0.00    +0.019 C 
ENDROOT
BRANCH   1   2
ATOM      2  N   UNL     1       3.138  -2.723   2.189  0.00  0.00    +0.386 N 
ATOM      3  C   UNL     1       3.586  -3.691   1.181  0.00  0.00    -0.078 C 
ATOM      4  C   UNL     1       5.066  -3.458   0.868  0.00  0.00    -0.018 C 
ATOM      5  C   UNL     1       5.887  -3.635   2.148  0.00  0.00    -0.000 C 
ATOM      6  C   UNL     1       5.361  -2.673   3.217  0.00  0.00    -0.027 C 
ATOM      7  C   UNL     1       3.871  -2.935   3.443  0.00  0.00    -0.075 C 
ATOM      8  H   UNL     1       3.309  -1.787   1.855  0.00  0.00    -0.081 HD
BRANCH   6   9
ATOM      9  C   UNL     1       6.124  -2.896   4.525  0.00  0.00    +0.011 C 
BRANCH   9  10
ATOM     10  C   UNL     1       7.594  -2.519   4.329  0.00  0.00    +0.096 C 
BRANCH  10  11
ATOM     11  C   UNL     1       8.345  -2.739   5.616  0.00  0.00    +0.210 C 
ATOM     12  O   UNL     1       7.762  -3.156   6.595  0.00  0.00    -0.276 OA
ATOM     13  N   UNL     1       9.665  -2.472   5.681  0.00  0.00    -0.329 N 
ATOM     14  H   UNL     1      10.131  -2.138   4.898  0.00  0.00    +0.145 HD
ATOM     15  H   UNL     1      10.148  -2.613   6.510  0.00  0.00    +0.145 HD
ENDBRANCH  10  11
ENDBRANCH   9  10
ENDBRANCH   6   9
ENDBRANCH   1   2
BRANCH   1  17
ATOM     16  N   UNL     1      -0.394  -2.777   1.116  0.00  0.00    -0.296 N 
ATOM     17  C   UNL     1       0.936  -2.563   1.174  0.00  0.00    +0.199 C 
ATOM     18  O   UNL     1       1.517  -2.099   0.216  0.00  0.00    -0.278 OA
BRANCH  16  19
ATOM     19  C   UNL     1      -1.076  -3.450   2.225  0.00  0.00    +0.098 C 
ATOM     20  C   UNL     1      -2.226  -2.562   2.730  0.00  0.00    +0.046 C 
ATOM     21  C   UNL     1      -3.118  -3.416   3.676  0.00  0.00    +0.168 C 
ATOM     22  S   UNL     1      -3.150  -5.013   2.757  0.00  0.00    -0.029 S 
ATOM     23  O   UNL     1      -2.948  -6.079   3.676  0.00  0.00    -0.174 OA
ATOM     24  O   UNL     1      -4.285  -5.033   1.903  0.00  0.00    -0.174 OA
ATOM     25  C   UNL     1      -1.635  -4.808   1.736  0.00  0.00    +0.188 C 
ENDBRANCH  16  19
BRANCH  16  26
ATOM     26  C   UNL     1      -1.156  -2.338  -0.055  0.00  0.00    +0.136 C 
BRANCH  26  27
ATOM     27  C   UNL     1      -1.561  -0.873   0.120  0.00  0.00    +0.178 C 
BRANCH  27  29
ATOM     28  C   UNL     1      -0.661   1.345   0.248  0.00  0.00    +0.194 C 
ATOM     29  O   UNL     1      -0.393  -0.049   0.092  0.00  0.00    -0.381 OA
ENDBRANCH  27  29
ENDBRANCH  26  27
ENDBRANCH  16  26
ENDBRANCH   1  17
TORSDOF 9
