REMARK  Name = ZINC44386995
REMARK  4 active torsions:
REMARK  status: ('A' for Active; 'I' for Inactive)
REMARK    1  A    between atoms: C_4  and  C_7
REMARK    2  A    between atoms: C_4  and  C_9
REMARK    3  A    between atoms: C_14  and  C_17
REMARK    4  A    between atoms: C_17  and  C_18
REMARK                            x       y       z     vdW  Elec       q    Type
REMARK                         _______ _______ _______ _____ _____    ______ ____
ROOT
ATOM      1  C   UNL     1       2.859  -0.454  -2.507  0.00  0.00    +0.236 C 
ATOM      2  O   UNL     1       3.224   0.340  -3.348  0.00  0.00    -0.274 OA
ATOM      3  N   UNL     1       3.087  -1.771  -2.680  0.00  0.00    -0.300 N 
ATOM      4  C   UNL     1       2.554  -2.754  -1.728  0.00  0.00    +0.108 C 
ATOM      5  C   UNL     1       3.706  -3.635  -1.233  0.00  0.00    +0.023 C 
ATOM      6  C   UNL     1       4.426  -4.250  -2.435  0.00  0.00    +0.001 C 
ATOM      7  C   UNL     1       5.010  -3.137  -3.307  0.00  0.00    +0.023 C 
ATOM      8  C   UNL     1       3.869  -2.251  -3.829  0.00  0.00    +0.108 C 
ENDROOT
BRANCH   1  12
ATOM      9  C   UNL     1       0.004   1.565   0.004  0.00  0.00    +0.000 C 
ATOM     10  C   UNL     1       1.453   2.054   0.021  0.00  0.00    +0.002 C 
ATOM     11  C   UNL     1       2.173   1.561  -1.236  0.00  0.00    +0.031 C 
ATOM     12  C   UNL     1       2.150   0.032  -1.269  0.00  0.00    +0.133 C 
ATOM     13  C   UNL     1       0.701  -0.457  -1.286  0.00  0.00    +0.031 C 
ATOM     14  C   UNL     1      -0.019   0.036  -0.029  0.00  0.00    +0.002 C 
BRANCH  12  15
ATOM     15  C   UNL     1       2.832  -0.495  -0.076  0.00  0.00    +0.079 C 
ATOM     16  N   UNL     1       3.358  -0.902   0.846  0.00  0.00    -0.195 NA
ENDBRANCH  12  15
ENDBRANCH   1  12
BRANCH   6  17
ATOM     17  C   UNL     1       5.555  -5.158  -1.943  0.00  0.00    +0.099 C 
BRANCH  17  18
ATOM     18  C   UNL     1       6.184  -5.859  -3.119  0.00  0.00    +0.211 C 
ATOM     19  O   UNL     1       5.771  -5.653  -4.240  0.00  0.00    -0.276 OA
ATOM     20  N   UNL     1       7.207  -6.715  -2.925  0.00  0.00    -0.329 N 
ATOM     21  H   UNL     1       7.538  -6.880  -2.028  0.00  0.00    +0.145 HD
ATOM     22  H   UNL     1       7.612  -7.166  -3.682  0.00  0.00    +0.145 HD
ENDBRANCH  17  18
ENDBRANCH   6  17
TORSDOF 4
