REMARK  Name = ZINC50443418
REMARK  6 active torsions:
REMARK  status: ('A' for Active; 'I' for Inactive)
REMARK    1  A    between atoms: C_1  and  C_2
REMARK    2  A    between atoms: C_3  and  C_17
REMARK    3  A    between atoms: N_5  and  C_8
REMARK    4  A    between atoms: C_6  and  C_7
REMARK    5  A    between atoms: C_8  and  C_9
REMARK    6  A    between atoms: C_14  and  N_15
REMARK                            x       y       z     vdW  Elec       q    Type
REMARK                         _______ _______ _______ _____ _____    ______ ____
ROOT
ATOM      1  C   UNL     1      -1.308  -3.700   1.906  0.00  0.00    -0.005 A 
ATOM      2  C   UNL     1      -1.859  -3.192   3.067  0.00  0.00    +0.008 A 
ATOM      3  C   UNL     1      -3.151  -3.528   3.426  0.00  0.00    +0.020 A 
ATOM      4  C   UNL     1      -3.897  -4.374   2.625  0.00  0.00    +0.043 A 
ATOM      5  C   UNL     1      -3.352  -4.886   1.463  0.00  0.00    +0.043 A 
ATOM      6  C   UNL     1      -2.056  -4.545   1.097  0.00  0.00    +0.031 A 
ATOM      7 CL   UNL     1      -5.519  -4.793   3.080  0.00  0.00    -0.083 Cl
ENDROOT
BRANCH   6   8
ATOM      8  N   UNL     1      -1.504  -5.056  -0.081  0.00  0.00    -0.358 N 
ATOM      9  H   UNL     1      -0.631  -4.754  -0.378  0.00  0.00    +0.142 HD
ATOM     10  H   UNL     1      -1.994  -5.712  -0.601  0.00  0.00    +0.142 HD
ENDBRANCH   6   8
BRANCH   1  11
ATOM     11  C   UNL     1       0.100  -3.333   1.516  0.00  0.00    +0.180 C 
BRANCH  11  16
ATOM     12  C   UNL     1       0.195   1.269  -0.468  0.00  0.00    +0.047 C 
ATOM     13  C   UNL     1       0.108  -0.228  -0.318  0.00  0.00    -0.007 A 
ATOM     14  C   UNL     1      -0.071  -1.151  -1.354  0.00  0.00    +0.063 A 
ATOM     15  N   UNL     1      -0.095  -2.351  -0.833  0.00  0.00    -0.176 NA
ATOM     16  N   UNL     1       0.068  -2.230   0.553  0.00  0.00    -0.264 N 
ATOM     17  C   UNL     1       0.196  -0.918   0.843  0.00  0.00    +0.040 A 
ATOM     18  C   UNL     1       0.397  -0.328   2.215  0.00  0.00    +0.065 C 
ATOM     19  C   UNL     1      -0.212  -0.819  -2.817  0.00  0.00    +0.068 C 
ENDBRANCH  11  16
ENDBRANCH   1  11
TORSDOF 3
