REMARK  Name = ZINC54910489
REMARK  3 active torsions:
REMARK  status: ('A' for Active; 'I' for Inactive)
REMARK    1  A    between atoms: C_1  and  C_2
REMARK    2  A    between atoms: C_2  and  C_20
REMARK    3  A    between atoms: C_16  and  O_19
REMARK                            x       y       z     vdW  Elec       q    Type
REMARK                         _______ _______ _______ _____ _____    ______ ____
ROOT
ATOM      1  C   UNL     1      -0.019   1.526   0.010  0.00  0.00    +0.011 C 
ATOM      2  C   UNL     1       0.002  -0.004   0.002  0.00  0.00    -0.027 C 
ATOM      3  C   UNL     1      -1.435  -0.531  -0.004  0.00  0.00    +0.063 C 
ATOM      4  C   UNL     1      -2.083  -0.194   1.331  0.00  0.00    +0.057 A 
ATOM      5  C   UNL     1      -1.321   0.122   2.409  0.00  0.00    +0.043 A 
ATOM      6  S   UNL     1      -2.533   0.419   3.666  0.00  0.00    -0.054 S 
ATOM      7  C   UNL     1      -3.901   0.119   2.728  0.00  0.00    +0.162 A 
ATOM      8  N   UNL     1      -3.396  -0.181   1.551  0.00  0.00    -0.229 NA
ATOM      9  N   UNL     1      -5.233   0.173   3.106  0.00  0.00    -0.299 N 
ATOM     10  C   UNL     1      -5.626   0.536   4.478  0.00  0.00    +0.126 C 
ATOM     11  C   UNL     1      -6.467   1.812   4.413  0.00  0.00    +0.123 C 
ATOM     12  N   UNL     1      -7.479   1.711   3.370  0.00  0.00    -0.313 N 
ATOM     13  C   UNL     1      -7.413   0.881   2.328  0.00  0.00    +0.230 C 
ATOM     14  O   UNL     1      -8.280   0.944   1.482  0.00  0.00    -0.274 OA
ATOM     15  C   UNL     1      -6.312  -0.123   2.151  0.00  0.00    +0.202 C 
ATOM     16  C   UNL     1       0.166   0.193   2.484  0.00  0.00    +0.153 C 
ATOM     17  C   UNL     1       0.743  -0.509   1.243  0.00  0.00    +0.043 C 
ATOM     18  C   UNL     1       0.725  -0.495  -1.254  0.00  0.00    +0.011 C 
ATOM     19  H   UNL     1      -8.257   2.287   3.439  0.00  0.00    +0.149 HD
ENDROOT
BRANCH  16  20
ATOM     20  O   UNL     1       0.621  -0.468   3.667  0.00  0.00    -0.387 OA
ATOM     21  H   UNL     1       0.278  -0.088   4.487  0.00  0.00    +0.210 HD
ENDBRANCH  16  20
TORSDOF 1
