REMARK  Name = ZINC19909567
REMARK  6 active torsions:
REMARK  status: ('A' for Active; 'I' for Inactive)
REMARK    1  A    between atoms: C_1  and  C_2
REMARK    2  A    between atoms: C_6  and  C_9
REMARK    3  A    between atoms: C_7  and  O_8
REMARK    4  A    between atoms: C_14  and  C_20
REMARK    5  A    between atoms: C_17  and  C_18
REMARK    6  A    between atoms: C_17  and  O_19
REMARK                            x       y       z     vdW  Elec       q    Type
REMARK                         _______ _______ _______ _____ _____    ______ ____
ROOT
ATOM      1  C   UNL     1       2.734   4.117  -4.323  0.00  0.00    +0.047 C 
ATOM      2  C   UNL     1       1.746   3.927  -3.200  0.00  0.00    -0.008 A 
ATOM      3  C   UNL     1       2.020   3.020  -2.186  0.00  0.00    +0.012 A 
ATOM      4  C   UNL     1       1.118   2.853  -1.189  0.00  0.00    -0.026 A 
ATOM      5  C   UNL     1      -0.076   3.594  -1.164  0.00  0.00    -0.027 A 
ATOM      6  C   UNL     1      -0.354   4.491  -2.155  0.00  0.00    -0.005 A 
ATOM      7  C   UNL     1       0.569   4.660  -3.186  0.00  0.00    +0.123 A 
ATOM      8  C   UNL     1      -1.635   5.285  -2.134  0.00  0.00    +0.048 C 
ATOM      9  C   UNL     1      -0.982   3.296   0.017  0.00  0.00    +0.081 C 
ATOM     10  C   UNL     1      -1.143   1.776   0.017  0.00  0.00    -0.019 C 
ATOM     11  C   UNL     1      -0.013   1.076   0.008  0.00  0.00    -0.012 C 
ATOM     12  C   UNL     1       1.268   1.917   0.000  0.00  0.00    +0.072 C 
ATOM     13  C   UNL     1       1.116   2.823   1.230  0.00  0.00    +0.179 C 
ATOM     14  O   UNL     1       1.958   2.884   2.094  0.00  0.00    -0.293 OA
ATOM     15  C   UNL     1      -0.167   3.637   1.288  0.00  0.00    +0.132 C 
ATOM     16  C   UNL     1      -0.967   3.261   2.537  0.00  0.00    +0.050 C 
ATOM     17  C   UNL     1       2.557   1.093  -0.014  0.00  0.00    +0.028 C 
ENDROOT
BRANCH   7  18
ATOM     18  O   UNL     1       0.313   5.548  -4.183  0.00  0.00    -0.506 OA
ATOM     19  H   UNL     1      -0.620   6.131  -4.174  0.00  0.00    +0.292 HD
ENDBRANCH   7  18
BRANCH  15  20
ATOM     20  O   UNL     1       0.143   5.032   1.310  0.00  0.00    -0.380 OA
ATOM     21  H   UNL     1       0.721   5.454   2.146  0.00  0.00    +0.211 HD
ENDBRANCH  15  20
TORSDOF 2
