REMARK  Name = ZINC08273088
REMARK  10 active torsions:
REMARK  status: ('A' for Active; 'I' for Inactive)
REMARK    1  A    between atoms: C_1  and  C_2
REMARK    2  A    between atoms: N_10  and  C_14
REMARK    3  A    between atoms: C_14  and  C_15
REMARK    4  A    between atoms: N_17  and  C_18
REMARK    5  A    between atoms: N_17  and  C_19
REMARK    6  A    between atoms: C_19  and  C_20
REMARK    7  A    between atoms: N_22  and  C_23
REMARK    8  A    between atoms: C_23  and  C_24
REMARK    9  A    between atoms: C_23  and  C_25
REMARK   10  A    between atoms: C_23  and  C_26
REMARK                            x       y       z     vdW  Elec       q    Type
REMARK                         _______ _______ _______ _____ _____    ______ ____
ROOT
ATOM      1  C   UNL     1      -7.322  -3.324   0.598  0.00  0.00    +0.007 C 
ATOM      2  C   UNL     1      -6.237  -2.376   1.111  0.00  0.00    -0.014 C 
ATOM      3  C   UNL     1      -4.872  -2.836   0.594  0.00  0.00    +0.006 C 
ATOM      4  C   UNL     1      -3.785  -1.893   1.119  0.00  0.00    +0.035 C 
ATOM      5  C   UNL     1      -4.072  -0.471   0.650  0.00  0.00    +0.113 C 
ATOM      6  C   UNL     1      -5.441  -0.008   1.137  0.00  0.00    +0.035 C 
ATOM      7  C   UNL     1      -6.521  -0.958   0.613  0.00  0.00    +0.006 C 
ATOM      8  C   UNL     1      -2.994   0.471   1.135  0.00  0.00    +0.247 C 
ATOM      9  O   UNL     1      -2.699   0.718   2.284  0.00  0.00    -0.273 OA
ATOM     10  N   UNL     1      -2.430   0.977   0.019  0.00  0.00    -0.215 N 
ATOM     11  C   UNL     1      -3.004   0.491  -1.088  0.00  0.00    +0.310 C 
ATOM     12  O   UNL     1      -2.671   0.802  -2.215  0.00  0.00    -0.252 OA
ATOM     13  N   UNL     1      -3.990  -0.385  -0.814  0.00  0.00    -0.285 N 
ATOM     14  H   UNL     1      -4.540  -0.860  -1.456  0.00  0.00    +0.151 HD
ENDROOT
BRANCH  10  15
ATOM     15  C   UNL     1      -1.330   1.944   0.019  0.00  0.00    +0.213 C 
BRANCH  15  16
ATOM     16  C   UNL     1      -0.014   1.209   0.009  0.00  0.00    +0.234 C 
ATOM     17  O   UNL     1       0.002  -0.004   0.002  0.00  0.00    -0.274 OA
ATOM     18  N   UNL     1       1.143   1.898   0.001  0.00  0.00    -0.294 N 
ATOM     19  C   UNL     1       1.124   3.363   0.009  0.00  0.00    +0.132 C 
BRANCH  18  20
ATOM     20  C   UNL     1       2.422   1.183  -0.015  0.00  0.00    +0.203 C 
BRANCH  20  21
ATOM     21  C   UNL     1       2.847   0.946  -1.441  0.00  0.00    +0.231 C 
ATOM     22  O   UNL     1       2.150   1.335  -2.354  0.00  0.00    -0.274 OA
ATOM     23  N   UNL     1       4.001   0.300  -1.702  0.00  0.00    -0.309 N 
ATOM     24  H   UNL     1       4.558  -0.012  -0.971  0.00  0.00    +0.149 HD
BRANCH  23  25
ATOM     25  C   UNL     1       4.414   0.069  -3.088  0.00  0.00    +0.026 C 
ATOM     26  C   UNL     1       4.572   1.412  -3.804  0.00  0.00    +0.031 C 
ATOM     27  C   UNL     1       5.749  -0.678  -3.105  0.00  0.00    +0.031 C 
ATOM     28  C   UNL     1       3.352  -0.768  -3.804  0.00  0.00    +0.031 C 
ENDBRANCH  23  25
ENDBRANCH  20  21
ENDBRANCH  18  20
ENDBRANCH  15  16
ENDBRANCH  10  15
TORSDOF 5
