REMARK  Name = ZINC42196606
REMARK  9 active torsions:
REMARK  status: ('A' for Active; 'I' for Inactive)
REMARK    1  A    between atoms: C_1  and  C_2
REMARK    2  A    between atoms: C_2  and  C_4
REMARK    3  A    between atoms: C_2  and  S_11
REMARK    4  A    between atoms: N_6  and  C_7
REMARK    5  A    between atoms: C_7  and  C_8
REMARK    6  A    between atoms: C_8  and  C_9
REMARK    7  A    between atoms: C_8  and  C_10
REMARK    8  A    between atoms: S_11  and  C_13
REMARK    9  A    between atoms: C_17  and  N_22
REMARK                            x       y       z     vdW  Elec       q    Type
REMARK                         _______ _______ _______ _____ _____    ______ ____
ROOT
ATOM      1  S   UNL     1      -1.700  -0.632   0.015  0.00  0.00    +0.121 S 
ATOM      2  O   UNL     1      -2.416  -0.081  -1.081  0.00  0.00    -0.247 OA
ENDROOT
BRANCH   1   3
ATOM      3  C   UNL     1      -2.426   0.133   1.427  0.00  0.00    +0.289 A 
ATOM      4  N   UNL     1      -3.044   1.276   1.416  0.00  0.00    -0.201 NA
ATOM      5  C   UNL     1      -3.473   1.554   2.677  0.00  0.00    +0.112 A 
ATOM      6  C   UNL     1      -4.175   2.618   3.244  0.00  0.00    +0.054 A 
ATOM      7  C   UNL     1      -4.464   2.604   4.597  0.00  0.00    +0.027 A 
ATOM      8  C   UNL     1      -4.057   1.534   5.391  0.00  0.00    +0.026 A 
ATOM      9  C   UNL     1      -3.363   0.480   4.838  0.00  0.00    +0.050 A 
ATOM     10  C   UNL     1      -3.066   0.480   3.483  0.00  0.00    +0.156 A 
ATOM     11  O   UNL     1      -2.424  -0.384   2.665  0.00  0.00    -0.429 OA
BRANCH   7  12
ATOM     12  N   UNL     1      -5.168   3.669   5.170  0.00  0.00    -0.358 N 
ATOM     13  H   UNL     1      -5.452   4.415   4.619  0.00  0.00    +0.142 HD
ATOM     14  H   UNL     1      -5.372   3.661   6.118  0.00  0.00    +0.142 HD
ENDBRANCH   7  12
ENDBRANCH   1   3
BRANCH   1  16
ATOM     15  C   UNL     1      -0.019   1.526   0.010  0.00  0.00    +0.032 C 
ATOM     16  C   UNL     1       0.002  -0.004   0.002  0.00  0.00    +0.170 C 
BRANCH  16  17
ATOM     17  C   UNL     1       0.707  -0.490  -1.238  0.00  0.00    +0.229 C 
ATOM     18  O   UNL     1       0.066  -0.782  -2.225  0.00  0.00    -0.275 OA
ATOM     19  N   UNL     1       2.051  -0.601  -1.250  0.00  0.00    -0.314 N 
ATOM     20  H   UNL     1       2.563  -0.367  -0.460  0.00  0.00    +0.149 HD
BRANCH  19  21
ATOM     21  C   UNL     1       2.736  -1.073  -2.455  0.00  0.00    +0.107 C 
BRANCH  21  22
ATOM     22  C   UNL     1       4.245  -1.105  -2.204  0.00  0.00    -0.000 C 
ATOM     23  C   UNL     1       4.951  -1.715  -3.416  0.00  0.00    +0.009 C 
ATOM     24  C   UNL     1       4.756   0.320  -1.980  0.00  0.00    +0.009 C 
ENDBRANCH  21  22
ENDBRANCH  19  21
ENDBRANCH  16  17
ENDBRANCH   1  16
TORSDOF 6
