REMARK  Name = ZINC09937097
REMARK  1 active torsions:
REMARK  status: ('A' for Active; 'I' for Inactive)
REMARK    1  A    between atoms: C_4  and  C_7
REMARK                            x       y       z     vdW  Elec       q    Type
REMARK                         _______ _______ _______ _____ _____    ______ ____
ROOT
ATOM      1  C   UNL     1       2.135   0.663   0.618  0.00  0.00    +0.128 C 
ATOM      2  C   UNL     1       1.476   1.909  -0.002  0.00  0.00    +0.060 C 
ATOM      3  C   UNL     1      -0.018   1.509   0.010  0.00  0.00    +0.100 C 
ATOM      4  C   UNL     1       0.002  -0.004   0.002  0.00  0.00    +0.218 C 
ATOM      5  O   UNL     1      -0.949  -0.709  -0.261  0.00  0.00    -0.276 OA
ATOM      6  N   UNL     1       1.227  -0.455   0.329  0.00  0.00    -0.272 N 
ATOM      7  C   UNL     1       1.636  -1.865   0.359  0.00  0.00    +0.147 C 
ATOM      8  C   UNL     1       3.038  -1.993  -0.156  0.00  0.00    -0.009 A 
ATOM      9  C   UNL     1       3.506  -3.251  -0.498  0.00  0.00    +0.007 A 
ATOM     10  C   UNL     1       4.776  -3.406  -1.016  0.00  0.00    +0.000 A 
ATOM     11  C   UNL     1       5.588  -2.301  -1.196  0.00  0.00    +0.002 A 
ATOM     12  C   UNL     1       5.131  -1.047  -0.852  0.00  0.00    +0.023 A 
ATOM     13  C   UNL     1       3.852  -0.885  -0.321  0.00  0.00    +0.034 A 
ATOM     14  N   UNL     1       3.439   0.401   0.025  0.00  0.00    -0.319 N 
ATOM     15  H   UNL     1       4.040   1.145  -0.133  0.00  0.00    +0.148 HD
ENDROOT
BRANCH   1  19
ATOM     16  C   UNL     1       2.528   1.168   4.841  0.00  0.00    +0.000 A 
ATOM     17  C   UNL     1       3.576   1.504   4.005  0.00  0.00    +0.000 A 
ATOM     18  C   UNL     1       3.449   1.340   2.638  0.00  0.00    +0.007 A 
ATOM     19  C   UNL     1       2.274   0.841   2.108  0.00  0.00    -0.006 A 
ATOM     20  C   UNL     1       1.224   0.511   2.944  0.00  0.00    +0.007 A 
ATOM     21  C   UNL     1       1.353   0.670   4.311  0.00  0.00    +0.000 A 
ENDBRANCH   1  19
TORSDOF 1
