REMARK  Name = ZINC39381113
REMARK  4 active torsions:
REMARK  status: ('A' for Active; 'I' for Inactive)
REMARK    1  A    between atoms: C_1  and  C_2
REMARK    2  A    between atoms: C_2  and  C_19
REMARK    3  A    between atoms: C_8  and  N_12
REMARK    4  A    between atoms: N_12  and  N_13
REMARK                            x       y       z     vdW  Elec       q    Type
REMARK                         _______ _______ _______ _____ _____    ______ ____
ROOT
ATOM      1  C   UNL     1      -0.019   1.526   0.010  0.00  0.00    +0.041 C 
ATOM      2  C   UNL     1       0.002  -0.004   0.002  0.00  0.00    +0.068 C 
ATOM      3  C   UNL     1      -1.442  -0.532  -0.013  0.00  0.00    +0.067 C 
ATOM      4  C   UNL     1      -2.021  -0.214   1.364  0.00  0.00    -0.037 C 
ATOM      5  C   UNL     1      -3.162   0.428   1.591  0.00  0.00    +0.071 C 
ATOM      6  C   UNL     1      -3.461   0.857   2.985  0.00  0.00    +0.113 C 
ATOM      7  N   UNL     1      -4.534   1.540   3.296  0.00  0.00    -0.210 NA
ATOM      8  C   UNL     1      -5.384   1.849   2.305  0.00  0.00    +0.211 C 
ATOM      9  N   UNL     1      -5.223   1.523   1.039  0.00  0.00    -0.143 NA
ATOM     10  C   UNL     1      -4.177   0.834   0.560  0.00  0.00    +0.273 C 
ATOM     11  O   UNL     1      -4.057   0.559  -0.623  0.00  0.00    -0.268 OA
ATOM     12  S   UNL     1      -2.117   0.234   3.945  0.00  0.00    -0.095 S 
ATOM     13  C   UNL     1      -1.218  -0.630   2.601  0.00  0.00    +0.105 C 
ATOM     14  C   UNL     1       0.179  -0.030   2.420  0.00  0.00    +0.179 C 
ATOM     15  O   UNL     1       0.692  -0.472   1.158  0.00  0.00    -0.372 OA
ATOM     16  C   UNL     1       0.728  -0.493  -1.253  0.00  0.00    +0.041 C 
ENDROOT
BRANCH   8  17
ATOM     17  N   UNL     1      -6.512   2.561   2.638  0.00  0.00    -0.280 NA
BRANCH  17  18
ATOM     18  N   UNL     1      -7.413   2.904   1.671  0.00  0.00    +0.405 N 
ATOM     19  H   UNL     1      -6.959   3.477   0.976  0.00  0.00    -0.057 HD
ATOM     20  H   UNL     1      -7.773   2.068   1.235  0.00  0.00    -0.057 HD
ATOM     21  H   UNL     1      -8.174   3.420   2.087  0.00  0.00    -0.057 HD
ENDBRANCH  17  18
ENDBRANCH   8  17
TORSDOF 2
