REMARK  Name = ZINC52833477
REMARK  3 active torsions:
REMARK  status: ('A' for Active; 'I' for Inactive)
REMARK    1  A    between atoms: C_1  and  C_2
REMARK    2  A    between atoms: C_7  and  N_8
REMARK    3  A    between atoms: N_10  and  O_11
REMARK                            x       y       z     vdW  Elec       q    Type
REMARK                         _______ _______ _______ _____ _____    ______ ____
ROOT
ATOM      1  N   UNL     1       0.030  -0.017   2.418  0.00  0.00    -0.324 N 
ATOM      2  C   UNL     1      -0.648  -0.532   3.506  0.00  0.00    +0.236 C 
ATOM      3  N   UNL     1      -1.206  -1.704   3.429  0.00  0.00    -0.050 NA
ATOM      4  N   UNL     1      -0.733   0.197   4.675  0.00  0.00    -0.367 N 
ATOM      5  H   UNL     1       0.365   0.893   2.442  0.00  0.00    +0.169 HD
ATOM      6  H   UNL     1      -0.383   1.102   4.709  0.00  0.00    +0.159 HD
ATOM      7  H   UNL     1      -1.142  -0.194   5.462  0.00  0.00    +0.159 HD
ENDROOT
BRANCH   1  14
ATOM      8  C   UNL     1       0.275   1.287  -0.099  0.00  0.00    +0.046 C 
ATOM      9  C   UNL     1       0.358  -0.212   0.034  0.00  0.00    -0.026 A 
ATOM     10  C   UNL     1       0.564  -0.994  -1.086  0.00  0.00    +0.020 A 
ATOM     11  C   UNL     1       0.639  -2.370  -0.965  0.00  0.00    +0.018 A 
ATOM     12  C   UNL     1       0.509  -2.967   0.277  0.00  0.00    +0.017 A 
ATOM     13  C   UNL     1       0.302  -2.189   1.399  0.00  0.00    +0.027 A 
ATOM     14  C   UNL     1       0.232  -0.807   1.282  0.00  0.00    +0.045 A 
ATOM     15 BR   UNL     1       0.921  -3.438  -2.500  0.00  0.00    -0.050 Br
ENDBRANCH   1  14
BRANCH   3  16
ATOM     16  O   UNL     1      -1.901  -2.232   4.544  0.00  0.00    -0.406 OA
ATOM     17  H   UNL     1      -2.281  -3.108   4.392  0.00  0.00    +0.328 HD
ENDBRANCH   3  16
TORSDOF 2
