REMARK  Name = ZINC39446763
REMARK  4 active torsions:
REMARK  status: ('A' for Active; 'I' for Inactive)
REMARK    1  A    between atoms: C_1  and  C_2
REMARK    2  A    between atoms: C_4  and  C_15
REMARK    3  A    between atoms: N_7  and  C_8
REMARK    4  A    between atoms: C_15  and  N_17
REMARK                            x       y       z     vdW  Elec       q    Type
REMARK                         _______ _______ _______ _____ _____    ______ ____
ROOT
ATOM      1  C   UNL     1      -0.625   1.496  -0.098  0.00  0.00    +0.082 C 
ATOM      2  C   UNL     1      -0.108   0.080  -0.110  0.00  0.00    +0.088 C 
ATOM      3  N   UNL     1      -0.240  -0.723  -1.109  0.00  0.00    -0.352 N 
ATOM      4  C   UNL     1       0.387  -2.002  -0.745  0.00  0.00    +0.256 C 
ATOM      5  N   UNL     1       0.894  -1.783   0.626  0.00  0.00    -0.204 NA
ATOM      6  N   UNL     1       0.557  -0.494   0.933  0.00  0.00    -0.222 N 
ATOM      7  H   UNL     1       1.894  -1.911   0.666  0.00  0.00    +0.148 HD
ATOM      8  H   UNL     1      -0.677  -0.520  -1.951  0.00  0.00    +0.163 HD
ENDROOT
BRANCH   6   9
ATOM      9  C   UNL     1       0.849   0.143   2.144  0.00  0.00    +0.051 A 
ATOM     10  C   UNL     1       0.556  -0.484   3.348  0.00  0.00    +0.026 A 
ATOM     11  C   UNL     1       0.846   0.147   4.542  0.00  0.00    +0.022 A 
ATOM     12  C   UNL     1       1.426   1.403   4.540  0.00  0.00    +0.041 A 
ATOM     13  C   UNL     1       1.718   2.030   3.341  0.00  0.00    +0.022 A 
ATOM     14  C   UNL     1       1.436   1.402   2.144  0.00  0.00    +0.026 A 
ATOM     15 CL   UNL     1       1.788   2.193   6.042  0.00  0.00    -0.084 Cl
ENDBRANCH   6   9
BRANCH   4  16
ATOM     16  C   UNL     1      -0.631  -3.112  -0.761  0.00  0.00    +0.278 C 
ATOM     17  O   UNL     1      -1.078  -3.544   0.284  0.00  0.00    -0.270 OA
BRANCH  16  18
ATOM     18  N   UNL     1      -1.042  -3.620  -1.919  0.00  0.00    -0.144 NA
ATOM     19  C   UNL     1      -2.016  -4.526  -1.941  0.00  0.00    +0.199 A 
ATOM     20  N   UNL     1      -2.586  -5.095  -0.846  0.00  0.00    -0.326 N 
ATOM     21  H   UNL     1      -2.352  -4.910   0.077  0.00  0.00    +0.169 HD
ATOM     22  C   UNL     1      -3.563  -5.987  -1.276  0.00  0.00    +0.065 A 
ATOM     23  C   UNL     1      -4.441  -6.826  -0.606  0.00  0.00    +0.028 A 
ATOM     24  C   UNL     1      -5.319  -7.615  -1.321  0.00  0.00    +0.002 A 
ATOM     25  C   UNL     1      -5.328  -7.574  -2.705  0.00  0.00    +0.002 A 
ATOM     26  C   UNL     1      -4.458  -6.742  -3.382  0.00  0.00    +0.028 A 
ATOM     27  C   UNL     1      -3.571  -5.944  -2.673  0.00  0.00    +0.065 A 
ATOM     28  N   UNL     1      -2.603  -5.024  -3.061  0.00  0.00    -0.326 N 
ATOM     29  H   UNL     1      -2.383  -4.781  -3.974  0.00  0.00    +0.169 HD
ENDBRANCH  16  18
ENDBRANCH   4  16
TORSDOF 3
