REMARK  Name = ZINC43378813
REMARK  7 active torsions:
REMARK  status: ('A' for Active; 'I' for Inactive)
REMARK    1  A    between atoms: C_1  and  C_2
REMARK    2  A    between atoms: C_6  and  C_20
REMARK    3  A    between atoms: N_9  and  C_10
REMARK    4  A    between atoms: C_10  and  C_12
REMARK    5  A    between atoms: C_10  and  C_16
REMARK    6  A    between atoms: C_12  and  C_14
REMARK    7  A    between atoms: C_12  and  N_15
REMARK                            x       y       z     vdW  Elec       q    Type
REMARK                         _______ _______ _______ _____ _____    ______ ____
ROOT
ATOM      1  C   UNL     1       0.043   1.922   0.379  0.00  0.00    +0.024 C 
ATOM      2  C   UNL     1       0.065   0.452  -0.047  0.00  0.00    +0.054 C 
ATOM      3  C   UNL     1      -1.368  -0.037  -0.267  0.00  0.00    +0.019 C 
ATOM      4  C   UNL     1      -1.342  -1.513  -0.673  0.00  0.00    +0.015 C 
ATOM      5  C   UNL     1      -0.630  -2.321   0.415  0.00  0.00    +0.089 C 
ATOM      6  C   UNL     1       0.782  -1.766   0.615  0.00  0.00    +0.098 C 
ATOM      7  N   UNL     1       0.702  -0.352   1.004  0.00  0.00    -0.290 NA
ENDROOT
BRANCH   5   8
ATOM      8  C   UNL     1      -1.401  -2.215   1.706  0.00  0.00    +0.215 C 
ATOM      9  O   UNL     1      -0.873  -1.745   2.691  0.00  0.00    -0.276 OA
ATOM     10  N   UNL     1      -2.678  -2.643   1.765  0.00  0.00    -0.329 N 
ATOM     11  H   UNL     1      -3.100  -3.019   0.977  0.00  0.00    +0.145 HD
ATOM     12  H   UNL     1      -3.174  -2.575   2.596  0.00  0.00    +0.145 HD
ENDBRANCH   5   8
BRANCH   7  13
ATOM     13  C   UNL     1       2.031   0.177   1.339  0.00  0.00    +0.147 C 
BRANCH  13  14
ATOM     14  C   UNL     1       3.007  -0.141   0.204  0.00  0.00    +0.404 C 
ATOM     15  F   UNL     1       2.483   0.324  -1.006  0.00  0.00    -0.169 F 
ATOM     16  F   UNL     1       4.232   0.487   0.454  0.00  0.00    -0.169 F 
ATOM     17  F   UNL     1       3.200  -1.524   0.129  0.00  0.00    -0.169 F 
ENDBRANCH  13  14
BRANCH  13  18
ATOM     18  C   UNL     1       2.526  -0.470   2.634  0.00  0.00    -0.052 C 
ATOM     19  C   UNL     1       3.893   0.108   3.003  0.00  0.00    -0.012 C 
BRANCH  18  20
ATOM     20  N   UNL     1       1.570  -0.195   3.715  0.00  0.00    +0.381 N 
ATOM     21  H   UNL     1       0.696  -0.660   3.517  0.00  0.00    -0.090 HD
ATOM     22  H   UNL     1       1.942  -0.537   4.588  0.00  0.00    -0.090 HD
ATOM     23  H   UNL     1       1.415   0.799   3.782  0.00  0.00    -0.090 HD
ENDBRANCH  18  20
ENDBRANCH  13  18
ENDBRANCH   7  13
TORSDOF 5
