REMARK  Name = ZINC67459162
REMARK  6 active torsions:
REMARK  status: ('A' for Active; 'I' for Inactive)
REMARK    1  A    between atoms: C_1  and  O_2
REMARK    2  A    between atoms: O_2  and  C_3
REMARK    3  A    between atoms: C_8  and  C_9
REMARK    4  A    between atoms: N_11  and  N_12
REMARK    5  A    between atoms: N_15  and  C_16
REMARK    6  A    between atoms: C_16  and  C_17
REMARK                            x       y       z     vdW  Elec       q    Type
REMARK                         _______ _______ _______ _____ _____    ______ ____
ROOT
ATOM      1  N   UNL     1      -0.459  -4.947  -0.920  0.00  0.00    -0.218 N 
ATOM      2  C   UNL     1      -0.401  -6.293  -0.860  0.00  0.00    +0.316 C 
ATOM      3  O   UNL     1      -0.908  -6.963  -1.738  0.00  0.00    -0.251 OA
ATOM      4  N   UNL     1       0.220  -6.894   0.175  0.00  0.00    -0.294 N 
ATOM      5  H   UNL     1      -0.905  -4.514  -1.664  0.00  0.00    +0.174 HD
ATOM      6  H   UNL     1       0.624  -6.360   0.875  0.00  0.00    +0.151 HD
ENDROOT
BRANCH   1   9
ATOM      7  C   UNL     1       0.067  -2.830   0.032  0.00  0.00    +0.264 C 
ATOM      8  O   UNL     1      -0.492  -2.287  -0.901  0.00  0.00    -0.269 OA
ATOM      9  N   UNL     1       0.126  -4.175   0.092  0.00  0.00    -0.229 N 
ATOM     10  H   UNL     1       0.572  -4.608   0.837  0.00  0.00    +0.173 HD
BRANCH   7  16
ATOM     11  C   UNL     1       0.625  -0.617   1.040  0.00  0.00    +0.132 A 
ATOM     12  C   UNL     1       1.202   0.138   2.050  0.00  0.00    +0.046 A 
ATOM     13  C   UNL     1       1.835  -0.488   3.106  0.00  0.00    +0.004 A 
ATOM     14  C   UNL     1       1.899  -1.871   3.164  0.00  0.00    +0.001 A 
ATOM     15  C   UNL     1       1.331  -2.636   2.169  0.00  0.00    +0.017 A 
ATOM     16  C   UNL     1       0.683  -2.016   1.098  0.00  0.00    +0.080 A 
BRANCH  11  18
ATOM     17  C   UNL     1      -0.017   1.425   0.010  0.00  0.00    +0.277 C 
ATOM     18  O   UNL     1       0.002  -0.004   0.002  0.00  0.00    -0.494 OA
ENDBRANCH  11  18
ENDBRANCH   7  16
ENDBRANCH   1   9
BRANCH   4  19
ATOM     19  C   UNL     1       0.283  -8.357   0.240  0.00  0.00    +0.141 C 
BRANCH  19  20
ATOM     20  C   UNL     1       1.024  -8.772   1.485  0.00  0.00    -0.027 A 
ATOM     21  C   UNL     1       2.396  -8.940   1.448  0.00  0.00    +0.043 A 
ATOM     22  C   UNL     1       3.077  -9.322   2.591  0.00  0.00    +0.125 A 
ATOM     23  C   UNL     1       2.384  -9.535   3.771  0.00  0.00    +0.053 A 
ATOM     24  C   UNL     1       1.012  -9.367   3.805  0.00  0.00    +0.021 A 
ATOM     25  C   UNL     1       0.333  -8.980   2.663  0.00  0.00    +0.020 A 
ATOM     26 BR   UNL     1       0.064  -9.658   5.415  0.00  0.00    -0.050 Br
ATOM     27  F   UNL     1       4.418  -9.486   2.556  0.00  0.00    -0.205 F 
ENDBRANCH  19  20
ENDBRANCH   4  19
TORSDOF 5
