REMARK  Name = ZINC40365397
REMARK  3 active torsions:
REMARK  status: ('A' for Active; 'I' for Inactive)
REMARK    1  A    between atoms: C_4  and  C_7
REMARK    2  A    between atoms: C_4  and  N_10
REMARK    3  A    between atoms: C_7  and  N_9
REMARK                            x       y       z     vdW  Elec       q    Type
REMARK                         _______ _______ _______ _____ _____    ______ ____
ROOT
ATOM      1  N   UNL     1       2.859  -0.503   0.045  0.00  0.00    -0.230 N 
ATOM      2  C   UNL     1       3.460   0.365  -0.782  0.00  0.00    +0.223 C 
ATOM      3  O   UNL     1       3.436   1.549  -0.521  0.00  0.00    -0.275 OA
ATOM      4  C   UNL     1       4.163  -0.102  -2.029  0.00  0.00    +0.103 C 
ATOM      5  C   UNL     1       4.678  -1.525  -1.813  0.00  0.00    -0.013 C 
ATOM      6  C   UNL     1       5.785  -1.531  -0.750  0.00  0.00    +0.008 C 
ATOM      7  C   UNL     1       7.052  -2.076  -1.441  0.00  0.00    +0.001 C 
ATOM      8  C   UNL     1       6.817  -1.790  -2.946  0.00  0.00    +0.001 C 
ATOM      9  C   UNL     1       5.301  -2.061  -3.114  0.00  0.00    +0.008 C 
ATOM     10  C   UNL     1       3.524  -2.426  -1.377  0.00  0.00    +0.103 C 
ATOM     11  C   UNL     1       2.861  -1.827  -0.164  0.00  0.00    +0.223 C 
ATOM     12  O   UNL     1       2.314  -2.557   0.635  0.00  0.00    -0.275 OA
ENDROOT
BRANCH   1  16
ATOM     13  C   UNL     1      -0.611  -0.218   0.362  0.00  0.00    +0.000 C 
ATOM     14  C   UNL     1       0.315   0.859  -0.207  0.00  0.00    +0.002 C 
ATOM     15  C   UNL     1       1.352   1.248   0.848  0.00  0.00    +0.033 C 
ATOM     16  C   UNL     1       2.176   0.018   1.232  0.00  0.00    +0.089 C 
ATOM     17  C   UNL     1       1.250  -1.059   1.801  0.00  0.00    +0.033 C 
ATOM     18  C   UNL     1       0.213  -1.449   0.746  0.00  0.00    +0.002 C 
BRANCH  16  19
ATOM     19  C   UNL     1       3.198   0.402   2.271  0.00  0.00    +0.071 C 
ATOM     20  S   UNL     1       3.172   1.865   2.915  0.00  0.00    -0.038 S 
BRANCH  19  21
ATOM     21  N   UNL     1       4.133  -0.488   2.658  0.00  0.00    -0.354 N 
ATOM     22  H   UNL     1       4.195  -1.349   2.216  0.00  0.00    +0.143 HD
ATOM     23  H   UNL     1       4.744  -0.268   3.379  0.00  0.00    +0.143 HD
ENDBRANCH  19  21
ENDBRANCH  16  19
ENDBRANCH   1  16
TORSDOF 3
