REMARK  Name = ZINC61692306
REMARK  4 active torsions:
REMARK  status: ('A' for Active; 'I' for Inactive)
REMARK    1  A    between atoms: C_1  and  C_2
REMARK    2  A    between atoms: C_3  and  C_20
REMARK    3  A    between atoms: N_4  and  C_12
REMARK    4  A    between atoms: C_7  and  N_11
REMARK                            x       y       z     vdW  Elec       q    Type
REMARK                         _______ _______ _______ _____ _____    ______ ____
ROOT
ATOM      1  C   UNL     1      -0.018   1.503   0.010  0.00  0.00    +0.046 C 
ATOM      2  C   UNL     1       0.002  -0.004   0.002  0.00  0.00    -0.017 A 
ATOM      3  C   UNL     1       0.008  -0.798  -1.081  0.00  0.00    +0.026 A 
ATOM      4  N   UNL     1       0.029  -2.115  -0.692  0.00  0.00    -0.296 N 
ATOM      5  C   UNL     1       0.036  -2.198   0.675  0.00  0.00    +0.151 A 
ATOM      6  C   UNL     1       0.026  -0.881   1.171  0.00  0.00    +0.062 A 
ATOM      7  C   UNL     1       0.036  -0.686   2.561  0.00  0.00    +0.129 A 
ATOM      8  N   UNL     1       0.059  -1.757   3.349  0.00  0.00    -0.220 NA
ATOM      9  C   UNL     1       0.071  -2.976   2.840  0.00  0.00    +0.225 A 
ATOM     10  N   UNL     1       0.054  -3.206   1.545  0.00  0.00    -0.217 NA
ATOM     11  C   UNL     1      -0.006  -0.317  -2.509  0.00  0.00    +0.064 C 
ENDROOT
BRANCH   4  12
ATOM     12  C   UNL     1       0.040  -3.211  -1.565  0.00  0.00    +0.068 A 
ATOM     13  C   UNL     1       1.247  -3.742  -2.000  0.00  0.00    +0.043 A 
ATOM     14  C   UNL     1       1.255  -4.823  -2.860  0.00  0.00    +0.020 A 
ATOM     15  C   UNL     1       0.061  -5.377  -3.289  0.00  0.00    +0.017 A 
ATOM     16  C   UNL     1      -1.143  -4.851  -2.858  0.00  0.00    +0.023 A 
ATOM     17  C   UNL     1      -1.157  -3.772  -1.993  0.00  0.00    +0.065 A 
ATOM     18 CL   UNL     1      -2.669  -3.117  -1.447  0.00  0.00    -0.081 Cl
ATOM     19 BR   UNL     1       2.898  -5.547  -3.452  0.00  0.00    -0.050 Br
ENDBRANCH   4  12
BRANCH   7  20
ATOM     20  N   UNL     1       0.024   0.589   3.097  0.00  0.00    -0.343 N 
ATOM     21  H   UNL     1       0.007   1.362   2.511  0.00  0.00    +0.144 HD
ATOM     22  H   UNL     1       0.031   0.711   4.059  0.00  0.00    +0.144 HD
ENDBRANCH   7  20
TORSDOF 2
