REMARK  Name = ZINC34964169
REMARK  5 active torsions:
REMARK  status: ('A' for Active; 'I' for Inactive)
REMARK    1  A    between atoms: C_1  and  C_2
REMARK    2  A    between atoms: C_5  and  O_8
REMARK    3  A    between atoms: O_8  and  C_9
REMARK    4  A    between atoms: C_9  and  C_10
REMARK    5  A    between atoms: C_12  and  N_20
REMARK                            x       y       z     vdW  Elec       q    Type
REMARK                         _______ _______ _______ _____ _____    ______ ____
ROOT
ATOM      1  C   UNL     1      -0.614  -6.089   2.411  0.00  0.00    +0.022 A 
ATOM      2  C   UNL     1      -0.612  -6.675   1.161  0.00  0.00    +0.032 A 
ATOM      3  C   UNL     1      -0.594  -8.058   1.043  0.00  0.00    +0.025 A 
ATOM      4  C   UNL     1      -0.580  -8.850   2.184  0.00  0.00    +0.032 A 
ATOM      5  C   UNL     1      -0.583  -8.262   3.434  0.00  0.00    +0.022 A 
ATOM      6  C   UNL     1      -0.592  -6.881   3.551  0.00  0.00    +0.134 A 
ATOM      7  O   UNL     1      -0.580  -6.290   4.777  0.00  0.00    -0.465 OA
ATOM      8  C   UNL     1      -0.919  -7.116   5.895  0.00  0.00    +0.394 C 
ATOM      9  O   UNL     1      -0.184  -8.342   5.798  0.00  0.00    -0.339 OA
ATOM     10  C   UNL     1      -0.572  -9.132   4.666  0.00  0.00    +0.202 C 
ENDROOT
BRANCH   3  11
ATOM     11  N   UNL     1      -0.591  -8.654  -0.223  0.00  0.00    -0.358 N 
ATOM     12  H   UNL     1      -0.601  -8.100  -1.019  0.00  0.00    +0.142 HD
ATOM     13  H   UNL     1      -0.579  -9.620  -0.304  0.00  0.00    +0.142 HD
ENDBRANCH   3  11
BRANCH   1  14
ATOM     14  C   UNL     1      -0.633  -4.587   2.538  0.00  0.00    +0.199 C 
BRANCH  14  15
ATOM     15  O   UNL     1      -0.653  -3.999   1.236  0.00  0.00    -0.372 OA
BRANCH  15  20
ATOM     16  C   UNL     1      -0.019   1.526   0.010  0.00  0.00    +0.007 C 
ATOM     17  C   UNL     1       0.002  -0.004   0.002  0.00  0.00    -0.014 C 
ATOM     18  C   UNL     1      -1.433  -0.534   0.013  0.00  0.00    +0.006 C 
ATOM     19  C   UNL     1      -1.413  -2.063   0.004  0.00  0.00    +0.032 C 
ATOM     20  C   UNL     1      -0.673  -2.570   1.244  0.00  0.00    +0.119 C 
ATOM     21  C   UNL     1       0.763  -2.041   1.233  0.00  0.00    +0.032 C 
ATOM     22  C   UNL     1       0.742  -0.511   1.242  0.00  0.00    +0.006 C 
ENDBRANCH  15  20
ENDBRANCH  14  15
ENDBRANCH   1  14
TORSDOF 4
