REMARK  Name = ZINC20232802
REMARK  4 active torsions:
REMARK  status: ('A' for Active; 'I' for Inactive)
REMARK    1  A    between atoms: C_2  and  C_25
REMARK    2  A    between atoms: N_5  and  C_6
REMARK    3  A    between atoms: C_6  and  C_7
REMARK    4  A    between atoms: C_13  and  C_15
REMARK                            x       y       z     vdW  Elec       q    Type
REMARK                         _______ _______ _______ _____ _____    ______ ____
ROOT
ATOM      1  C   UNL     1      -1.398  -4.204  -0.596  0.00  0.00    +0.013 C 
ATOM      2  C   UNL     1      -2.289  -3.495  -1.618  0.00  0.00    +0.024 C 
ATOM      3  C   UNL     1      -2.393  -4.355  -2.882  0.00  0.00    +0.108 C 
ATOM      4  N   UNL     1      -2.857  -5.697  -2.504  0.00  0.00    -0.301 N 
ATOM      5  C   UNL     1      -2.125  -6.431  -1.463  0.00  0.00    +0.108 C 
ATOM      6  C   UNL     1      -2.024  -5.548  -0.215  0.00  0.00    +0.024 C 
ATOM      7  C   UNL     1      -3.935  -6.244  -3.101  0.00  0.00    +0.220 C 
ATOM      8  O   UNL     1      -4.257  -7.385  -2.844  0.00  0.00    -0.275 OA
ENDROOT
BRANCH   7   9
ATOM      9  C   UNL     1      -4.740  -5.438  -4.088  0.00  0.00    +0.093 C 
ATOM     10  C   UNL     1      -5.470  -6.384  -5.044  0.00  0.00    +0.016 C 
ATOM     11  C   UNL     1      -6.262  -5.566  -6.067  0.00  0.00    +0.020 C 
ATOM     12  C   UNL     1      -7.306  -4.716  -5.337  0.00  0.00    +0.109 C 
ATOM     13  N   UNL     1      -6.628  -3.908  -4.314  0.00  0.00    -0.285 N 
ATOM     14  C   UNL     1      -5.767  -4.586  -3.335  0.00  0.00    +0.122 C 
ATOM     15  C   UNL     1      -6.791  -2.571  -4.274  0.00  0.00    +0.300 C 
ATOM     16  O   UNL     1      -6.151  -1.903  -3.486  0.00  0.00    -0.253 OA
ATOM     17  N   UNL     1      -7.665  -1.974  -5.109  0.00  0.00    -0.313 N 
ATOM     18  H   UNL     1      -7.799  -0.883  -5.077  0.00  0.00    +0.146 HD
ATOM     19  H   UNL     1      -8.244  -2.578  -5.823  0.00  0.00    +0.146 HD
ENDBRANCH   7   9
BRANCH   1  20
ATOM     20  C   UNL     1      -1.264  -3.332   0.654  0.00  0.00    +0.148 C 
BRANCH  20  25
ATOM     21  C   UNL     1      -1.005  -0.838   0.540  0.00  0.00    +0.133 A 
ATOM     22  C   UNL     1      -0.046  -0.006   0.070  0.00  0.00    +0.086 A 
ATOM     23  N   UNL     1       0.932  -0.785  -0.406  0.00  0.00    -0.134 NA
ATOM     24  N   UNL     1       0.599  -2.017  -0.247  0.00  0.00    -0.065 NA
ATOM     25  N   UNL     1      -0.557  -2.095   0.314  0.00  0.00    -0.251 N 
BRANCH  22  26
ATOM     26  C   UNL     1      -0.072   1.500   0.087  0.00  0.00    +0.041 C 
ATOM     27  C   UNL     1      -0.832   2.002   1.332  0.00  0.00    +0.010 C 
ATOM     28  C   UNL     1      -1.602   3.250   0.830  0.00  0.00    +0.001 C 
ATOM     29  C   UNL     1      -2.039   2.831  -0.596  0.00  0.00    +0.001 C 
ATOM     30  C   UNL     1      -0.839   2.027  -1.139  0.00  0.00    +0.010 C 
ENDBRANCH  22  26
ENDBRANCH  20  25
ENDBRANCH   1  20
TORSDOF 4
