REMARK  Name = ZINC67163429
REMARK  11 active torsions:
REMARK  status: ('A' for Active; 'I' for Inactive)
REMARK    1  A    between atoms: C_1  and  C_2
REMARK    2  A    between atoms: C_2  and  C_3
REMARK    3  A    between atoms: C_2  and  C_4
REMARK    4  A    between atoms: C_2  and  O_5
REMARK    5  A    between atoms: O_5  and  C_6
REMARK    6  A    between atoms: N_8  and  C_9
REMARK    7  A    between atoms: C_9  and  C_10
REMARK    8  A    between atoms: N_12  and  C_13
REMARK    9  A    between atoms: C_13  and  C_14
REMARK   10  A    between atoms: C_14  and  C_16
REMARK   11  A    between atoms: C_14  and  N_23
REMARK                            x       y       z     vdW  Elec       q    Type
REMARK                         _______ _______ _______ _____ _____    ______ ____
ROOT
ATOM      1  C   UNL     1       6.298  -0.797  -5.608  0.00  0.00    +0.093 C 
ENDROOT
BRANCH   1   4
ATOM      2  C   UNL     1       4.505  -0.471  -3.990  0.00  0.00    +0.230 C 
ATOM      3  O   UNL     1       3.733  -0.950  -4.793  0.00  0.00    -0.274 OA
ATOM      4  N   UNL     1       5.811  -0.350  -4.301  0.00  0.00    -0.315 N 
ATOM      5  H   UNL     1       6.429   0.033  -3.658  0.00  0.00    +0.149 HD
BRANCH   2   6
ATOM      6  C   UNL     1       4.005  -0.011  -2.645  0.00  0.00    +0.203 C 
BRANCH   6   9
ATOM      7  C   UNL     1       1.894   0.087  -1.431  0.00  0.00    +0.401 C 
ATOM      8  O   UNL     1       2.489   0.586  -0.496  0.00  0.00    -0.226 OA
ATOM      9  N   UNL     1       2.562  -0.248  -2.553  0.00  0.00    -0.273 N 
ATOM     10  H   UNL     1       2.088  -0.647  -3.299  0.00  0.00    +0.153 HD
BRANCH   7  11
ATOM     11  O   UNL     1       0.569  -0.131  -1.347  0.00  0.00    -0.445 OA
BRANCH  11  13
ATOM     12  C   UNL     1       0.110   1.750   0.099  0.00  0.00    +0.055 C 
ATOM     13  C   UNL     1      -0.075   0.248  -0.129  0.00  0.00    +0.107 C 
ATOM     14  C   UNL     1       0.543  -0.524   1.037  0.00  0.00    +0.055 C 
ATOM     15  C   UNL     1      -1.568  -0.074  -0.220  0.00  0.00    +0.055 C 
ENDBRANCH  11  13
ENDBRANCH   7  11
ENDBRANCH   6   9
ENDBRANCH   2   6
ENDBRANCH   1   4
BRANCH   1  16
ATOM     16  C   UNL     1       7.775  -0.427  -5.756  0.00  0.00    -0.020 C 
BRANCH  16  17
ATOM     17  C   UNL     1       7.917   1.073  -5.781  0.00  0.00    -0.058 A 
ATOM     18  C   UNL     1       7.656   1.773  -6.945  0.00  0.00    +0.002 A 
ATOM     19  C   UNL     1       7.786   3.148  -6.968  0.00  0.00    +0.002 A 
ATOM     20  C   UNL     1       8.179   3.825  -5.829  0.00  0.00    +0.020 A 
ATOM     21  C   UNL     1       8.441   3.126  -4.665  0.00  0.00    +0.041 A 
ATOM     22  C   UNL     1       8.304   1.749  -4.640  0.00  0.00    +0.022 A 
ATOM     23 CL   UNL     1       8.934   3.975  -3.233  0.00  0.00    -0.084 Cl
ENDBRANCH  16  17
BRANCH  16  24
ATOM     24  N   UNL     1       8.297  -0.990  -7.009  0.00  0.00    +0.385 N 
ATOM     25  C   UNL     1       9.735  -0.652  -7.162  0.00  0.00    -0.078 C 
ATOM     26  C   UNL     1      10.249  -1.730  -8.150  0.00  0.00    -0.020 C 
ATOM     27  C   UNL     1       9.470  -2.994  -7.720  0.00  0.00    -0.020 C 
ATOM     28  C   UNL     1       8.231  -2.467  -6.972  0.00  0.00    -0.078 C 
ATOM     29  H   UNL     1       7.771  -0.638  -7.795  0.00  0.00    -0.081 HD
ENDBRANCH  16  24
ENDBRANCH   1  16
TORSDOF 8
