REMARK  Name = ZINC15937085
REMARK  7 active torsions:
REMARK  status: ('A' for Active; 'I' for Inactive)
REMARK    1  A    between atoms: C_1  and  C_2
REMARK    2  A    between atoms: C_5  and  N_9
REMARK    3  A    between atoms: C_10  and  C_12
REMARK    4  A    between atoms: C_12  and  C_13
REMARK    5  A    between atoms: C_13  and  N_14
REMARK    6  A    between atoms: N_14  and  S_15
REMARK    7  A    between atoms: S_15  and  C_18
REMARK                            x       y       z     vdW  Elec       q    Type
REMARK                         _______ _______ _______ _____ _____    ______ ____
ROOT
ATOM      1  N   UNL     1      -0.330  -8.309  -2.632  0.00  0.00    -0.189 NA
ATOM      2  H   UNL     1      -0.104  -8.809  -1.832  0.00  0.00    +0.148 HD
ENDROOT
BRANCH   1   3
ATOM      3  S   UNL     1      -0.819  -9.107  -3.998  0.00  0.00    +0.058 S 
ATOM      4  O   UNL     1      -0.779 -10.495  -3.694  0.00  0.00    -0.153 OA
ATOM      5  O   UNL     1      -2.002  -8.459  -4.445  0.00  0.00    -0.153 OA
BRANCH   3   6
ATOM      6  C   UNL     1       0.407  -8.827  -5.232  0.00  0.00    +0.106 A 
ATOM      7  C   UNL     1       0.301  -7.734  -6.074  0.00  0.00    +0.030 A 
ATOM      8  C   UNL     1       1.260  -7.511  -7.042  0.00  0.00    +0.025 A 
ATOM      9  C   UNL     1       2.331  -8.385  -7.170  0.00  0.00    +0.037 A 
ATOM     10  C   UNL     1       2.434  -9.481  -6.324  0.00  0.00    -0.024 A 
ATOM     11  C   UNL     1       1.475  -9.696  -5.354  0.00  0.00    +0.034 A 
ATOM     12  C   UNL     1       3.596 -10.429  -6.463  0.00  0.00    +0.046 C 
ATOM     13  C   UNL     1       3.995 -10.537  -7.935  0.00  0.00    +0.101 C 
ATOM     14  C   UNL     1       4.123  -9.162  -8.534  0.00  0.00    +0.218 C 
ATOM     15  O   UNL     1       4.972  -8.951  -9.373  0.00  0.00    -0.275 OA
ATOM     16  N   UNL     1       3.305  -8.165  -8.149  0.00  0.00    -0.285 N 
ATOM     17  H   UNL     1       3.393  -7.288  -8.553  0.00  0.00    +0.155 HD
ENDBRANCH   3   6
ENDBRANCH   1   3
BRANCH   1  18
ATOM     18  C   UNL     1      -0.238  -6.847  -2.631  0.00  0.00    +0.115 C 
BRANCH  18  19
ATOM     19  C   UNL     1      -0.136  -6.343  -1.190  0.00  0.00    +0.113 C 
BRANCH  19  21
ATOM     20  N   UNL     1       0.057  -4.171  -0.023  0.00  0.00    -0.285 N 
ATOM     21  C   UNL     1      -0.042  -4.839  -1.189  0.00  0.00    +0.218 C 
ATOM     22  O   UNL     1      -0.055  -4.230  -2.238  0.00  0.00    -0.275 OA
ATOM     23  H   UNL     1       0.149  -4.660   0.810  0.00  0.00    +0.155 HD
BRANCH  20  28
ATOM     24  C   UNL     1      -0.063   1.502   0.016  0.00  0.00    +0.044 C 
ATOM     25  C   UNL     1      -0.031  -0.005   0.006  0.00  0.00    -0.049 A 
ATOM     26  C   UNL     1      -0.622  -0.701  -1.033  0.00  0.00    +0.005 A 
ATOM     27  C   UNL     1      -0.594  -2.081  -1.045  0.00  0.00    +0.024 A 
ATOM     28  C   UNL     1       0.028  -2.771  -0.013  0.00  0.00    +0.047 A 
ATOM     29  C   UNL     1       0.621  -2.070   1.029  0.00  0.00    +0.039 A 
ATOM     30  C   UNL     1       0.595  -0.688   1.032  0.00  0.00    +0.020 A 
ATOM     31 BR   UNL     1       1.470  -3.004   2.437  0.00  0.00    -0.048 Br
ENDBRANCH  20  28
ENDBRANCH  19  21
ENDBRANCH  18  19
ENDBRANCH   1  18
TORSDOF 6
