REMARK  Name = ZINC44005122
REMARK  6 active torsions:
REMARK  status: ('A' for Active; 'I' for Inactive)
REMARK    1  A    between atoms: C_1  and  O_2
REMARK    2  A    between atoms: O_2  and  C_3
REMARK    3  A    between atoms: C_8  and  N_9
REMARK    4  A    between atoms: C_15  and  C_18
REMARK    5  A    between atoms: C_18  and  N_19
REMARK    6  A    between atoms: N_22  and  C_23
REMARK                            x       y       z     vdW  Elec       q    Type
REMARK                         _______ _______ _______ _____ _____    ______ ____
ROOT
ATOM      1  N   UNL     1      -0.366  -2.538   0.194  0.00  0.00    -0.266 N 
ATOM      2  C   UNL     1      -0.290  -3.872   0.019  0.00  0.00    +0.307 C 
ATOM      3  O   UNL     1       0.317  -4.327  -0.931  0.00  0.00    -0.252 OA
ATOM      4  N   UNL     1      -0.886  -4.702   0.898  0.00  0.00    -0.285 N 
ATOM      5  C   UNL     1      -1.728  -4.169   1.978  0.00  0.00    +0.109 C 
ATOM      6  C   UNL     1      -1.226  -4.727   3.314  0.00  0.00    +0.024 C 
ATOM      7  C   UNL     1      -1.188  -6.255   3.242  0.00  0.00    +0.009 C 
ATOM      8  C   UNL     1      -0.218  -6.691   2.142  0.00  0.00    +0.024 C 
ATOM      9  C   UNL     1      -0.713  -6.157   0.789  0.00  0.00    +0.109 C 
ATOM     10  H   UNL     1      -0.806  -2.176   0.979  0.00  0.00    +0.156 HD
ENDROOT
BRANCH   1  16
ATOM     11  C   UNL     1      -0.375  -0.420  -0.979  0.00  0.00    +0.141 A 
ATOM     12  C   UNL     1       0.183   0.433  -1.918  0.00  0.00    +0.047 A 
ATOM     13  C   UNL     1       1.296   0.037  -2.636  0.00  0.00    +0.004 A 
ATOM     14  C   UNL     1       1.856  -1.209  -2.421  0.00  0.00    +0.002 A 
ATOM     15  C   UNL     1       1.305  -2.065  -1.486  0.00  0.00    +0.027 A 
ATOM     16  C   UNL     1       0.191  -1.673  -0.758  0.00  0.00    +0.077 A 
BRANCH  11  18
ATOM     17  C   UNL     1      -1.998   1.266  -0.553  0.00  0.00    +0.277 C 
ATOM     18  O   UNL     1      -1.470  -0.032  -0.273  0.00  0.00    -0.493 OA
ENDBRANCH  11  18
ENDBRANCH   1  16
BRANCH   7  19
ATOM     19  C   UNL     1      -0.720  -6.817   4.586  0.00  0.00    +0.109 C 
BRANCH  19  20
ATOM     20  N   UNL     1      -0.797  -8.279   4.558  0.00  0.00    -0.299 N 
ATOM     21  C   UNL     1      -0.433  -8.995   5.640  0.00  0.00    +0.304 C 
ATOM     22  O   UNL     1      -0.040  -8.426   6.641  0.00  0.00    -0.253 OA
ATOM     23  N   UNL     1      -0.503 -10.340   5.614  0.00  0.00    -0.267 N 
ATOM     24  H   UNL     1      -1.111  -8.733   3.760  0.00  0.00    +0.150 HD
ATOM     25  H   UNL     1      -0.866 -10.792   4.835  0.00  0.00    +0.156 HD
BRANCH  23  26
ATOM     26  C   UNL     1      -0.054 -11.087   6.710  0.00  0.00    +0.070 A 
ATOM     27  C   UNL     1      -0.100 -10.544   7.987  0.00  0.00    +0.026 A 
ATOM     28  C   UNL     1       0.344 -11.283   9.067  0.00  0.00    +0.002 A 
ATOM     29  C   UNL     1       0.834 -12.562   8.878  0.00  0.00    +0.003 A 
ATOM     30  C   UNL     1       0.882 -13.107   7.608  0.00  0.00    +0.040 A 
ATOM     31  C   UNL     1       0.434 -12.376   6.523  0.00  0.00    +0.145 A 
ATOM     32  F   UNL     1       0.475 -12.910   5.283  0.00  0.00    -0.204 F 
ENDBRANCH  23  26
ENDBRANCH  19  20
ENDBRANCH   7  19
TORSDOF 5
