REMARK  Name = ZINC66057445
REMARK  7 active torsions:
REMARK  status: ('A' for Active; 'I' for Inactive)
REMARK    1  A    between atoms: C_1  and  C_2
REMARK    2  A    between atoms: C_2  and  C_3
REMARK    3  A    between atoms: C_3  and  C_5
REMARK    4  A    between atoms: C_3  and  O_17
REMARK    5  A    between atoms: C_10  and  C_13
REMARK    6  A    between atoms: N_15  and  N_16
REMARK    7  A    between atoms: O_17  and  C_18
REMARK                            x       y       z     vdW  Elec       q    Type
REMARK                         _______ _______ _______ _____ _____    ______ ____
ROOT
ATOM      1  C   UNL     1       0.644  -1.999  -1.448  0.00  0.00    +0.256 C 
ATOM      2  O   UNL     1       1.658  -2.664  -1.429  0.00  0.00    -0.272 OA
ATOM      3  N   UNL     1      -0.551  -2.595  -1.630  0.00  0.00    -0.298 N 
ATOM      4  C   UNL     1      -1.787  -1.801  -1.661  0.00  0.00    +0.108 C 
ATOM      5  C   UNL     1      -2.548  -2.124  -2.951  0.00  0.00    +0.032 C 
ATOM      6  C   UNL     1      -2.769  -3.636  -3.043  0.00  0.00    +0.079 C 
ATOM      7  C   UNL     1      -1.416  -4.350  -3.089  0.00  0.00    +0.032 C 
ATOM      8  C   UNL     1      -0.641  -4.051  -1.806  0.00  0.00    +0.108 C 
ENDROOT
BRANCH   6   9
ATOM      9  C   UNL     1      -3.547  -3.954  -4.293  0.00  0.00    +0.229 C 
ATOM     10  O   UNL     1      -3.890  -3.061  -5.038  0.00  0.00    -0.274 OA
ATOM     11  N   UNL     1      -3.861  -5.232  -4.585  0.00  0.00    -0.253 N 
ATOM     12  H   UNL     1      -3.586  -5.947  -3.989  0.00  0.00    +0.169 HD
BRANCH  11  13
ATOM     13  N   UNL     1      -4.566  -5.521  -5.718  0.00  0.00    -0.254 NA
ATOM     14  H   UNL     1      -4.099  -5.159  -6.537  0.00  0.00    +0.140 HD
ATOM     15  H   UNL     1      -4.726  -6.514  -5.802  0.00  0.00    +0.140 HD
ENDBRANCH  11  13
ENDBRANCH   6   9
BRANCH   1  16
ATOM     16  C   UNL     1       0.721  -0.504  -1.268  0.00  0.00    +0.258 C 
BRANCH  16  18
ATOM     17  C   UNL     1      -0.014   1.414   0.154  0.00  0.00    +0.008 C 
ATOM     18  C   UNL     1       0.018  -0.111   0.033  0.00  0.00    +0.051 C 
ENDBRANCH  16  18
BRANCH  16  19
ATOM     19  O   UNL     1       2.090  -0.101  -1.210  0.00  0.00    -0.480 OA
BRANCH  19  20
ATOM     20  C   UNL     1       2.421   1.054  -1.846  0.00  0.00    +0.122 A 
ATOM     21  C   UNL     1       3.749   1.442  -1.935  0.00  0.00    +0.045 A 
ATOM     22  C   UNL     1       4.083   2.616  -2.583  0.00  0.00    +0.004 A 
ATOM     23  C   UNL     1       3.093   3.404  -3.141  0.00  0.00    +0.000 A 
ATOM     24  C   UNL     1       1.768   3.020  -3.053  0.00  0.00    +0.004 A 
ATOM     25  C   UNL     1       1.430   1.843  -2.412  0.00  0.00    +0.045 A 
ENDBRANCH  19  20
ENDBRANCH  16  19
ENDBRANCH   1  16
TORSDOF 6
