REMARK  Name = ZINC12659474
REMARK  6 active torsions:
REMARK  status: ('A' for Active; 'I' for Inactive)
REMARK    1  A    between atoms: C_5  and  C_7
REMARK    2  A    between atoms: N_9  and  C_10
REMARK    3  A    between atoms: C_10  and  C_17
REMARK    4  A    between atoms: C_11  and  C_12
REMARK    5  A    between atoms: N_19  and  C_20
REMARK    6  A    between atoms: C_25  and  O_26
REMARK                            x       y       z     vdW  Elec       q    Type
REMARK                         _______ _______ _______ _____ _____    ______ ____
ROOT
ATOM      1  C   UNL     1      -0.164   0.020   4.851  0.00  0.00    +0.100 C 
ATOM      2  C   UNL     1      -0.178   1.379   4.858  0.00  0.00    +0.074 C 
ENDROOT
BRANCH   2   3
ATOM      3  C   UNL     1      -0.173   2.081   6.088  0.00  0.00    +0.130 A 
ATOM      4  C   UNL     1      -0.283   3.447   6.245  0.00  0.00    +0.049 A 
ATOM      5  C   UNL     1      -0.232   3.696   7.626  0.00  0.00    +0.042 A 
ATOM      6  C   UNL     1      -0.095   2.502   8.242  0.00  0.00    +0.195 A 
ATOM      7  O   UNL     1      -0.065   1.532   7.316  0.00  0.00    -0.463 OA
ENDBRANCH   2   3
BRANCH   1  10
ATOM      8  C   UNL     1      -1.271  -1.543   6.264  0.00  0.00    +0.249 C 
ATOM      9  O   UNL     1      -2.067  -1.768   5.373  0.00  0.00    -0.270 OA
ATOM     10  N   UNL     1      -0.250  -0.687   6.056  0.00  0.00    -0.277 N 
ATOM     11  H   UNL     1       0.425  -0.562   6.741  0.00  0.00    +0.155 HD
BRANCH   8  16
ATOM     12  C   UNL     1      -0.723  -2.494   9.855  0.00  0.00    +0.001 A 
ATOM     13  C   UNL     1      -1.707  -3.451  10.034  0.00  0.00    +0.001 A 
ATOM     14  C   UNL     1      -2.549  -3.789   8.990  0.00  0.00    +0.016 A 
ATOM     15  C   UNL     1      -2.414  -3.173   7.762  0.00  0.00    +0.030 A 
ATOM     16  C   UNL     1      -1.422  -2.206   7.575  0.00  0.00    +0.051 A 
ATOM     17  C   UNL     1      -0.572  -1.875   8.632  0.00  0.00    +0.014 A 
ATOM     18 BR   UNL     1      -3.566  -3.637   6.336  0.00  0.00    -0.050 Br
ENDBRANCH   8  16
ENDBRANCH   1  10
BRANCH   1  19
ATOM     19  C   UNL     1      -0.059  -0.705   3.582  0.00  0.00    +0.263 C 
ATOM     20  O   UNL     1      -0.046  -1.923   3.576  0.00  0.00    -0.268 OA
ATOM     21  N   UNL     1       0.024  -0.024   2.422  0.00  0.00    -0.278 N 
ATOM     22  H   UNL     1       0.095   0.943   2.431  0.00  0.00    +0.155 HD
BRANCH  21  23
ATOM     23  C   UNL     1       0.007  -0.713   1.203  0.00  0.00    +0.076 A 
ATOM     24  C   UNL     1      -0.588  -1.964   1.119  0.00  0.00    +0.027 A 
ATOM     25  C   UNL     1      -0.604  -2.642  -0.085  0.00  0.00    +0.002 A 
ATOM     26  C   UNL     1      -0.028  -2.077  -1.208  0.00  0.00    +0.004 A 
ATOM     27  C   UNL     1       0.563  -0.829  -1.133  0.00  0.00    +0.047 A 
ATOM     28  C   UNL     1       0.588  -0.145   0.071  0.00  0.00    +0.138 A 
BRANCH  28  29
ATOM     29  O   UNL     1       1.173   1.080   0.148  0.00  0.00    -0.505 OA
ATOM     30  H   UNL     1       2.113   1.054   0.374  0.00  0.00    +0.292 HD
ENDBRANCH  28  29
ENDBRANCH  21  23
ENDBRANCH   1  19
TORSDOF 6
