REMARK  Name = ZINC40233377
REMARK  8 active torsions:
REMARK  status: ('A' for Active; 'I' for Inactive)
REMARK    1  A    between atoms: C_1  and  C_2
REMARK    2  A    between atoms: C_2  and  C_4
REMARK    3  A    between atoms: C_2  and  N_7
REMARK    4  A    between atoms: C_8  and  C_10
REMARK    5  A    between atoms: C_13  and  C_15
REMARK    6  A    between atoms: C_16  and  C_17
REMARK    7  A    between atoms: C_17  and  C_18
REMARK    8  A    between atoms: C_18  and  O_19
REMARK                            x       y       z     vdW  Elec       q    Type
REMARK                         _______ _______ _______ _____ _____    ______ ____
ROOT
ATOM      1  N   UNL     1      -1.372  -0.511   0.012  0.00  0.00    -0.300 N 
ATOM      2  C   UNL     1      -2.029  -0.655   1.181  0.00  0.00    +0.251 C 
ATOM      3  O   UNL     1      -1.479  -0.364   2.227  0.00  0.00    -0.270 OA
ATOM      4  H   UNL     1      -1.810  -0.743  -0.822  0.00  0.00    +0.150 HD
ENDROOT
BRANCH   2   5
ATOM      5  C   UNL     1      -3.403  -1.162   1.191  0.00  0.00    +0.075 A 
ATOM      6  C   UNL     1      -4.245  -1.376   2.273  0.00  0.00    +0.022 A 
ATOM      7  C   UNL     1      -5.500  -1.861   2.042  0.00  0.00    +0.025 A 
ATOM      8  C   UNL     1      -5.885  -2.121   0.734  0.00  0.00    +0.063 A 
ATOM      9  S   UNL     1      -4.426  -1.656  -0.186  0.00  0.00    -0.075 S 
BRANCH   8  10
ATOM     10  C   UNL     1      -7.133  -2.626   0.246  0.00  0.00    -0.059 C 
ATOM     11  C   UNL     1      -8.156  -3.040  -0.154  0.00  0.00    -0.094 C 
BRANCH  11  12
ATOM     12  C   UNL     1      -9.438  -3.559  -0.655  0.00  0.00    +0.117 C 
BRANCH  12  13
ATOM     13  C   UNL     1      -9.381  -3.675  -2.180  0.00  0.00    +0.168 C 
BRANCH  13  14
ATOM     14  O   UNL     1     -10.626  -4.179  -2.667  0.00  0.00    -0.394 OA
ATOM     15  H   UNL     1     -10.662  -4.279  -3.628  0.00  0.00    +0.209 HD
ENDBRANCH  13  14
ENDBRANCH  12  13
ENDBRANCH  11  12
ENDBRANCH   8  10
ENDBRANCH   2   5
BRANCH   1  17
ATOM     16  C   UNL     1      -0.019   1.526   0.010  0.00  0.00    +0.038 C 
ATOM     17  C   UNL     1       0.002  -0.004   0.002  0.00  0.00    +0.156 C 
BRANCH  17  18
ATOM     18  C   UNL     1       0.707  -0.490  -1.238  0.00  0.00    +0.231 C 
ATOM     19  O   UNL     1       0.120  -1.191  -2.034  0.00  0.00    -0.274 OA
ATOM     20  N   UNL     1       1.991  -0.146  -1.462  0.00  0.00    -0.328 N 
ATOM     21  H   UNL     1       2.461   0.415  -0.825  0.00  0.00    +0.145 HD
ATOM     22  H   UNL     1       2.445  -0.459  -2.260  0.00  0.00    +0.145 HD
ENDBRANCH  17  18
ENDBRANCH   1  17
TORSDOF 7
