REMARK  Name = ZINC65368312
REMARK  6 active torsions:
REMARK  status: ('A' for Active; 'I' for Inactive)
REMARK    1  A    between atoms: C_3  and  N_15
REMARK    2  A    between atoms: C_4  and  O_11
REMARK    3  A    between atoms: C_6  and  O_7
REMARK    4  A    between atoms: O_7  and  C_8
REMARK    5  A    between atoms: O_11  and  C_12
REMARK    6  A    between atoms: C_22  and  C_24
REMARK                            x       y       z     vdW  Elec       q    Type
REMARK                         _______ _______ _______ _____ _____    ______ ____
ROOT
ATOM      1  N   UNL     1       3.585   2.139  -0.027  0.00  0.00    -0.266 N 
ATOM      2  C   UNL     1       3.566   3.483  -0.117  0.00  0.00    +0.307 C 
ATOM      3  O   UNL     1       2.506   4.079  -0.099  0.00  0.00    -0.252 OA
ATOM      4  N   UNL     1       4.722   4.168  -0.227  0.00  0.00    -0.280 N 
ATOM      5  C   UNL     1       6.008   3.466  -0.361  0.00  0.00    +0.137 C 
ATOM      6  C   UNL     1       6.982   4.040   0.675  0.00  0.00    +0.180 C 
ATOM      7  O   UNL     1       7.019   5.463   0.549  0.00  0.00    -0.364 OA
ATOM      8  C   UNL     1       5.770   6.107   0.812  0.00  0.00    +0.221 C 
ATOM      9  C   UNL     1       4.734   5.639  -0.222  0.00  0.00    +0.150 C 
ATOM     10  H   UNL     1       4.432   1.666  -0.009  0.00  0.00    +0.156 HD
ENDROOT
BRANCH   1  13
ATOM     11  C   UNL     1       0.030   1.352   0.514  0.00  0.00    +0.048 A 
ATOM     12  C   UNL     1       1.217   2.057   0.448  0.00  0.00    +0.030 A 
ATOM     13  C   UNL     1       2.380   1.422   0.040  0.00  0.00    +0.077 A 
ATOM     14  C   UNL     1       2.351   0.073  -0.304  0.00  0.00    +0.151 A 
ATOM     15  C   UNL     1       1.160  -0.631  -0.237  0.00  0.00    +0.093 A 
ATOM     16  C   UNL     1      -0.001   0.009   0.172  0.00  0.00    +0.130 A 
BRANCH  16  17
ATOM     17  O   UNL     1      -1.170  -0.682   0.237  0.00  0.00    -0.434 OA
BRANCH  17  18
ATOM     18  C   UNL     1      -2.326   0.039   0.666  0.00  0.00    +0.541 C 
ATOM     19  F   UNL     1      -2.113   0.539   1.955  0.00  0.00    -0.166 F 
ATOM     20  F   UNL     1      -2.566   1.101  -0.212  0.00  0.00    -0.166 F 
ENDBRANCH  17  18
ENDBRANCH  16  17
BRANCH  14  21
ATOM     21  O   UNL     1       3.490  -0.552  -0.706  0.00  0.00    -0.432 OA
BRANCH  21  22
ATOM     22  C   UNL     1       3.385  -1.937  -1.043  0.00  0.00    +0.541 C 
ATOM     23  F   UNL     1       2.934  -2.655   0.070  0.00  0.00    -0.166 F 
ATOM     24  F   UNL     1       2.479  -2.093  -2.098  0.00  0.00    -0.166 F 
ENDBRANCH  21  22
ENDBRANCH  14  21
ENDBRANCH   1  13
BRANCH   8  25
ATOM     25  C   UNL     1       5.942   7.600   0.711  0.00  0.00    +0.241 C 
ATOM     26  O   UNL     1       7.003   8.065   0.351  0.00  0.00    -0.273 OA
ATOM     27  N   UNL     1       4.918   8.419   1.020  0.00  0.00    -0.327 N 
ATOM     28  H   UNL     1       4.069   8.048   1.308  0.00  0.00    +0.145 HD
ATOM     29  H   UNL     1       5.029   9.381   0.954  0.00  0.00    +0.145 HD
ENDBRANCH   8  25
TORSDOF 6
