REMARK  Name = ZINC32810856
REMARK  5 active torsions:
REMARK  status: ('A' for Active; 'I' for Inactive)
REMARK    1  A    between atoms: C_1  and  C_2
REMARK    2  A    between atoms: C_2  and  C_4
REMARK    3  A    between atoms: C_2  and  N_15
REMARK    4  A    between atoms: N_6  and  C_7
REMARK    5  A    between atoms: N_15  and  C_16
REMARK                            x       y       z     vdW  Elec       q    Type
REMARK                         _______ _______ _______ _____ _____    ______ ____
ROOT
ATOM      1  C   UNL     1       1.330   2.861  -1.265  0.00  0.00    +0.038 C 
ATOM      2  C   UNL     1       1.280   1.980  -0.015  0.00  0.00    +0.154 C 
ENDROOT
BRANCH   2   3
ATOM      3  C   UNL     1      -0.014   1.209   0.005  0.00  0.00    +0.237 C 
ATOM      4  O   UNL     1       0.003  -0.004   0.005  0.00  0.00    -0.273 OA
ATOM      5  N   UNL     1      -1.191   1.867   0.018  0.00  0.00    -0.283 N 
ATOM      6  H   UNL     1      -1.207   2.963   0.110  0.00  0.00    +0.155 HD
BRANCH   5   7
ATOM      7  C   UNL     1      -2.392   1.155  -0.086  0.00  0.00    +0.048 A 
ATOM      8  C   UNL     1      -2.411  -0.091  -0.699  0.00  0.00    +0.025 A 
ATOM      9  C   UNL     1      -3.597  -0.791  -0.800  0.00  0.00    +0.017 A 
ATOM     10  C   UNL     1      -4.766  -0.253  -0.291  0.00  0.00    +0.019 A 
ATOM     11  C   UNL     1      -4.750   0.989   0.319  0.00  0.00    +0.032 A 
ATOM     12  C   UNL     1      -3.565   1.691   0.429  0.00  0.00    +0.040 A 
ATOM     13 BR   UNL     1      -3.543   3.384   1.271  0.00  0.00    -0.048 Br
ATOM     14 BR   UNL     1      -6.388  -1.214  -0.432  0.00  0.00    -0.050 Br
ENDBRANCH   5   7
ENDBRANCH   2   3
BRANCH   2  15
ATOM     15  N   UNL     1       2.407   1.044  -0.032  0.00  0.00    -0.333 N 
ATOM     16  H   UNL     1       2.271   0.028  -0.433  0.00  0.00    +0.147 HD
BRANCH  15  17
ATOM     17  C   UNL     1       3.654   1.441   0.461  0.00  0.00    +0.030 A 
ATOM     18  C   UNL     1       3.824   2.725   0.966  0.00  0.00    +0.025 A 
ATOM     19  C   UNL     1       5.052   3.123   1.454  0.00  0.00    +0.029 A 
ATOM     20  C   UNL     1       6.122   2.241   1.440  0.00  0.00    +0.067 A 
ATOM     21  C   UNL     1       5.955   0.950   0.932  0.00  0.00    +0.069 A 
ATOM     22  C   UNL     1       4.718   0.552   0.449  0.00  0.00    +0.050 A 
ATOM     23  N   UNL     1       7.186   0.309   1.050  0.00  0.00    -0.306 N 
ATOM     24  H   UNL     1       7.299  -0.731   0.710  0.00  0.00    +0.170 HD
ATOM     25  C   UNL     1       8.062   1.169   1.602  0.00  0.00    +0.325 A 
ATOM     26  O   UNL     1       9.229   0.922   1.843  0.00  0.00    -0.247 OA
ATOM     27  N   UNL     1       7.451   2.343   1.850  0.00  0.00    -0.306 N 
ATOM     28  H   UNL     1       7.821   3.281   2.288  0.00  0.00    +0.170 HD
ENDBRANCH  15  17
ENDBRANCH   2  15
TORSDOF 4
