REMARK  Name = ZINC06832004
REMARK  3 active torsions:
REMARK  status: ('A' for Active; 'I' for Inactive)
REMARK    1  A    between atoms: C_4  and  C_7
REMARK    2  A    between atoms: C_15  and  C_18
REMARK    3  A    between atoms: C_18  and  N_19
REMARK                            x       y       z     vdW  Elec       q    Type
REMARK                         _______ _______ _______ _____ _____    ______ ____
ROOT
ATOM      1  C   UNL     1      -0.068   1.122   0.059  0.00  0.00    +0.340 C 
ATOM      2  O   UNL     1       1.206   1.773  -0.015  0.00  0.00    -0.333 OA
ATOM      3  C   UNL     1       2.086   1.405   1.051  0.00  0.00    +0.203 C 
ATOM      4  C   UNL     1       1.352   1.514   2.364  0.00  0.00    +0.023 A 
ATOM      5  C   UNL     1       2.067   1.536   3.547  0.00  0.00    +0.047 A 
ATOM      6  C   UNL     1       1.402   1.632   4.757  0.00  0.00    +0.124 A 
ATOM      7  C   UNL     1       0.020   1.707   4.785  0.00  0.00    +0.047 A 
ATOM      8  C   UNL     1      -0.697   1.687   3.604  0.00  0.00    +0.015 A 
ATOM      9  C   UNL     1      -0.031   1.591   2.389  0.00  0.00    +0.134 A 
ATOM     10  O   UNL     1      -0.746   1.579   1.232  0.00  0.00    -0.459 OA
ATOM     11  F   UNL     1       2.102   1.652   5.912  0.00  0.00    -0.205 F 
ENDROOT
BRANCH   1  15
ATOM     12  C   UNL     1      -2.372   2.080  -3.408  0.00  0.00    +0.000 A 
ATOM     13  C   UNL     1      -1.117   1.518  -3.546  0.00  0.00    +0.000 A 
ATOM     14  C   UNL     1      -0.371   1.208  -2.424  0.00  0.00    +0.010 A 
ATOM     15  C   UNL     1      -0.880   1.460  -1.164  0.00  0.00    +0.020 A 
ATOM     16  C   UNL     1      -2.138   2.018  -1.026  0.00  0.00    +0.010 A 
ATOM     17  C   UNL     1      -2.882   2.332  -2.148  0.00  0.00    +0.000 A 
ENDBRANCH   1  15
BRANCH   8  18
ATOM     18  C   UNL     1      -2.201   1.768   3.635  0.00  0.00    +0.144 C 
BRANCH  18  19
ATOM     19  N   UNL     1      -2.654   1.947   5.021  0.00  0.00    -0.315 N 
ATOM     20  C   UNL     1      -2.191   3.228   5.564  0.00  0.00    +0.201 C 
ATOM     21  C   UNL     1      -2.567   3.338   7.019  0.00  0.00    +0.235 C 
ATOM     22  O   UNL     1      -2.874   4.413   7.491  0.00  0.00    -0.274 OA
ATOM     23  N   UNL     1      -2.559   2.231   7.793  0.00  0.00    -0.283 N 
ATOM     24  C   UNL     1      -2.215   1.004   7.206  0.00  0.00    +0.055 A 
ATOM     25  C   UNL     1      -2.262   0.869   5.818  0.00  0.00    +0.052 A 
ATOM     26  C   UNL     1      -1.919  -0.341   5.234  0.00  0.00    +0.025 A 
ATOM     27  C   UNL     1      -1.535  -1.406   6.028  0.00  0.00    +0.002 A 
ATOM     28  C   UNL     1      -1.491  -1.271   7.403  0.00  0.00    +0.002 A 
ATOM     29  C   UNL     1      -1.830  -0.067   7.994  0.00  0.00    +0.025 A 
ATOM     30  H   UNL     1      -2.786   2.283   8.734  0.00  0.00    +0.155 HD
ENDBRANCH  18  19
ENDBRANCH   8  18
TORSDOF 3
