REMARK  Name = ZINC57339031
REMARK  3 active torsions:
REMARK  status: ('A' for Active; 'I' for Inactive)
REMARK    1  A    between atoms: C_6  and  C_7
REMARK    2  A    between atoms: C_10  and  C_15
REMARK    3  A    between atoms: N_17  and  N_18
REMARK                            x       y       z     vdW  Elec       q    Type
REMARK                         _______ _______ _______ _____ _____    ______ ____
ROOT
ATOM      1  C   UNL     1      -1.268  -0.764   0.011  0.00  0.00    +0.132 A 
ATOM      2  N   UNL     1      -1.452  -2.061   0.011  0.00  0.00    -0.155 NA
ATOM      3  N   UNL     1      -2.732  -2.603   0.020  0.00  0.00    -0.181 N 
ATOM      4  C   UNL     1      -3.352  -3.850   0.024  0.00  0.00    +0.242 A 
ATOM      5  N   UNL     1      -4.655  -3.649   0.034  0.00  0.00    -0.122 NA
ATOM      6  N   UNL     1      -4.898  -2.385   0.037  0.00  0.00    -0.120 NA
ATOM      7  C   UNL     1      -3.772  -1.723   0.029  0.00  0.00    +0.219 A 
ATOM      8  S   UNL     1      -2.945  -0.151   0.031  0.00  0.00    -0.026 S 
ENDROOT
BRANCH   1  14
ATOM      9  C   UNL     1      -0.017   1.391   0.010  0.00  0.00    +0.012 A 
ATOM     10  C   UNL     1       1.170   2.094   0.002  0.00  0.00    +0.016 A 
ATOM     11  C   UNL     1       2.378   1.418  -0.013  0.00  0.00    +0.018 A 
ATOM     12  C   UNL     1       2.403   0.034  -0.021  0.00  0.00    +0.016 A 
ATOM     13  C   UNL     1       1.222  -0.680  -0.014  0.00  0.00    +0.012 A 
ATOM     14  C   UNL     1       0.002  -0.004   0.002  0.00  0.00    +0.009 A 
ATOM     15 BR   UNL     1       4.000   2.389  -0.025  0.00  0.00    -0.050 Br
ENDBRANCH   1  14
BRANCH   4  16
ATOM     16  C   UNL     1      -2.678  -5.151   0.017  0.00  0.00    +0.296 C 
ATOM     17  O   UNL     1      -1.462  -5.206   0.008  0.00  0.00    -0.265 OA
ATOM     18  N   UNL     1      -3.404  -6.286   0.021  0.00  0.00    -0.247 N 
ATOM     19  H   UNL     1      -4.372  -6.242   0.029  0.00  0.00    +0.169 HD
BRANCH  18  20
ATOM     20  N   UNL     1      -2.775  -7.499   0.015  0.00  0.00    -0.254 NA
ATOM     21  H   UNL     1      -3.445  -8.254   0.019  0.00  0.00    +0.140 HD
ATOM     22  H   UNL     1      -2.147  -7.577  -0.771  0.00  0.00    +0.140 HD
ENDBRANCH  18  20
ENDBRANCH   4  16
TORSDOF 3
