REMARK  Name = ZINC52300860
REMARK  4 active torsions:
REMARK  status: ('A' for Active; 'I' for Inactive)
REMARK    1  A    between atoms: C_1  and  C_2
REMARK    2  A    between atoms: C_5  and  N_7
REMARK    3  A    between atoms: N_7  and  C_8
REMARK    4  A    between atoms: C_8  and  C_14
REMARK                            x       y       z     vdW  Elec       q    Type
REMARK                         _______ _______ _______ _____ _____    ______ ____
ROOT
ATOM      1  C   UNL     1       2.018  -0.707   3.172  0.00  0.00    +0.036 C 
ATOM      2  C   UNL     1       3.121  -1.480   2.446  0.00  0.00    -0.001 C 
ATOM      3  C   UNL     1       4.098  -0.493   1.804  0.00  0.00    -0.001 C 
ATOM      4  C   UNL     1       4.721   0.387   2.889  0.00  0.00    -0.000 C 
ATOM      5  C   UNL     1       3.618   1.160   3.615  0.00  0.00    -0.001 C 
ATOM      6  C   UNL     1       2.642   0.173   4.257  0.00  0.00    -0.001 C 
ENDROOT
BRANCH   1   7
ATOM      7  N   UNL     1       1.298   0.138   2.210  0.00  0.00    +0.392 N 
ATOM      8  H   UNL     1       1.942   0.789   1.786  0.00  0.00    -0.084 HD
ATOM      9  H   UNL     1       0.571   0.647   2.688  0.00  0.00    -0.084 HD
BRANCH   7  13
ATOM     10  C   UNL     1      -0.019   1.526   0.010  0.00  0.00    +0.006 C 
ATOM     11  C   UNL     1       0.002  -0.004   0.002  0.00  0.00    -0.030 C 
ATOM     12  C   UNL     1      -0.828  -0.728   1.065  0.00  0.00    -0.014 C 
ATOM     13  C   UNL     1       0.700  -0.708   1.168  0.00  0.00    -0.067 C 
ENDBRANCH   7  13
ENDBRANCH   1   7
BRANCH   1  14
ATOM     14  C   UNL     1       1.056  -1.680   3.805  0.00  0.00    +0.345 C 
ATOM     15  O   UNL     1      -0.120  -1.670   3.484  0.00  0.00    -0.248 OA
ATOM     16  O   UNL     1       1.454  -2.476   4.638  0.00  0.00    -0.248 OA
ENDBRANCH   1  14
TORSDOF 3
