REMARK  Name = ZINC43740485
REMARK  6 active torsions:
REMARK  status: ('A' for Active; 'I' for Inactive)
REMARK    1  A    between atoms: C_1  and  C_2
REMARK    2  A    between atoms: C_2  and  C_5
REMARK    3  A    between atoms: N_3  and  O_4
REMARK    4  A    between atoms: C_10  and  C_29
REMARK    5  A    between atoms: C_21  and  C_28
REMARK    6  A    between atoms: N_25  and  O_26
REMARK                            x       y       z     vdW  Elec       q    Type
REMARK                         _______ _______ _______ _____ _____    ______ ____
ROOT
ATOM      1  C   UNL     1       0.078  -0.631  -1.208  0.00  0.00    -0.021 C 
ATOM      2  C   UNL     1       0.203  -0.095  -2.421  0.00  0.00    -0.021 C 
ATOM      3  C   UNL     1       0.122  -1.181  -3.482  0.00  0.00    +0.032 C 
ATOM      4  C   UNL     1      -0.645  -2.301  -2.751  0.00  0.00    +0.006 C 
ATOM      5  C   UNL     1      -0.081  -2.147  -1.324  0.00  0.00    -0.002 C 
ATOM      6  C   UNL     1       1.328  -2.734  -1.216  0.00  0.00    +0.012 C 
ATOM      7  C   UNL     1       1.368  -4.167  -1.737  0.00  0.00    +0.005 C 
ATOM      8  C   UNL     1       1.007  -4.148  -3.227  0.00  0.00    -0.001 C 
ATOM      9  C   UNL     1      -0.424  -3.663  -3.349  0.00  0.00    -0.003 C 
ATOM     10  C   UNL     1      -0.796  -3.669  -4.834  0.00  0.00    +0.004 C 
ATOM     11  C   UNL     1      -0.672  -5.091  -5.380  0.00  0.00    +0.005 C 
ATOM     12  C   UNL     1       0.768  -5.584  -5.218  0.00  0.00    +0.001 C 
ATOM     13  C   UNL     1       1.151  -5.562  -3.796  0.00  0.00    -0.025 C 
ATOM     14  C   UNL     1       2.611  -6.001  -3.660  0.00  0.00    +0.013 C 
ATOM     15  C   UNL     1       2.761  -7.446  -4.145  0.00  0.00    +0.055 C 
ATOM     16  C   UNL     1       2.222  -7.532  -5.556  0.00  0.00    +0.058 C 
ATOM     17  N   UNL     1       2.920  -8.045  -6.497  0.00  0.00    -0.097 NA
ATOM     18  C   UNL     1       0.857  -7.019  -5.753  0.00  0.00    +0.058 C 
ATOM     19  C   UNL     1       0.253  -6.521  -3.013  0.00  0.00    +0.012 C 
ATOM     20  C   UNL     1      -1.031  -2.712  -0.266  0.00  0.00    +0.016 C 
ENDROOT
BRANCH   1  22
ATOM     21  C   UNL     1       1.410   0.448   0.717  0.00  0.00    +0.069 C 
ATOM     22  C   UNL     1       0.097   0.121   0.053  0.00  0.00    +0.080 C 
ATOM     23  N   UNL     1      -1.016   0.504   0.596  0.00  0.00    -0.092 NA
BRANCH  23  24
ATOM     24  O   UNL     1      -2.241   0.302  -0.085  0.00  0.00    -0.409 OA
ATOM     25  H   UNL     1      -3.007   0.688   0.362  0.00  0.00    +0.328 HD
ENDBRANCH  23  24
ENDBRANCH   1  22
BRANCH  17  26
ATOM     26  O   UNL     1       2.396  -8.117  -7.810  0.00  0.00    -0.409 OA
ATOM     27  H   UNL     1       2.996  -8.520  -8.452  0.00  0.00    +0.328 HD
ENDBRANCH  17  26
TORSDOF 3
