REMARK  Name = ZINC38673459
REMARK  8 active torsions:
REMARK  status: ('A' for Active; 'I' for Inactive)
REMARK    1  A    between atoms: C_1  and  N_2
REMARK    2  A    between atoms: N_2  and  C_3
REMARK    3  A    between atoms: N_2  and  C_4
REMARK    4  A    between atoms: C_4  and  C_6
REMARK    5  A    between atoms: C_4  and  C_21
REMARK    6  A    between atoms: C_6  and  N_7
REMARK    7  A    between atoms: N_10  and  C_11
REMARK    8  A    between atoms: C_15  and  C_17
REMARK                            x       y       z     vdW  Elec       q    Type
REMARK                         _______ _______ _______ _____ _____    ______ ____
ROOT
ATOM      1  N   UNL     1      -1.779   1.535  -1.159  0.00  0.00    -0.300 N 
ATOM      2  C   UNL     1      -2.270   2.265  -2.180  0.00  0.00    +0.304 C 
ATOM      3  O   UNL     1      -2.954   1.734  -3.033  0.00  0.00    -0.253 OA
ATOM      4  N   UNL     1      -2.004   3.585  -2.254  0.00  0.00    -0.269 N 
ATOM      5  H   UNL     1      -1.233   1.959  -0.478  0.00  0.00    +0.150 HD
ATOM      6  H   UNL     1      -1.399   3.994  -1.616  0.00  0.00    +0.156 HD
ENDROOT
BRANCH   4   7
ATOM      7  C   UNL     1      -2.602   4.364  -3.251  0.00  0.00    +0.035 A 
ATOM      8  C   UNL     1      -1.904   5.422  -3.819  0.00  0.00    +0.023 A 
ATOM      9  C   UNL     1      -2.496   6.189  -4.803  0.00  0.00    +0.002 A 
ATOM     10  C   UNL     1      -3.783   5.904  -5.223  0.00  0.00    +0.012 A 
ATOM     11  C   UNL     1      -4.480   4.852  -4.659  0.00  0.00    +0.057 A 
ATOM     12  C   UNL     1      -3.891   4.078  -3.678  0.00  0.00    +0.035 A 
BRANCH  11  13
ATOM     13  C   UNL     1      -5.883   4.547  -5.118  0.00  0.00    +0.417 C 
ATOM     14  F   UNL     1      -6.256   5.457  -6.113  0.00  0.00    -0.166 F 
ATOM     15  F   UNL     1      -5.932   3.247  -5.633  0.00  0.00    -0.166 F 
ATOM     16  F   UNL     1      -6.762   4.653  -4.035  0.00  0.00    -0.166 F 
ENDBRANCH  11  13
ENDBRANCH   4   7
BRANCH   1  17
ATOM     17  C   UNL     1      -2.068   0.101  -1.078  0.00  0.00    +0.095 C 
BRANCH  17  18
ATOM     18  C   UNL     1      -1.298  -0.509   0.094  0.00  0.00    -0.020 C 
BRANCH  18  19
ATOM     19  C   UNL     1      -1.811   0.068   1.388  0.00  0.00    -0.052 A 
ATOM     20  C   UNL     1      -1.126   1.088   2.022  0.00  0.00    +0.009 A 
ATOM     21  C   UNL     1      -1.615   1.585   3.184  0.00  0.00    +0.045 A 
ATOM     22  S   UNL     1      -3.088   0.602   3.415  0.00  0.00    -0.105 S 
ATOM     23  C   UNL     1      -2.955  -0.401   1.944  0.00  0.00    +0.047 A 
ENDBRANCH  18  19
BRANCH  18  25
ATOM     24  C   UNL     1      -0.896  -2.540  -1.117  0.00  0.00    -0.096 C 
ATOM     25  N   UNL     1      -1.487  -1.966   0.099  0.00  0.00    +0.382 N 
ATOM     26  C   UNL     1      -0.831  -2.541   1.281  0.00  0.00    -0.096 C 
ATOM     27  H   UNL     1      -2.473  -2.177   0.126  0.00  0.00    -0.082 HD
ENDBRANCH  18  25
ENDBRANCH  17  18
ENDBRANCH   1  17
TORSDOF 6
