REMARK  Name = ZINC02522609
REMARK  12 active torsions:
REMARK  status: ('A' for Active; 'I' for Inactive)
REMARK    1  A    between atoms: CD1_1  and  CG_2
REMARK    2  A    between atoms: CG_2  and  CD2_3
REMARK    3  A    between atoms: CG_2  and  CB_4
REMARK    4  A    between atoms: CB_4  and  CA_5
REMARK    5  A    between atoms: CA_5  and  C_7
REMARK    6  A    between atoms: CA_5  and  N_9
REMARK    7  A    between atoms: C_10  and  CA_12
REMARK    8  A    between atoms: C_18  and  CA_20
REMARK    9  A    between atoms: CA_20  and  CB_22
REMARK   10  A    between atoms: CA_20  and  N_51
REMARK   11  A    between atoms: CB_22  and  CG1_23
REMARK   12  A    between atoms: CB_22  and  CG2_24
REMARK                            x       y       z     vdW  Elec       q    Type
REMARK                         _______ _______ _______ _____ _____    ______ ____
ROOT
ATOM      1  CA  PRO A   2       2.357   0.428   1.132  0.00  0.00    +0.162 C 
ATOM      2  CB  PRO A   2       2.571  -0.330  -0.196  0.00  0.00    +0.033 C 
ATOM      3  CG  PRO A   2       3.714   0.479  -0.873  0.00  0.00    +0.021 C 
ATOM      4  CD  PRO A   2       4.571   0.890   0.350  0.00  0.00    +0.108 C 
ATOM      5  N   PRO A   2       3.595   1.169   1.419  0.00  0.00    -0.291 N 
ATOM      6  C   VAL A   1       3.801   1.970   2.482  0.00  0.00    +0.202 C 
ATOM      7  O   VAL A   1       2.923   2.128   3.303  0.00  0.00    -0.277 OA
ENDROOT
BRANCH   1   9
ATOM      8  N   LEU A   3      -0.049   0.982   1.274  0.00  0.00    -0.301 N 
ATOM      9  C   PRO A   2       1.205   1.389   0.994  0.00  0.00    +0.234 C 
ATOM     10  O   PRO A   2       1.405   2.529   0.631  0.00  0.00    -0.274 OA
ATOM     11  H   LEU A   3      -0.220   0.052   1.494  0.00  0.00    +0.150 HD
BRANCH   8  12
ATOM     12  CA  LEU A   3      -1.155   1.942   1.241  0.00  0.00    +0.186 C 
BRANCH  12  13
ATOM     13  C   LEU A   3      -1.307   2.580   2.598  0.00  0.00    +0.376 C 
ATOM     14  O   LEU A   3      -0.567   2.266   3.500  0.00  0.00    -0.244 OA
ATOM     15  OXT LEU A   3      -2.264   3.498   2.804  0.00  0.00    -0.244 OA
ENDBRANCH  12  13
BRANCH  12  16
ATOM     16  CB  LEU A   3      -2.450   1.215   0.872  0.00  0.00    +0.037 C 
BRANCH  16  18
ATOM     17  CD1 LEU A   3      -1.267  -0.355  -0.670  0.00  0.00    +0.007 C 
ATOM     18  CG  LEU A   3      -2.360   0.712  -0.570  0.00  0.00    -0.015 C 
ATOM     19  CD2 LEU A   3      -3.702   0.107  -0.984  0.00  0.00    +0.007 C 
ENDBRANCH  16  18
ENDBRANCH  12  16
ENDBRANCH   8  12
ENDBRANCH   1   9
BRANCH   6  20
ATOM     20  CA  VAL A   1       5.125   2.671   2.651  0.00  0.00    +0.016 C 
BRANCH  20  23
ATOM     21  H1  VAL A   1       4.638   3.510   4.468  0.00  0.00    -0.089 HD
ATOM     22  H2  VAL A   1       5.820   4.338   3.641  0.00  0.00    -0.089 HD
ATOM     23  N   VAL A   1       4.944   3.826   3.549  0.00  0.00    +0.386 N 
ATOM     24  H3  VAL A   1       4.231   4.451   3.155  0.00  0.00    -0.089 HD
ENDBRANCH  20  23
BRANCH  20  25
ATOM     25  CB  VAL A   1       6.148   1.695   3.236  0.00  0.00    -0.023 C 
ATOM     26  CG1 VAL A   1       7.491   2.407   3.408  0.00  0.00    +0.006 C 
ATOM     27  CG2 VAL A   1       5.657   1.197   4.597  0.00  0.00    +0.006 C 
ENDBRANCH  20  25
ENDBRANCH   6  20
TORSDOF 8
