REMARK  Name = ZINC38984422
REMARK  5 active torsions:
REMARK  status: ('A' for Active; 'I' for Inactive)
REMARK    1  A    between atoms: C_4  and  C_7
REMARK    2  A    between atoms: C_9  and  C_13
REMARK    3  A    between atoms: C_17  and  S_30
REMARK    4  A    between atoms: N_19  and  N_20
REMARK    5  A    between atoms: C_21  and  C_22
REMARK                            x       y       z     vdW  Elec       q    Type
REMARK                         _______ _______ _______ _____ _____    ______ ____
ROOT
ATOM      1  C   UNL     1       5.782  -3.012   1.181  0.00  0.00    +0.206 C 
ATOM      2  N   UNL     1       5.471  -2.227   2.398  0.00  0.00    -0.231 NA
ATOM      3  N   UNL     1       6.608  -2.481   3.297  0.00  0.00    -0.225 NA
ATOM      4  C   UNL     1       7.767  -2.521   2.367  0.00  0.00    +0.231 C 
ATOM      5  N   UNL     1       7.243  -3.199   1.162  0.00  0.00    -0.207 N 
ATOM      6  H   UNL     1       4.605  -2.534   2.815  0.00  0.00    +0.143 HD
ATOM      7  H   UNL     1       6.710  -1.737   3.970  0.00  0.00    +0.143 HD
ENDROOT
BRANCH   1  10
ATOM      8  C   UNL     1       3.699  -0.689  -0.037  0.00  0.00    +0.091 C 
ATOM      9  C   UNL     1       3.832  -2.029  -0.051  0.00  0.00    +0.034 C 
ATOM     10  C   UNL     1       5.335  -2.245  -0.065  0.00  0.00    +0.190 C 
ATOM     11  N   UNL     1       5.871  -0.874  -0.056  0.00  0.00    -0.176 NA
ATOM     12  N   UNL     1       4.919  -0.090  -0.047  0.00  0.00    -0.154 NA
BRANCH   8  16
ATOM     13  C   UNL     1      -0.017   1.379   0.010  0.00  0.00    +0.000 A 
ATOM     14  C   UNL     1       1.169   2.092   0.002  0.00  0.00    +0.001 A 
ATOM     15  C   UNL     1       2.377   1.426  -0.013  0.00  0.00    +0.010 A 
ATOM     16  C   UNL     1       2.402   0.033  -0.021  0.00  0.00    +0.002 A 
ATOM     17  C   UNL     1       1.205  -0.680  -0.013  0.00  0.00    +0.010 A 
ATOM     18  C   UNL     1       0.002  -0.004   0.002  0.00  0.00    +0.001 A 
ENDBRANCH   8  16
ENDBRANCH   1  10
BRANCH   5  19
ATOM     19  N   UNL     1       7.989  -3.883   0.193  0.00  0.00    -0.188 NA
ATOM     20  C   UNL     1       9.278  -3.967   0.307  0.00  0.00    +0.141 C 
BRANCH  20  21
ATOM     21  C   UNL     1      10.063  -4.688  -0.713  0.00  0.00    +0.031 A 
ATOM     22  C   UNL     1      11.451  -4.786  -0.591  0.00  0.00    +0.027 A 
ATOM     23  C   UNL     1      12.179  -5.461  -1.550  0.00  0.00    +0.019 A 
ATOM     24  C   UNL     1      11.537  -6.041  -2.631  0.00  0.00    +0.018 A 
ATOM     25  C   UNL     1      10.163  -5.949  -2.760  0.00  0.00    +0.040 A 
ATOM     26  C   UNL     1       9.420  -5.281  -1.805  0.00  0.00    +0.132 A 
ATOM     27  F   UNL     1       8.077  -5.196  -1.928  0.00  0.00    -0.205 F 
ATOM     28 BR   UNL     1      14.058  -5.595  -1.385  0.00  0.00    -0.050 Br
ENDBRANCH  20  21
ENDBRANCH   5  19
BRANCH   4  29
ATOM     29  S   UNL     1       8.316  -0.839   1.966  0.00  0.00    -0.138 S 
ATOM     30  H   UNL     1       8.683  -0.325   3.153  0.00  0.00    +0.105 HD
ENDBRANCH   4  29
TORSDOF 5
