REMARK  Name = ZINC12653619
REMARK  4 active torsions:
REMARK  status: ('A' for Active; 'I' for Inactive)
REMARK    1  A    between atoms: C_1  and  C_2
REMARK    2  A    between atoms: C_5  and  C_23
REMARK    3  A    between atoms: N_9  and  C_11
REMARK    4  A    between atoms: C_11  and  O_22
REMARK                            x       y       z     vdW  Elec       q    Type
REMARK                         _______ _______ _______ _____ _____    ______ ____
ROOT
ATOM      1  C   UNL     1      -5.071   1.917  -2.780  0.00  0.00    +0.018 C 
ATOM      2  C   UNL     1      -4.452   3.306  -2.612  0.00  0.00    +0.024 C 
ATOM      3  C   UNL     1      -3.411   3.598  -3.706  0.00  0.00    -0.067 C 
ATOM      4  C   UNL     1      -3.883   6.003  -3.650  0.00  0.00    -0.067 C 
ATOM      5  C   UNL     1      -4.945   5.816  -2.554  0.00  0.00    +0.024 C 
ATOM      6  C   UNL     1      -5.504   4.406  -2.707  0.00  0.00    +0.144 C 
ATOM      7  O   UNL     1      -6.676   4.180  -2.887  0.00  0.00    -0.296 OA
ATOM      8  C   UNL     1      -4.233   5.862  -1.192  0.00  0.00    +0.100 C 
ATOM      9  N   UNL     1      -3.199   4.822  -1.150  0.00  0.00    -0.262 NA
ATOM     10  C   UNL     1      -3.764   3.471  -1.247  0.00  0.00    +0.100 C 
ATOM     11  C   UNL     1      -6.046   6.874  -2.650  0.00  0.00    +0.018 C 
ATOM     12  N   UNL     1      -2.840   4.947  -3.500  0.00  0.00    +0.380 N 
ATOM     13  H   UNL     1      -2.100   5.107  -4.193  0.00  0.00    -0.086 HD
ATOM     14  H   UNL     1      -2.442   5.002  -2.555  0.00  0.00    -0.086 HD
ENDROOT
BRANCH   9  15
ATOM     15  C   UNL     1      -2.364   4.958   0.050  0.00  0.00    +0.226 C 
ATOM     16  C   UNL     1      -1.673   6.302   0.065  0.00  0.00    +0.030 A 
ATOM     17  C   UNL     1      -0.774   6.901  -0.788  0.00  0.00    +0.025 A 
ATOM     18  C   UNL     1      -0.299   8.172  -0.509  0.00  0.00    +0.018 A 
ATOM     19  C   UNL     1      -0.738   8.837   0.622  0.00  0.00    +0.017 A 
ATOM     20  C   UNL     1      -1.643   8.240   1.475  0.00  0.00    +0.025 A 
ATOM     21  C   UNL     1      -2.121   6.960   1.203  0.00  0.00    +0.041 A 
ATOM     22  N   UNL     1      -3.026   6.156   1.900  0.00  0.00    -0.281 N 
ATOM     23  C   UNL     1      -3.223   4.972   1.296  0.00  0.00    +0.269 C 
ATOM     24  O   UNL     1      -3.953   4.082   1.679  0.00  0.00    -0.270 OA
ATOM     25 BR   UNL     1       0.942   8.998  -1.673  0.00  0.00    -0.050 Br
ATOM     26  H   UNL     1      -3.461   6.423   2.725  0.00  0.00    +0.155 HD
BRANCH  15  27
ATOM     27  O   UNL     1      -1.406   3.899   0.115  0.00  0.00    -0.363 OA
ATOM     28  H   UNL     1      -0.808   3.955   0.873  0.00  0.00    +0.213 HD
ENDBRANCH  15  27
ENDBRANCH   9  15
TORSDOF 2
