REMARK  Name = ZINC61483142
REMARK  4 active torsions:
REMARK  status: ('A' for Active; 'I' for Inactive)
REMARK    1  A    between atoms: C_5  and  C_6
REMARK    2  A    between atoms: N_8  and  N_9
REMARK    3  A    between atoms: C_10  and  C_12
REMARK    4  A    between atoms: C_12  and  N_13
REMARK                            x       y       z     vdW  Elec       q    Type
REMARK                         _______ _______ _______ _____ _____    ______ ____
ROOT
ATOM      1  N   UNL     1      -2.077  -3.108   0.006  0.00  0.00    -0.233 N 
ATOM      2  C   UNL     1      -1.890  -4.442  -0.003  0.00  0.00    +0.243 C 
ATOM      3  O   UNL     1      -0.766  -4.897  -0.016  0.00  0.00    -0.273 OA
ATOM      4  H   UNL     1      -2.976  -2.744   0.018  0.00  0.00    +0.173 HD
ENDROOT
BRANCH   1   7
ATOM      5  C   UNL     1      -1.160  -0.911   0.009  0.00  0.00    +0.263 C 
ATOM      6  O   UNL     1      -2.287  -0.455   0.023  0.00  0.00    -0.269 OA
ATOM      7  N   UNL     1      -0.973  -2.246  -0.000  0.00  0.00    -0.230 N 
ATOM      8  H   UNL     1      -0.074  -2.609  -0.011  0.00  0.00    +0.173 HD
BRANCH   5  13
ATOM      9  C   UNL     1      -0.018   1.466   0.010  0.00  0.00    +0.054 A 
ATOM     10  C   UNL     1       1.267   1.852  -0.000  0.00  0.00    +0.195 A 
ATOM     11  O   UNL     1       2.053   0.765  -0.013  0.00  0.00    -0.470 OA
ATOM     12  C   UNL     1       1.321  -0.353  -0.012  0.00  0.00    +0.208 A 
ATOM     13  C   UNL     1       0.002  -0.004   0.002  0.00  0.00    +0.076 A 
ENDBRANCH   5  13
ENDBRANCH   1   7
BRANCH   2  14
ATOM     14  C   UNL     1      -3.078  -5.370   0.005  0.00  0.00    +0.182 C 
BRANCH  14  15
ATOM     15  N   UNL     1      -2.612  -6.763  -0.008  0.00  0.00    -0.289 NA
ATOM     16  C   UNL     1      -3.724  -7.687  -0.272  0.00  0.00    +0.090 C 
ATOM     17  C   UNL     1      -3.145  -9.053  -0.682  0.00  0.00    +0.058 C 
ATOM     18  C   UNL     1      -2.061  -9.396   0.287  0.00  0.00    -0.005 A 
ATOM     19  C   UNL     1      -1.467  -8.552   1.176  0.00  0.00    -0.023 A 
ATOM     20  C   UNL     1      -0.475  -9.099   1.986  0.00  0.00    +0.013 A 
ATOM     21  C   UNL     1      -0.145 -10.406   1.863  0.00  0.00    +0.046 A 
ATOM     22  S   UNL     1      -1.249 -10.944   0.564  0.00  0.00    -0.101 S 
ATOM     23  C   UNL     1      -1.905  -7.092   1.236  0.00  0.00    +0.120 C 
ENDBRANCH  14  15
ENDBRANCH   2  14
TORSDOF 4
