REMARK  Name = ZINC42634571
REMARK  9 active torsions:
REMARK  status: ('A' for Active; 'I' for Inactive)
REMARK    1  A    between atoms: C_1  and  C_2
REMARK    2  A    between atoms: C_2  and  C_3
REMARK    3  A    between atoms: C_3  and  C_5
REMARK    4  A    between atoms: C_3  and  N_6
REMARK    5  A    between atoms: C_7  and  C_9
REMARK    6  A    between atoms: C_9  and  C_11
REMARK    7  A    between atoms: C_9  and  N_12
REMARK    8  A    between atoms: N_15  and  S_18
REMARK    9  A    between atoms: S_18  and  N_21
REMARK                            x       y       z     vdW  Elec       q    Type
REMARK                         _______ _______ _______ _____ _____    ______ ____
ROOT
ATOM      1  N   UNL     1       4.836   0.437  -3.659  0.00  0.00    -0.289 NA
ATOM      2  C   UNL     1       6.304   0.385  -3.617  0.00  0.00    +0.102 C 
ATOM      3  C   UNL     1       6.845   0.170  -5.035  0.00  0.00    +0.126 C 
ATOM      4  N   UNL     1       6.285   1.210  -5.911  0.00  0.00    -0.164 NA
ATOM      5  C   UNL     1       4.829   1.415  -5.905  0.00  0.00    +0.126 C 
ATOM      6  C   UNL     1       4.367   1.581  -4.453  0.00  0.00    +0.102 C 
ENDROOT
BRANCH   4   7
ATOM      7  S   UNL     1       7.268   2.124  -6.880  0.00  0.00    +0.095 S 
ATOM      8  O   UNL     1       6.569   3.333  -7.142  0.00  0.00    -0.141 OA
ATOM      9  O   UNL     1       8.558   2.104  -6.284  0.00  0.00    -0.141 OA
BRANCH   7  10
ATOM     10  N   UNL     1       7.404   1.332  -8.328  0.00  0.00    -0.193 NA
ATOM     11  H   UNL     1       7.541   1.836  -9.145  0.00  0.00    +0.145 HD
ATOM     12  H   UNL     1       7.345   0.365  -8.358  0.00  0.00    +0.145 HD
ENDBRANCH   7  10
ENDBRANCH   4   7
BRANCH   1  13
ATOM     13  C   UNL     1       4.271   0.470  -2.304  0.00  0.00    +0.140 C 
ATOM     14  C   UNL     1       4.436   1.873  -1.716  0.00  0.00    +0.034 C 
BRANCH  13  16
ATOM     15  N   UNL     1       2.147  -0.207  -1.232  0.00  0.00    -0.311 N 
ATOM     16  C   UNL     1       2.807   0.118  -2.361  0.00  0.00    +0.230 C 
ATOM     17  O   UNL     1       2.223   0.126  -3.424  0.00  0.00    -0.274 OA
ATOM     18  H   UNL     1       2.614  -0.213  -0.382  0.00  0.00    +0.149 HD
BRANCH  15  19
ATOM     19  C   UNL     1       0.724  -0.549  -1.288  0.00  0.00    +0.070 C 
ATOM     20  C   UNL     1       0.569  -2.032  -1.630  0.00  0.00    +0.028 C 
BRANCH  19  22
ATOM     21  C   UNL     1       0.122   1.234   0.356  0.00  0.00    +0.005 C 
ATOM     22  C   UNL     1       0.078  -0.268   0.070  0.00  0.00    +0.018 C 
ENDBRANCH  19  22
ENDBRANCH  15  19
ENDBRANCH  13  16
ENDBRANCH   1  13
TORSDOF 6
