REMARK  Name = ZINC30884163
REMARK  9 active torsions:
REMARK  status: ('A' for Active; 'I' for Inactive)
REMARK    1  A    between atoms: C_1  and  C_2
REMARK    2  A    between atoms: C_2  and  N_3
REMARK    3  A    between atoms: N_6  and  C_7
REMARK    4  A    between atoms: C_11  and  C_35
REMARK    5  A    between atoms: C_14  and  C_24
REMARK    6  A    between atoms: C_16  and  O_23
REMARK    7  A    between atoms: C_20  and  C_22
REMARK    8  A    between atoms: C_24  and  C_26
REMARK    9  A    between atoms: C_24  and  C_27
REMARK                            x       y       z     vdW  Elec       q    Type
REMARK                         _______ _______ _______ _____ _____    ______ ____
ROOT
ATOM      1  C   UNL     1       1.794  -1.015  -1.088  0.00  0.00    +0.078 C 
ATOM      2  C   UNL     1       2.130   0.470  -0.941  0.00  0.00    +0.023 C 
ATOM      3  C   UNL     1       1.321   1.065   0.214  0.00  0.00    +0.009 C 
ATOM      4  C   UNL     1      -0.173   0.906  -0.074  0.00  0.00    -0.027 C 
ATOM      5  C   UNL     1      -0.981   1.500   1.081  0.00  0.00    +0.007 C 
ATOM      6  C   UNL     1      -2.475   1.341   0.792  0.00  0.00    +0.007 C 
ATOM      7  C   UNL     1      -2.811  -0.144   0.646  0.00  0.00    +0.029 C 
ATOM      8  C   UNL     1      -2.003  -0.739  -0.509  0.00  0.00    +0.122 C 
ATOM      9  C   UNL     1      -0.509  -0.580  -0.221  0.00  0.00    +0.028 C 
ATOM     10  C   UNL     1       0.299  -1.174  -1.376  0.00  0.00    +0.012 C 
ATOM     11  C   UNL     1      -0.037  -2.659  -1.523  0.00  0.00    +0.010 C 
ATOM     12  C   UNL     1      -0.523   1.638  -1.371  0.00  0.00    +0.011 C 
ENDROOT
BRANCH   1  16
ATOM     13  N   UNL     1       4.537  -2.545  -2.999  0.00  0.00    -0.300 N 
ATOM     14  C   UNL     1       3.825  -2.022  -1.982  0.00  0.00    +0.300 C 
ATOM     15  O   UNL     1       4.316  -1.945  -0.872  0.00  0.00    -0.253 OA
ATOM     16  N   UNL     1       2.568  -1.584  -2.194  0.00  0.00    -0.296 N 
ATOM     17  H   UNL     1       4.092  -2.615  -4.003  0.00  0.00    +0.150 HD
ATOM     18  H   UNL     1       2.123  -1.654  -3.197  0.00  0.00    +0.151 HD
BRANCH  13  20
ATOM     19  C   UNL     1       6.482  -3.563  -4.077  0.00  0.00    +0.024 C 
ATOM     20  C   UNL     1       5.903  -3.021  -2.768  0.00  0.00    +0.102 C 
ENDBRANCH  13  20
ENDBRANCH   1  16
BRANCH   8  21
ATOM     21  O   UNL     1      -2.317  -2.126  -0.646  0.00  0.00    -0.391 OA
ATOM     22  H   UNL     1      -1.830  -2.725  -1.429  0.00  0.00    +0.210 HD
ENDBRANCH   8  21
BRANCH   7  23
ATOM     23  C   UNL     1      -4.306  -0.303   0.357  0.00  0.00    +0.078 C 
ATOM     24  C   UNL     1      -4.662   0.459  -0.920  0.00  0.00    +0.017 C 
BRANCH  23  25
ATOM     25  C   UNL     1      -5.101   0.250   1.512  0.00  0.00    +0.219 C 
ATOM     26  O   UNL     1      -5.478   1.403   1.491  0.00  0.00    -0.275 OA
ATOM     27  N   UNL     1      -5.395  -0.536   2.566  0.00  0.00    -0.301 N 
ATOM     28  C   UNL     1      -4.864  -1.903   2.651  0.00  0.00    +0.108 C 
ATOM     29  C   UNL     1      -4.144  -2.065   3.999  0.00  0.00    +0.019 C 
ATOM     30  C   UNL     1      -5.105  -1.693   5.131  0.00  0.00    +0.003 C 
ATOM     31  C   UNL     1      -5.527  -0.229   4.983  0.00  0.00    +0.019 C 
ATOM     32  C   UNL     1      -6.258  -0.045   3.649  0.00  0.00    +0.108 C 
ENDBRANCH  23  25
ENDBRANCH   7  23
TORSDOF 5
