REMARK  Name = ZINC13078213
REMARK  6 active torsions:
REMARK  status: ('A' for Active; 'I' for Inactive)
REMARK    1  A    between atoms: C_1  and  C_2
REMARK    2  A    between atoms: C_2  and  N_46
REMARK    3  A    between atoms: C_5  and  C_26
REMARK    4  A    between atoms: C_15  and  C_16
REMARK    5  A    between atoms: C_18  and  O_24
REMARK    6  A    between atoms: C_19  and  O_23
REMARK                            x       y       z     vdW  Elec       q    Type
REMARK                         _______ _______ _______ _____ _____    ______ ____
ROOT
ATOM      1  C   UNL     1      -2.497  -2.952   0.318  0.00  0.00    -0.040 C 
ATOM      2  C   UNL     1      -1.365  -1.989   0.545  0.00  0.00    -0.024 A 
ATOM      3  C   UNL     1      -1.646  -0.677   0.900  0.00  0.00    +0.076 A 
ATOM      4  C   UNL     1      -0.512   0.221   1.121  0.00  0.00    +0.015 A 
ATOM      5  C   UNL     1      -0.699   1.558   1.484  0.00  0.00    +0.011 A 
ATOM      6  C   UNL     1       0.386   2.361   1.683  0.00  0.00    +0.001 A 
ATOM      7  C   UNL     1       1.679   1.865   1.530  0.00  0.00    +0.002 A 
ATOM      8  C   UNL     1       1.896   0.568   1.177  0.00  0.00    +0.028 A 
ATOM      9  C   UNL     1       0.801  -0.289   0.961  0.00  0.00    +0.072 A 
ATOM     10  N   UNL     1       0.984  -1.563   0.613  0.00  0.00    -0.247 NA
ATOM     11  C   UNL     1      -0.024  -2.392   0.407  0.00  0.00    +0.068 A 
ATOM     12  C   UNL     1       0.256  -3.792   0.013  0.00  0.00    -0.038 C 
ATOM     13  C   UNL     1       1.488  -4.184  -0.358  0.00  0.00    +0.012 C 
ATOM     14  C   UNL     1      -0.907  -4.763   0.048  0.00  0.00    -0.040 C 
ATOM     15  N   UNL     1      -2.069  -4.064  -0.551  0.00  0.00    +0.385 N 
ATOM     16  H   UNL     1      -1.795  -3.686  -1.465  0.00  0.00    -0.081 HD
ENDROOT
BRANCH  13  17
ATOM     17  C   UNL     1       1.769  -5.612  -0.583  0.00  0.00    -0.020 A 
ATOM     18  C   UNL     1       1.112  -6.584   0.177  0.00  0.00    +0.057 A 
ATOM     19  C   UNL     1       1.376  -7.923  -0.041  0.00  0.00    +0.160 A 
ATOM     20  C   UNL     1       2.304  -8.302  -1.009  0.00  0.00    +0.177 A 
ATOM     21  C   UNL     1       2.961  -7.337  -1.762  0.00  0.00    +0.087 A 
ATOM     22  C   UNL     1       2.699  -5.998  -1.553  0.00  0.00    +0.031 A 
ATOM     23 CL   UNL     1       4.115  -7.816  -2.966  0.00  0.00    -0.080 Cl
BRANCH  20  24
ATOM     24  O   UNL     1       2.567  -9.619  -1.218  0.00  0.00    -0.502 OA
ATOM     25  H   UNL     1       3.287  -9.967  -0.674  0.00  0.00    +0.292 HD
ENDBRANCH  20  24
BRANCH  19  26
ATOM     26  O   UNL     1       0.735  -8.871   0.694  0.00  0.00    -0.503 OA
ATOM     27  H   UNL     1       1.193  -9.112   1.510  0.00  0.00    +0.292 HD
ENDBRANCH  19  26
ENDBRANCH  13  17
BRANCH   3  28
ATOM     28  C   UNL     1      -3.039  -0.205   1.052  0.00  0.00    +0.387 C 
ATOM     29  O   UNL     1      -3.629   0.261   0.099  0.00  0.00    -0.241 OA
ATOM     30  O   UNL     1      -3.653  -0.292   2.248  0.00  0.00    -0.241 OA
ENDBRANCH   3  28
BRANCH  15  32
ATOM     31  C   UNL     1      -3.521  -5.720   0.575  0.00  0.00    -0.017 C 
ATOM     32  C   UNL     1      -3.185  -5.014  -0.741  0.00  0.00    -0.081 C 
ENDBRANCH  15  32
TORSDOF 5
