REMARK  Name = ZINC50444823
REMARK  4 active torsions:
REMARK  status: ('A' for Active; 'I' for Inactive)
REMARK    1  A    between atoms: C_3  and  C_11
REMARK    2  A    between atoms: C_4  and  N_8
REMARK    3  A    between atoms: C_11  and  N_12
REMARK    4  A    between atoms: C_16  and  N_19
REMARK                            x       y       z     vdW  Elec       q    Type
REMARK                         _______ _______ _______ _____ _____    ______ ____
ROOT
ATOM      1  C   UNL     1      -0.017   1.379   0.010  0.00  0.00    +0.020 A 
ATOM      2  C   UNL     1       1.171   2.086   0.002  0.00  0.00    +0.008 A 
ATOM      3  C   UNL     1       2.377   1.411  -0.013  0.00  0.00    -0.003 A 
ATOM      4  C   UNL     1       2.397   0.029  -0.022  0.00  0.00    +0.132 A 
ATOM      5  C   UNL     1       1.210  -0.679  -0.014  0.00  0.00    +0.053 A 
ATOM      6  C   UNL     1       0.002  -0.004   0.002  0.00  0.00    +0.043 A 
ATOM      7 CL   UNL     1      -1.489  -0.893   0.012  0.00  0.00    -0.083 Cl
ENDROOT
BRANCH   4   8
ATOM      8  N   UNL     1       3.689  -0.693  -0.039  0.00  0.00    +0.057 N 
ATOM      9  O   UNL     1       3.706  -1.902  -0.046  0.00  0.00    -0.126 OA
ATOM     10  O   UNL     1       4.727  -0.073  -0.047  0.00  0.00    -0.126 OA
ENDBRANCH   4   8
BRANCH   3  11
ATOM     11  C   UNL     1       3.672   2.183  -0.022  0.00  0.00    +0.122 C 
BRANCH  11  12
ATOM     12  N   UNL     1       4.202   2.234  -1.391  0.00  0.00    -0.297 NA
ATOM     13  C   UNL     1       3.319   3.013  -2.269  0.00  0.00    +0.085 C 
ATOM     14  C   UNL     1       3.823   2.924  -3.711  0.00  0.00    +0.017 C 
ATOM     15  C   UNL     1       5.253   3.468  -3.781  0.00  0.00    +0.021 C 
ATOM     16  C   UNL     1       6.141   2.671  -2.823  0.00  0.00    +0.065 C 
ATOM     17  C   UNL     1       5.570   2.768  -1.406  0.00  0.00    +0.103 C 
BRANCH  16  18
ATOM     18  N   UNL     1       7.503   3.223  -2.842  0.00  0.00    -0.326 NA
ATOM     19  H   UNL     1       7.900   3.173  -3.768  0.00  0.00    +0.119 HD
ATOM     20  H   UNL     1       7.513   4.171  -2.495  0.00  0.00    +0.119 HD
ENDBRANCH  16  18
ENDBRANCH  11  12
ENDBRANCH   3  11
TORSDOF 4
