REMARK  Name = ZINC50331599
REMARK  6 active torsions:
REMARK  status: ('A' for Active; 'I' for Inactive)
REMARK    1  A    between atoms: C_3  and  N_18
REMARK    2  A    between atoms: C_6  and  N_7
REMARK    3  A    between atoms: C_8  and  C_10
REMARK    4  A    between atoms: C_10  and  N_11
REMARK    5  A    between atoms: C_19  and  C_21
REMARK    6  A    between atoms: C_22  and  C_23
REMARK                            x       y       z     vdW  Elec       q    Type
REMARK                         _______ _______ _______ _____ _____    ______ ____
ROOT
ATOM      1  C   UNL     1       0.477   0.962  -0.985  0.00  0.00    +0.025 A 
ATOM      2  C   UNL     1       1.600   1.763  -0.934  0.00  0.00    +0.025 A 
ATOM      3  C   UNL     1       2.571   1.538   0.034  0.00  0.00    +0.034 A 
ATOM      4  C   UNL     1       2.412   0.507   0.950  0.00  0.00    +0.025 A 
ATOM      5  C   UNL     1       1.288  -0.294   0.899  0.00  0.00    +0.025 A 
ATOM      6  C   UNL     1       0.318  -0.069  -0.068  0.00  0.00    +0.033 A 
ENDROOT
BRANCH   6   7
ATOM      7  N   UNL     1      -0.822  -0.882  -0.119  0.00  0.00    -0.287 N 
ATOM      8  C   UNL     1      -0.727  -2.194   0.174  0.00  0.00    +0.201 C 
ATOM      9  O   UNL     1       0.326  -2.655   0.562  0.00  0.00    -0.278 OA
ATOM     10  H   UNL     1      -1.679  -0.501  -0.366  0.00  0.00    +0.155 HD
BRANCH   8  11
ATOM     11  C   UNL     1      -1.930  -3.089   0.020  0.00  0.00    +0.019 C 
BRANCH  11  12
ATOM     12  N   UNL     1      -1.571  -4.462   0.400  0.00  0.00    +0.385 N 
ATOM     13  C   UNL     1      -0.502  -4.938  -0.501  0.00  0.00    -0.078 C 
ATOM     14  C   UNL     1       0.267  -6.023   0.210  0.00  0.00    -0.019 C 
ATOM     15  C   UNL     1      -0.244  -7.423  -0.178  0.00  0.00    -0.002 C 
ATOM     16  C   UNL     1      -1.783  -7.464  -0.273  0.00  0.00    -0.002 C 
ATOM     17  C   UNL     1      -2.447  -6.694   0.840  0.00  0.00    -0.019 C 
ATOM     18  C   UNL     1      -2.720  -5.253   0.361  0.00  0.00    -0.078 C 
ATOM     19  H   UNL     1      -1.215  -4.453   1.344  0.00  0.00    -0.081 HD
ENDBRANCH  11  12
ENDBRANCH   8  11
ENDBRANCH   6   7
BRANCH   3  20
ATOM     20  N   UNL     1       3.710   2.350   0.084  0.00  0.00    -0.282 N 
ATOM     21  C   UNL     1       3.615   3.662  -0.207  0.00  0.00    +0.241 C 
ATOM     22  O   UNL     1       2.558   4.126  -0.594  0.00  0.00    -0.270 OA
ATOM     23  H   UNL     1       4.567   1.968   0.329  0.00  0.00    +0.155 HD
BRANCH  21  24
ATOM     24  C   UNL     1       4.747   4.503  -0.063  0.00  0.00    +0.069 C 
ATOM     25  C   UNL     1       4.652   5.820  -0.355  0.00  0.00    +0.033 C 
BRANCH  25  26
ATOM     26  C   UNL     1       5.823   6.691  -0.206  0.00  0.00    +0.071 A 
ATOM     27  C   UNL     1       5.774   8.043  -0.487  0.00  0.00    +0.074 A 
ATOM     28  S   UNL     1       7.345   8.537  -0.153  0.00  0.00    -0.083 S 
ATOM     29  C   UNL     1       8.000   7.065   0.318  0.00  0.00    +0.156 A 
ATOM     30  N   UNL     1       7.005   6.228   0.216  0.00  0.00    -0.248 NA
ENDBRANCH  25  26
ENDBRANCH  21  24
ENDBRANCH   3  20
TORSDOF 6
