REMARK  Name = ZINC44169788
REMARK  5 active torsions:
REMARK  status: ('A' for Active; 'I' for Inactive)
REMARK    1  A    between atoms: C_1  and  O_2
REMARK    2  A    between atoms: O_2  and  C_3
REMARK    3  A    between atoms: C_5  and  O_26
REMARK    4  A    between atoms: C_7  and  O_25
REMARK    5  A    between atoms: C_16  and  C_19
REMARK                            x       y       z     vdW  Elec       q    Type
REMARK                         _______ _______ _______ _____ _____    ______ ____
ROOT
ATOM      1  C   UNL     1      -1.497  -0.143   0.217  0.00  0.00    +0.281 C 
ATOM      2  C   UNL     1      -1.371  -1.638  -0.080  0.00  0.00    +0.201 C 
ATOM      3  C   UNL     1      -0.580  -2.322   1.042  0.00  0.00    +0.179 C 
ATOM      4  C   UNL     1      -1.280  -2.037   2.371  0.00  0.00    +0.184 C 
ATOM      5  C   UNL     1      -1.353  -0.518   2.570  0.00  0.00    +0.178 C 
ATOM      6  O   UNL     1      -2.101   0.051   1.500  0.00  0.00    -0.341 OA
ATOM      7  C   UNL     1      -2.015  -0.238   3.920  0.00  0.00    +0.197 C 
ATOM      8  O   UNL     1      -1.274  -0.925   4.936  0.00  0.00    -0.345 OA
ATOM      9  C   UNL     1      -1.164  -2.335   4.735  0.00  0.00    +0.282 C 
ATOM     10  O   UNL     1      -0.560  -2.605   3.465  0.00  0.00    -0.339 OA
ENDROOT
BRANCH   9  11
ATOM     11  C   UNL     1      -2.537  -2.954   4.773  0.00  0.00    +0.008 A 
ATOM     12  C   UNL     1      -2.794  -4.111   4.061  0.00  0.00    +0.008 A 
ATOM     13  C   UNL     1      -4.054  -4.679   4.096  0.00  0.00    +0.000 A 
ATOM     14  C   UNL     1      -5.056  -4.091   4.844  0.00  0.00    +0.000 A 
ATOM     15  C   UNL     1      -4.799  -2.935   5.558  0.00  0.00    +0.000 A 
ATOM     16  C   UNL     1      -3.538  -2.369   5.526  0.00  0.00    +0.008 A 
ENDBRANCH   9  11
BRANCH   1  18
ATOM     17  C   UNL     1      -0.210   1.874   0.359  0.00  0.00    +0.197 C 
ATOM     18  O   UNL     1      -0.199   0.453   0.209  0.00  0.00    -0.352 OA
ENDBRANCH   1  18
BRANCH   3  19
ATOM     19  O   UNL     1       0.752  -1.805   1.075  0.00  0.00    -0.386 OA
ATOM     20  H   UNL     1       1.247  -1.940   0.255  0.00  0.00    +0.210 HD
ENDBRANCH   3  19
BRANCH   2  21
ATOM     21  O   UNL     1      -2.675  -2.218  -0.163  0.00  0.00    -0.384 OA
ATOM     22  H   UNL     1      -3.232  -1.836  -0.855  0.00  0.00    +0.210 HD
ENDBRANCH   2  21
TORSDOF 4
