REMARK  Name = ZINC48624147
REMARK  9 active torsions:
REMARK  status: ('A' for Active; 'I' for Inactive)
REMARK    1  A    between atoms: C_1  and  C_2
REMARK    2  A    between atoms: C_5  and  C_10
REMARK    3  A    between atoms: C_6  and  O_9
REMARK    4  A    between atoms: C_7  and  C_8
REMARK    5  A    between atoms: N_12  and  C_13
REMARK    6  A    between atoms: C_13  and  C_15
REMARK    7  A    between atoms: C_13  and  C_16
REMARK    8  A    between atoms: N_18  and  C_19
REMARK    9  A    between atoms: N_18  and  C_20
REMARK                            x       y       z     vdW  Elec       q    Type
REMARK                         _______ _______ _______ _____ _____    ______ ____
ROOT
ATOM      1  C   UNL     1       0.059  -4.252  -0.036  0.00  0.00    +0.248 C 
ATOM      2  O   UNL     1       0.072  -4.870   1.011  0.00  0.00    -0.270 OA
ATOM      3  N   UNL     1       0.062  -4.915  -1.209  0.00  0.00    -0.300 N 
ATOM      4  H   UNL     1       0.051  -4.423  -2.045  0.00  0.00    +0.150 HD
ENDROOT
BRANCH   1   9
ATOM      5  C   UNL     1      -0.018   1.503   0.010  0.00  0.00    +0.044 C 
ATOM      6  C   UNL     1       0.002  -0.004   0.002  0.00  0.00    -0.044 A 
ATOM      7  C   UNL     1       0.006  -0.686  -1.204  0.00  0.00    +0.004 A 
ATOM      8  C   UNL     1       0.024  -2.064  -1.224  0.00  0.00    +0.017 A 
ATOM      9  C   UNL     1       0.040  -2.777  -0.022  0.00  0.00    +0.078 A 
ATOM     10  C   UNL     1       0.036  -2.084   1.195  0.00  0.00    +0.132 A 
ATOM     11  C   UNL     1       0.023  -0.697   1.196  0.00  0.00    -0.005 A 
ATOM     12  C   UNL     1       0.025   0.055   2.502  0.00  0.00    +0.048 C 
BRANCH  10  13
ATOM     13  O   UNL     1       0.050  -2.766   2.368  0.00  0.00    -0.506 OA
ATOM     14  H   UNL     1       0.938  -2.952   2.704  0.00  0.00    +0.292 HD
ENDBRANCH  10  13
ENDBRANCH   1   9
BRANCH   3  15
ATOM     15  C   UNL     1       0.082  -6.380  -1.223  0.00  0.00    +0.156 C 
ATOM     16  C   UNL     1      -1.348  -6.910  -1.095  0.00  0.00    +0.038 C 
BRANCH  15  17
ATOM     17  C   UNL     1       0.682  -6.863  -2.518  0.00  0.00    +0.235 C 
ATOM     18  O   UNL     1       1.057  -6.062  -3.348  0.00  0.00    -0.274 OA
ATOM     19  N   UNL     1       0.802  -8.184  -2.754  0.00  0.00    -0.306 N 
ATOM     20  C   UNL     1       1.386  -8.653  -4.013  0.00  0.00    +0.131 C 
ATOM     21  C   UNL     1       0.350  -9.152  -1.751  0.00  0.00    +0.131 C 
ENDBRANCH  15  17
ENDBRANCH   3  15
TORSDOF 4
