REMARK  Name = ZINC37290546
REMARK  7 active torsions:
REMARK  status: ('A' for Active; 'I' for Inactive)
REMARK    1  A    between atoms: C_1  and  C_2
REMARK    2  A    between atoms: C_4  and  N_21
REMARK    3  A    between atoms: C_6  and  S_8
REMARK    4  A    between atoms: S_8  and  N_11
REMARK    5  A    between atoms: N_11  and  C_12
REMARK    6  A    between atoms: C_15  and  O_19
REMARK    7  A    between atoms: O_19  and  C_20
REMARK                            x       y       z     vdW  Elec       q    Type
REMARK                         _______ _______ _______ _____ _____    ______ ____
ROOT
ATOM      1  S   UNL     1       0.500  -2.259   2.481  0.00  0.00    +0.072 S 
ATOM      2  O   UNL     1      -0.038  -1.577   3.606  0.00  0.00    -0.150 OA
ATOM      3  O   UNL     1      -0.312  -2.999   1.579  0.00  0.00    -0.150 OA
ENDROOT
BRANCH   1   9
ATOM      4  C   UNL     1       3.191   2.201   2.060  0.00  0.00    +0.044 C 
ATOM      5  C   UNL     1       2.579   1.001   1.384  0.00  0.00    -0.047 A 
ATOM      6  C   UNL     1       2.687   0.851   0.015  0.00  0.00    +0.026 A 
ATOM      7  C   UNL     1       2.123  -0.256  -0.606  0.00  0.00    +0.027 A 
ATOM      8  C   UNL     1       1.453  -1.208   0.151  0.00  0.00    +0.051 A 
ATOM      9  C   UNL     1       1.350  -1.052   1.519  0.00  0.00    +0.110 A 
ATOM     10  C   UNL     1       1.917   0.049   2.136  0.00  0.00    +0.032 A 
BRANCH   7  11
ATOM     11  N   UNL     1       2.229  -0.410  -1.990  0.00  0.00    -0.358 N 
ATOM     12  H   UNL     1       2.697   0.256  -2.518  0.00  0.00    +0.142 HD
ATOM     13  H   UNL     1       1.835  -1.183  -2.424  0.00  0.00    +0.142 HD
ENDBRANCH   7  11
ENDBRANCH   1   9
BRANCH   1  14
ATOM     14  N   UNL     1       1.638  -3.311   3.065  0.00  0.00    -0.216 N 
ATOM     15  H   UNL     1       1.779  -3.391   4.021  0.00  0.00    +0.174 HD
BRANCH  14  16
ATOM     16  C   UNL     1       2.397  -4.082   2.178  0.00  0.00    +0.051 A 
ATOM     17  C   UNL     1       1.825  -5.177   1.544  0.00  0.00    +0.028 A 
ATOM     18  C   UNL     1       2.574  -5.939   0.668  0.00  0.00    +0.050 A 
ATOM     19  C   UNL     1       3.899  -5.612   0.423  0.00  0.00    +0.155 A 
ATOM     20  C   UNL     1       4.474  -4.518   1.056  0.00  0.00    +0.167 A 
ATOM     21  C   UNL     1       3.722  -3.751   1.928  0.00  0.00    +0.066 A 
ATOM     22  F   UNL     1       5.765  -4.200   0.817  0.00  0.00    -0.202 F 
BRANCH  19  23
ATOM     23  O   UNL     1       4.636  -6.364  -0.439  0.00  0.00    -0.492 OA
ATOM     24  C   UNL     1       3.981  -7.475  -1.054  0.00  0.00    +0.277 C 
ENDBRANCH  19  23
ENDBRANCH  14  16
ENDBRANCH   1  14
TORSDOF 5
