REMARK  Name = ZINC61886052
REMARK  4 active torsions:
REMARK  status: ('A' for Active; 'I' for Inactive)
REMARK    1  A    between atoms: C_9  and  C_12
REMARK    2  A    between atoms: N_14  and  C_15
REMARK    3  A    between atoms: C_20  and  C_22
REMARK    4  A    between atoms: C_22  and  N_24
REMARK                            x       y       z     vdW  Elec       q    Type
REMARK                         _______ _______ _______ _____ _____    ______ ____
ROOT
ATOM      1  C   UNL     1       4.828  -2.672   0.405  0.00  0.00    +0.257 C 
ATOM      2  O   UNL     1       5.672  -2.102   1.063  0.00  0.00    -0.272 OA
ATOM      3  N   UNL     1       5.082  -3.894  -0.103  0.00  0.00    -0.309 N 
ATOM      4  H   UNL     1       4.407  -4.351  -0.629  0.00  0.00    +0.149 HD
ENDROOT
BRANCH   1  13
ATOM      5  C   UNL     1      -0.162   1.190   1.096  0.00  0.00    +0.004 A 
ATOM      6  C   UNL     1       1.009   1.922   1.151  0.00  0.00    +0.004 A 
ATOM      7  C   UNL     1       2.230   1.288   1.023  0.00  0.00    +0.049 A 
ATOM      8  C   UNL     1       2.283  -0.086   0.837  0.00  0.00    +0.163 A 
ATOM      9  C   UNL     1       1.106  -0.822   0.779  0.00  0.00    +0.162 A 
ATOM     10  C   UNL     1      -0.116  -0.179   0.911  0.00  0.00    +0.049 A 
ATOM     11  O   UNL     1       1.135  -2.169   0.590  0.00  0.00    -0.484 OA
ATOM     12  C   UNL     1       2.383  -2.826   0.835  0.00  0.00    +0.283 C 
ATOM     13  C   UNL     1       3.495  -2.015   0.156  0.00  0.00    +0.296 C 
ATOM     14  O   UNL     1       3.493  -0.697   0.716  0.00  0.00    -0.473 OA
ENDBRANCH   1  13
BRANCH   3  15
ATOM     15  C   UNL     1       6.378  -4.533   0.139  0.00  0.00    +0.082 C 
ATOM     16  C   UNL     1       7.351  -4.209  -1.014  0.00  0.00    +0.023 C 
ATOM     17  C   UNL     1       8.162  -5.515  -1.205  0.00  0.00    +0.003 C 
ATOM     18  C   UNL     1       7.096  -6.615  -0.981  0.00  0.00    +0.012 C 
ATOM     19  C   UNL     1       6.216  -6.063   0.162  0.00  0.00    +0.060 C 
BRANCH  19  20
ATOM     20  C   UNL     1       4.774  -6.432  -0.073  0.00  0.00    +0.051 C 
ATOM     21  S   UNL     1       4.305  -6.953  -1.510  0.00  0.00    -0.040 S 
BRANCH  20  22
ATOM     22  N   UNL     1       3.879  -6.324   0.930  0.00  0.00    -0.355 N 
ATOM     23  H   UNL     1       4.163  -6.009   1.802  0.00  0.00    +0.143 HD
ATOM     24  H   UNL     1       2.951  -6.562   0.779  0.00  0.00    +0.143 HD
ENDBRANCH  20  22
ENDBRANCH  19  20
ENDBRANCH   3  15
TORSDOF 4
