REMARK  Name = ZINC40705053
REMARK  5 active torsions:
REMARK  status: ('A' for Active; 'I' for Inactive)
REMARK    1  A    between atoms: C_1  and  C_2
REMARK    2  A    between atoms: C_10  and  N_24
REMARK    3  A    between atoms: C_11  and  N_15
REMARK    4  A    between atoms: N_15  and  C_16
REMARK    5  A    between atoms: C_21  and  C_22
REMARK                            x       y       z     vdW  Elec       q    Type
REMARK                         _______ _______ _______ _____ _____    ______ ____
ROOT
ATOM      1  C   UNL     1      -1.492   1.446  -0.243  0.00  0.00    +0.045 C 
ATOM      2  C   UNL     1      -1.312  -0.044  -0.110  0.00  0.00    -0.032 A 
ATOM      3  C   UNL     1      -1.416  -0.655   1.133  0.00  0.00    +0.008 A 
ATOM      4  C   UNL     1      -1.244  -2.026   1.211  0.00  0.00    +0.044 A 
ATOM      5  C   UNL     1      -0.973  -2.741   0.049  0.00  0.00    +0.124 A 
ATOM      6  N   UNL     1      -0.881  -2.122  -1.117  0.00  0.00    -0.240 NA
ATOM      7  C   UNL     1      -1.047  -0.817  -1.223  0.00  0.00    +0.116 A 
ATOM      8  N   UNL     1      -0.797  -4.120   0.114  0.00  0.00    -0.283 N 
ATOM      9  C   UNL     1      -0.658  -4.859  -1.056  0.00  0.00    +0.150 A 
ATOM     10  C   UNL     1      -0.565  -6.251  -1.009  0.00  0.00    +0.106 A 
ATOM     11  C   UNL     1      -0.427  -6.944  -2.213  0.00  0.00    +0.149 A 
ATOM     12  N   UNL     1      -0.389  -6.256  -3.352  0.00  0.00    -0.219 NA
ATOM     13  C   UNL     1      -0.479  -4.941  -3.352  0.00  0.00    +0.225 A 
ATOM     14  N   UNL     1      -0.616  -4.250  -2.239  0.00  0.00    -0.219 NA
ATOM     15  H   UNL     1      -0.772  -4.566   0.975  0.00  0.00    +0.155 HD
ENDROOT
BRANCH  10  16
ATOM     16  N   UNL     1      -0.610  -6.935   0.216  0.00  0.00    -0.353 N 
ATOM     17  H   UNL     1      -0.706  -6.441   1.045  0.00  0.00    +0.143 HD
ATOM     18  H   UNL     1      -0.545  -7.903   0.233  0.00  0.00    +0.143 HD
ENDBRANCH  10  16
BRANCH  11  19
ATOM     19  N   UNL     1      -0.330  -8.331  -2.223  0.00  0.00    -0.298 N 
ATOM     20  H   UNL     1      -0.267  -8.818  -1.386  0.00  0.00    +0.154 HD
BRANCH  19  21
ATOM     21  C   UNL     1      -0.324  -9.023  -3.437  0.00  0.00    +0.037 A 
ATOM     22  C   UNL     1      -0.929  -8.467  -4.557  0.00  0.00    +0.043 A 
ATOM     23  C   UNL     1      -0.920  -9.154  -5.757  0.00  0.00    +0.043 A 
ATOM     24  C   UNL     1      -0.311 -10.394  -5.841  0.00  0.00    +0.020 A 
ATOM     25  C   UNL     1       0.291 -10.949  -4.727  0.00  0.00    +0.006 A 
ATOM     26  C   UNL     1       0.291 -10.265  -3.527  0.00  0.00    -0.029 A 
ATOM     27  C   UNL     1       0.954 -10.868  -2.316  0.00  0.00    +0.045 C 
ATOM     28 CL   UNL     1      -1.675  -8.461  -7.158  0.00  0.00    -0.083 Cl
ENDBRANCH  19  21
ENDBRANCH  11  19
TORSDOF 3
