REMARK  Name = ZINC12421664
REMARK  4 active torsions:
REMARK  status: ('A' for Active; 'I' for Inactive)
REMARK    1  A    between atoms: C_1  and  O_2
REMARK    2  A    between atoms: O_2  and  C_3
REMARK    3  A    between atoms: C_8  and  N_9
REMARK    4  A    between atoms: N_12  and  C_13
REMARK                            x       y       z     vdW  Elec       q    Type
REMARK                         _______ _______ _______ _____ _____    ______ ____
ROOT
ATOM      1  N   UNL     1      -2.407   1.316  -2.773  0.00  0.00    -0.266 N 
ATOM      2  C   UNL     1      -1.755   0.870  -1.681  0.00  0.00    +0.304 C 
ATOM      3  O   UNL     1      -2.114  -0.157  -1.137  0.00  0.00    -0.252 OA
ATOM      4  N   UNL     1      -0.706   1.560  -1.192  0.00  0.00    -0.293 N 
ATOM      5  H   UNL     1      -2.174   2.175  -3.159  0.00  0.00    +0.156 HD
ATOM      6  H   UNL     1      -0.420   2.379  -1.627  0.00  0.00    +0.151 HD
ENDROOT
BRANCH   4   7
ATOM      7  C   UNL     1       0.002   1.075  -0.005  0.00  0.00    +0.115 C 
ATOM      8  C   UNL     1       1.458   1.598  -0.026  0.00  0.00    +0.189 C 
ATOM      9  S   UNL     1       1.338   3.167   0.925  0.00  0.00    -0.028 S 
ATOM     10  O   UNL     1       2.132   3.059   2.098  0.00  0.00    -0.174 OA
ATOM     11  O   UNL     1       1.541   4.261   0.041  0.00  0.00    -0.174 OA
ATOM     12  C   UNL     1      -0.442   3.102   1.398  0.00  0.00    +0.187 C 
ATOM     13  C   UNL     1      -0.718   1.577   1.257  0.00  0.00    +0.123 C 
ATOM     14 CL   UNL     1      -2.491   1.291   1.103  0.00  0.00    -0.118 Cl
ENDBRANCH   4   7
BRANCH   1  20
ATOM     15  C   UNL     1      -4.417   1.146  -4.111  0.00  0.00    +0.141 A 
ATOM     16  C   UNL     1      -5.417   0.374  -4.680  0.00  0.00    +0.047 A 
ATOM     17  C   UNL     1      -5.422  -0.996  -4.494  0.00  0.00    +0.004 A 
ATOM     18  C   UNL     1      -4.433  -1.599  -3.740  0.00  0.00    +0.002 A 
ATOM     19  C   UNL     1      -3.430  -0.836  -3.172  0.00  0.00    +0.027 A 
ATOM     20  C   UNL     1      -3.420   0.540  -3.351  0.00  0.00    +0.077 A 
BRANCH  15  22
ATOM     21  C   UNL     1      -5.464   3.047  -5.085  0.00  0.00    +0.277 C 
ATOM     22  O   UNL     1      -4.410   2.494  -4.294  0.00  0.00    -0.493 OA
ENDBRANCH  15  22
ENDBRANCH   1  20
TORSDOF 3
