REMARK  Name = ZINC42620584
REMARK  4 active torsions:
REMARK  status: ('A' for Active; 'I' for Inactive)
REMARK    1  A    between atoms: C_3  and  N_11
REMARK    2  A    between atoms: C_5  and  N_7
REMARK    3  A    between atoms: C_12  and  C_14
REMARK    4  A    between atoms: C_15  and  C_16
REMARK                            x       y       z     vdW  Elec       q    Type
REMARK                         _______ _______ _______ _____ _____    ______ ____
ROOT
ATOM      1  N   UNL     1       3.802   1.947   0.675  0.00  0.00    -0.282 N 
ATOM      2  C   UNL     1       3.837   3.293   0.709  0.00  0.00    +0.241 C 
ATOM      3  O   UNL     1       2.823   3.934   0.506  0.00  0.00    -0.270 OA
ATOM      4  H   UNL     1       4.622   1.437   0.770  0.00  0.00    +0.155 HD
ENDROOT
BRANCH   1   7
ATOM      5  C   UNL     1       0.403   1.169  -0.495  0.00  0.00    +0.004 A 
ATOM      6  C   UNL     1       1.608   1.825  -0.324  0.00  0.00    +0.023 A 
ATOM      7  C   UNL     1       2.584   1.283   0.503  0.00  0.00    +0.035 A 
ATOM      8  C   UNL     1       2.348   0.083   1.159  0.00  0.00    +0.046 A 
ATOM      9  C   UNL     1       1.137  -0.573   0.985  0.00  0.00    +0.037 A 
ATOM     10  C   UNL     1       0.165  -0.026   0.156  0.00  0.00    +0.023 A 
BRANCH   9  11
ATOM     11  N   UNL     1       0.896  -1.783   1.643  0.00  0.00    -0.270 N 
ATOM     12  C   UNL     1       1.422  -2.003   2.865  0.00  0.00    +0.301 C 
ATOM     13  O   UNL     1       2.026  -1.115   3.435  0.00  0.00    -0.253 OA
ATOM     14  N   UNL     1       1.280  -3.207   3.453  0.00  0.00    -0.313 N 
ATOM     15  H   UNL     1       0.349  -2.465   1.221  0.00  0.00    +0.156 HD
ATOM     16  H   UNL     1       0.798  -3.916   2.998  0.00  0.00    +0.146 HD
ATOM     17  H   UNL     1       1.659  -3.366   4.332  0.00  0.00    +0.146 HD
ENDBRANCH   9  11
ENDBRANCH   1   7
BRANCH   2  18
ATOM     18  C   UNL     1       5.096   3.986   0.990  0.00  0.00    +0.068 C 
ATOM     19  C   UNL     1       5.131   5.334   1.023  0.00  0.00    +0.013 C 
BRANCH  19  20
ATOM     20  C   UNL     1       6.397   6.030   1.305  0.00  0.00    -0.023 A 
ATOM     21  C   UNL     1       7.566   5.297   1.533  0.00  0.00    +0.009 A 
ATOM     22  C   UNL     1       8.748   5.955   1.797  0.00  0.00    +0.022 A 
ATOM     23  C   UNL     1       8.780   7.339   1.837  0.00  0.00    +0.059 A 
ATOM     24  C   UNL     1       7.626   8.073   1.612  0.00  0.00    +0.060 A 
ATOM     25  C   UNL     1       6.437   7.427   1.341  0.00  0.00    +0.029 A 
ATOM     26 CL   UNL     1       7.677   9.807   1.665  0.00  0.00    -0.082 Cl
ATOM     27 CL   UNL     1      10.274   8.159   2.171  0.00  0.00    -0.082 Cl
ENDBRANCH  19  20
ENDBRANCH   2  18
TORSDOF 4
