REMARK  Name = ZINC15934251
REMARK  6 active torsions:
REMARK  status: ('A' for Active; 'I' for Inactive)
REMARK    1  A    between atoms: C_1  and  C_2
REMARK    2  A    between atoms: C_5  and  C_26
REMARK    3  A    between atoms: C_6  and  N_8
REMARK    4  A    between atoms: N_11  and  N_12
REMARK    5  A    between atoms: C_13  and  C_15
REMARK    6  A    between atoms: C_24  and  O_25
REMARK                            x       y       z     vdW  Elec       q    Type
REMARK                         _______ _______ _______ _____ _____    ______ ____
ROOT
ATOM      1  N   UNL     1       0.285  -4.220   4.702  0.00  0.00    -0.229 N 
ATOM      2  C   UNL     1       0.402  -4.905   5.857  0.00  0.00    +0.264 C 
ATOM      3  O   UNL     1       0.490  -4.307   6.912  0.00  0.00    -0.269 OA
ATOM      4  H   UNL     1       0.215  -4.697   3.861  0.00  0.00    +0.173 HD
ENDROOT
BRANCH   2   5
ATOM      5  C   UNL     1       0.421  -6.380   5.842  0.00  0.00    +0.080 A 
ATOM      6  C   UNL     1       0.326  -7.057   4.636  0.00  0.00    +0.025 A 
ATOM      7  C   UNL     1       0.345  -8.459   4.628  0.00  0.00    -0.017 A 
ATOM      8  C   UNL     1       0.251  -9.179   3.423  0.00  0.00    +0.008 A 
ATOM      9  C   UNL     1       0.273 -10.539   3.446  0.00  0.00    +0.001 A 
ATOM     10  C   UNL     1       0.388 -11.233   4.650  0.00  0.00    +0.001 A 
ATOM     11  C   UNL     1       0.481 -10.572   5.835  0.00  0.00    +0.008 A 
ATOM     12  C   UNL     1       0.462  -9.166   5.853  0.00  0.00    -0.014 A 
ATOM     13  C   UNL     1       0.557  -8.457   7.061  0.00  0.00    +0.054 A 
ATOM     14  C   UNL     1       0.543  -7.093   7.053  0.00  0.00    +0.130 A 
BRANCH  14  15
ATOM     15  O   UNL     1       0.642  -6.413   8.225  0.00  0.00    -0.506 OA
ATOM     16  H   UNL     1      -0.209  -6.229   8.645  0.00  0.00    +0.292 HD
ENDBRANCH  14  15
ENDBRANCH   2   5
BRANCH   1  20
ATOM     17  N   UNL     1       0.052  -2.797   2.393  0.00  0.00    -0.268 N 
ATOM     18  C   UNL     1       0.150  -2.135   3.562  0.00  0.00    +0.320 C 
ATOM     19  O   UNL     1       0.134  -0.919   3.575  0.00  0.00    -0.251 OA
ATOM     20  N   UNL     1       0.267  -2.819   4.717  0.00  0.00    -0.218 N 
ATOM     21  H   UNL     1      -0.017  -3.765   2.388  0.00  0.00    +0.156 HD
ATOM     22  H   UNL     1       0.337  -2.342   5.559  0.00  0.00    +0.174 HD
BRANCH  17  28
ATOM     23  C   UNL     1       1.273   1.225  -0.157  0.00  0.00    +0.044 C 
ATOM     24  C   UNL     1       0.634  -0.138  -0.079  0.00  0.00    -0.049 A 
ATOM     25  C   UNL     1       0.046  -0.691  -1.202  0.00  0.00    +0.004 A 
ATOM     26  C   UNL     1      -0.540  -1.941  -1.134  0.00  0.00    +0.005 A 
ATOM     27  C   UNL     1      -0.540  -2.642   0.056  0.00  0.00    -0.029 A 
ATOM     28  C   UNL     1       0.050  -2.090   1.185  0.00  0.00    +0.038 A 
ATOM     29  C   UNL     1       0.643  -0.836   1.113  0.00  0.00    +0.027 A 
ATOM     30  C   UNL     1      -1.180  -4.005   0.129  0.00  0.00    +0.045 C 
ENDBRANCH  17  28
ENDBRANCH   1  20
TORSDOF 4
