REMARK  Name = ZINC26900336
REMARK  7 active torsions:
REMARK  status: ('A' for Active; 'I' for Inactive)
REMARK    1  A    between atoms: C_1  and  C_2
REMARK    2  A    between atoms: C_2  and  C_3
REMARK    3  A    between atoms: C_2  and  C_4
REMARK    4  A    between atoms: C_4  and  C_6
REMARK    5  A    between atoms: C_4  and  N_24
REMARK    6  A    between atoms: N_11  and  S_14
REMARK    7  A    between atoms: S_14  and  C_17
REMARK                            x       y       z     vdW  Elec       q    Type
REMARK                         _______ _______ _______ _____ _____    ______ ____
ROOT
ATOM      1  C   UNL     1      -3.686   3.281  -3.577  0.00  0.00    +0.236 C 
ATOM      2  O   UNL     1      -3.715   4.488  -3.695  0.00  0.00    -0.274 OA
ATOM      3  N   UNL     1      -2.752   2.703  -2.796  0.00  0.00    -0.297 N 
ATOM      4  C   UNL     1      -1.693   3.510  -2.174  0.00  0.00    +0.125 C 
ATOM      5  C   UNL     1      -0.333   2.925  -2.573  0.00  0.00    +0.128 C 
ATOM      6  N   UNL     1      -0.355   1.476  -2.329  0.00  0.00    -0.174 NA
ATOM      7  C   UNL     1      -1.411   0.668  -2.956  0.00  0.00    +0.128 C 
ATOM      8  C   UNL     1      -2.775   1.254  -2.552  0.00  0.00    +0.125 C 
ENDROOT
BRANCH   6   9
ATOM      9  S   UNL     1       0.793   0.765  -1.370  0.00  0.00    +0.061 S 
ATOM     10  O   UNL     1       0.862  -0.599  -1.762  0.00  0.00    -0.153 OA
ATOM     11  O   UNL     1       1.926   1.621  -1.391  0.00  0.00    -0.153 OA
BRANCH   9  12
ATOM     12  C   UNL     1       0.177   0.783   0.281  0.00  0.00    +0.106 A 
ATOM     13  C   UNL     1       0.452   1.856   1.109  0.00  0.00    +0.030 A 
ATOM     14  C   UNL     1      -0.035   1.874   2.402  0.00  0.00    +0.022 A 
ATOM     15  C   UNL     1      -0.789   0.813   2.872  0.00  0.00    +0.041 A 
ATOM     16  C   UNL     1      -1.059  -0.263   2.044  0.00  0.00    +0.022 A 
ATOM     17  C   UNL     1      -0.576  -0.277   0.750  0.00  0.00    +0.030 A 
ATOM     18 CL   UNL     1      -1.396   0.832   4.498  0.00  0.00    -0.084 Cl
ENDBRANCH   9  12
ENDBRANCH   6   9
BRANCH   1  19
ATOM     19  C   UNL     1      -4.694   2.429  -4.304  0.00  0.00    +0.163 C 
BRANCH  19  20
ATOM     20  N   UNL     1      -5.974   3.138  -4.375  0.00  0.00    -0.288 N 
ATOM     21  C   UNL     1      -7.122   2.445  -4.502  0.00  0.00    +0.298 C 
ATOM     22  O   UNL     1      -7.097   1.231  -4.559  0.00  0.00    -0.253 OA
ATOM     23  N   UNL     1      -8.300   3.098  -4.567  0.00  0.00    -0.313 N 
ATOM     24  H   UNL     1      -5.997   4.237  -4.324  0.00  0.00    +0.151 HD
ATOM     25  H   UNL     1      -9.237   2.532  -4.671  0.00  0.00    +0.146 HD
ATOM     26  H   UNL     1      -8.323   4.197  -4.516  0.00  0.00    +0.146 HD
ENDBRANCH  19  20
BRANCH  19  28
ATOM     27  C   UNL     1      -2.840   1.428  -5.647  0.00  0.00    +0.009 C 
ATOM     28  C   UNL     1      -4.191   2.141  -5.720  0.00  0.00    +0.012 C 
ATOM     29  C   UNL     1      -5.200   1.249  -6.448  0.00  0.00    +0.009 C 
ENDBRANCH  19  28
ENDBRANCH   1  19
TORSDOF 5
