REMARK  Name = ZINC19274792
REMARK  9 active torsions:
REMARK  status: ('A' for Active; 'I' for Inactive)
REMARK    1  A    between atoms: C_1  and  C_2
REMARK    2  A    between atoms: C_2  and  C_3
REMARK    3  A    between atoms: C_3  and  C_4
REMARK    4  A    between atoms: N_8  and  C_12
REMARK    5  A    between atoms: C_12  and  C_13
REMARK    6  A    between atoms: C_13  and  C_15
REMARK    7  A    between atoms: C_13  and  N_23
REMARK    8  A    between atoms: C_18  and  C_22
REMARK    9  A    between atoms: C_20  and  C_21
REMARK                            x       y       z     vdW  Elec       q    Type
REMARK                         _______ _______ _______ _____ _____    ______ ____
ROOT
ATOM      1  C   UNL     1       2.696   4.484   1.002  0.00  0.00    -0.026 C 
ENDROOT
BRANCH   1   2
ATOM      2  C   UNL     1       3.999   5.176   1.308  0.00  0.00    -0.057 A 
ATOM      3  C   UNL     1       4.969   5.287   0.330  0.00  0.00    +0.002 A 
ATOM      4  C   UNL     1       6.163   5.926   0.609  0.00  0.00    +0.003 A 
ATOM      5  C   UNL     1       6.390   6.445   1.870  0.00  0.00    -0.050 A 
ATOM      6  C   UNL     1       5.422   6.330   2.850  0.00  0.00    +0.007 A 
ATOM      7  C   UNL     1       4.227   5.694   2.569  0.00  0.00    -0.049 A 
ATOM      8  C   UNL     1       3.171   5.568   3.638  0.00  0.00    +0.044 C 
ATOM      9  C   UNL     1       7.693   7.137   2.177  0.00  0.00    +0.044 C 
ENDBRANCH   1   2
BRANCH   1  10
ATOM     10  N   UNL     1       2.487   4.453  -0.452  0.00  0.00    +0.384 N 
ATOM     11  H   UNL     1       2.456   5.482  -0.839  0.00  0.00    -0.089 HD
ATOM     12  H   UNL     1       1.536   3.948  -0.675  0.00  0.00    -0.089 HD
ATOM     13  H   UNL     1       3.314   3.907  -0.929  0.00  0.00    -0.089 HD
ENDBRANCH   1  10
BRANCH   1  14
ATOM     14  C   UNL     1       2.740   3.052   1.541  0.00  0.00    +0.106 C 
BRANCH  14  18
ATOM     15  C   UNL     1      -0.013   1.086   0.008  0.00  0.00    +0.161 C 
ATOM     16  C   UNL     1       1.399   1.638  -0.003  0.00  0.00    +0.243 C 
ATOM     17  O   UNL     1       2.240   1.481  -0.861  0.00  0.00    -0.273 OA
ATOM     18  N   UNL     1       1.523   2.342   1.140  0.00  0.00    -0.226 N 
ATOM     19  C   UNL     1       0.398   2.311   1.864  0.00  0.00    +0.309 C 
ATOM     20  O   UNL     1       0.267   2.873   2.933  0.00  0.00    -0.252 OA
ATOM     21  N   UNL     1      -0.572   1.590   1.274  0.00  0.00    -0.288 N 
ATOM     22  H   UNL     1      -1.606   1.342   1.556  0.00  0.00    +0.151 HD
BRANCH  15  23
ATOM     23  C   UNL     1      -0.808   1.618  -1.186  0.00  0.00    +0.031 C 
BRANCH  23  25
ATOM     24  C   UNL     1      -2.999   1.522  -2.384  0.00  0.00    +0.004 C 
ATOM     25  C   UNL     1      -2.203   0.990  -1.190  0.00  0.00    -0.001 C 
ENDBRANCH  23  25
ENDBRANCH  15  23
ENDBRANCH  14  18
ENDBRANCH   1  14
TORSDOF 6
