REMARK  Name = ZINC01241693
REMARK  8 active torsions:
REMARK  status: ('A' for Active; 'I' for Inactive)
REMARK    1  A    between atoms: C_1  and  C_2
REMARK    2  A    between atoms: C_2  and  O_3
REMARK    3  A    between atoms: O_3  and  C_4
REMARK    4  A    between atoms: C_9  and  N_10
REMARK    5  A    between atoms: C_11  and  C_13
REMARK    6  A    between atoms: C_14  and  C_28
REMARK    7  A    between atoms: C_19  and  C_21
REMARK    8  A    between atoms: C_24  and  O_27
REMARK                            x       y       z     vdW  Elec       q    Type
REMARK                         _______ _______ _______ _____ _____    ______ ____
ROOT
ATOM      1  C   UNL     1      -1.464   2.441   0.196  0.00  0.00    +0.056 C 
ATOM      2  C   UNL     1      -1.295   1.306   0.905  0.00  0.00    +0.017 C 
ATOM      3  N   UNL     1      -0.091   0.662   0.928  0.00  0.00    -0.300 N 
ATOM      4  C   UNL     1       0.990   1.083   0.259  0.00  0.00    +0.135 C 
ATOM      5  S   UNL     1       2.438   0.177   0.368  0.00  0.00    -0.019 S 
ATOM      6  N   UNL     1       0.974   2.198  -0.498  0.00  0.00    -0.315 N 
ATOM      7  C   UNL     1      -0.278   2.969  -0.585  0.00  0.00    +0.139 C 
ATOM      8  C   UNL     1      -2.451   0.743   1.691  0.00  0.00    +0.061 C 
ATOM      9  H   UNL     1       0.031  -0.258   1.520  0.00  0.00    +0.154 HD
ATOM     10  H   UNL     1       1.867   2.536  -1.045  0.00  0.00    +0.149 HD
ENDROOT
BRANCH   7  11
ATOM     11  C   UNL     1       0.006   4.370  -0.107  0.00  0.00    -0.022 A 
ATOM     12  C   UNL     1       0.723   4.570   1.059  0.00  0.00    +0.009 A 
ATOM     13  C   UNL     1       0.989   5.853   1.496  0.00  0.00    +0.046 A 
ATOM     14  C   UNL     1       0.527   6.941   0.770  0.00  0.00    +0.117 A 
ATOM     15  C   UNL     1      -0.197   6.738  -0.396  0.00  0.00    +0.046 A 
ATOM     16  C   UNL     1      -0.455   5.453  -0.832  0.00  0.00    +0.009 A 
BRANCH  14  17
ATOM     17  O   UNL     1       0.783   8.205   1.201  0.00  0.00    -0.507 OA
ATOM     18  H   UNL     1       0.417   9.067   0.625  0.00  0.00    +0.292 HD
ENDBRANCH  14  17
ENDBRANCH   7  11
BRANCH   1  20
ATOM     19  N   UNL     1      -3.134   3.780   1.268  0.00  0.00    -0.279 N 
ATOM     20  C   UNL     1      -2.711   3.113   0.176  0.00  0.00    +0.248 C 
ATOM     21  O   UNL     1      -3.401   3.087  -0.827  0.00  0.00    -0.270 OA
ATOM     22  H   UNL     1      -2.467   3.896   2.134  0.00  0.00    +0.155 HD
BRANCH  19  28
ATOM     23  C   UNL     1      -5.106   4.437   2.508  0.00  0.00    +0.142 A 
ATOM     24  C   UNL     1      -6.380   4.982   2.533  0.00  0.00    +0.047 A 
ATOM     25  C   UNL     1      -6.974   5.405   1.359  0.00  0.00    +0.004 A 
ATOM     26  C   UNL     1      -6.300   5.290   0.158  0.00  0.00    +0.002 A 
ATOM     27  C   UNL     1      -5.027   4.753   0.124  0.00  0.00    +0.027 A 
ATOM     28  C   UNL     1      -4.424   4.326   1.299  0.00  0.00    +0.076 A 
BRANCH  23  29
ATOM     29  O   UNL     1      -4.522   4.016   3.662  0.00  0.00    -0.490 OA
BRANCH  29  31
ATOM     30  C   UNL     1      -4.466   3.637   6.048  0.00  0.00    +0.048 C 
ATOM     31  C   UNL     1      -5.281   4.161   4.864  0.00  0.00    +0.226 C 
ENDBRANCH  29  31
ENDBRANCH  23  29
ENDBRANCH  19  28
ENDBRANCH   1  20
TORSDOF 6
