REMARK  Name = ZINC40372195
REMARK  7 active torsions:
REMARK  status: ('A' for Active; 'I' for Inactive)
REMARK    1  A    between atoms: C_1  and  C_2
REMARK    2  A    between atoms: C_4  and  C_21
REMARK    3  A    between atoms: C_5  and  C_9
REMARK    4  A    between atoms: C_6  and  C_8
REMARK    5  A    between atoms: N_11  and  C_12
REMARK    6  A    between atoms: C_12  and  C_17
REMARK    7  A    between atoms: N_18  and  O_19
REMARK                            x       y       z     vdW  Elec       q    Type
REMARK                         _______ _______ _______ _____ _____    ______ ____
ROOT
ATOM      1  C   UNL     1      -0.309  -4.124   0.251  0.00  0.00    +0.245 C 
ATOM      2  O   UNL     1       0.828  -4.549   0.303  0.00  0.00    -0.270 OA
ATOM      3  N   UNL     1      -1.340  -4.977   0.087  0.00  0.00    -0.299 N 
ATOM      4  H   UNL     1      -2.252  -4.648   0.118  0.00  0.00    +0.150 HD
ENDROOT
BRANCH   1   9
ATOM      5  C   UNL     1      -1.297   1.527   0.703  0.00  0.00    +0.044 C 
ATOM      6  C   UNL     1      -1.038   0.047   0.584  0.00  0.00    -0.050 A 
ATOM      7  C   UNL     1      -0.823  -0.517  -0.661  0.00  0.00    +0.007 A 
ATOM      8  C   UNL     1      -0.586  -1.871  -0.776  0.00  0.00    -0.038 A 
ATOM      9  C   UNL     1      -0.563  -2.672   0.367  0.00  0.00    +0.043 A 
ATOM     10  C   UNL     1      -0.780  -2.097   1.620  0.00  0.00    -0.038 A 
ATOM     11  C   UNL     1      -1.011  -0.740   1.722  0.00  0.00    +0.007 A 
ATOM     12  C   UNL     1      -0.757  -2.954   2.859  0.00  0.00    +0.044 C 
ATOM     13  C   UNL     1      -0.352  -2.484  -2.133  0.00  0.00    +0.044 C 
ENDBRANCH   1   9
BRANCH   3  14
ATOM     14  C   UNL     1      -1.083  -6.402  -0.138  0.00  0.00    +0.093 C 
ATOM     15  C   UNL     1      -2.402  -7.131  -0.467  0.00  0.00    +0.033 C 
ATOM     16  C   UNL     1      -2.439  -7.170  -2.015  0.00  0.00    +0.003 C 
ATOM     17  C   UNL     1      -0.956  -7.420  -2.386  0.00  0.00    +0.003 C 
ATOM     18  C   UNL     1      -0.164  -6.585  -1.358  0.00  0.00    +0.033 C 
BRANCH  14  19
ATOM     19  C   UNL     1      -0.446  -7.010   1.085  0.00  0.00    +0.155 C 
ATOM     20  N   UNL     1       0.661  -7.668   0.977  0.00  0.00    -0.075 NA
ATOM     21  N   UNL     1      -1.044  -6.866   2.317  0.00  0.00    -0.342 N 
ATOM     22  H   UNL     1      -1.835  -6.312   2.410  0.00  0.00    +0.144 HD
ATOM     23  H   UNL     1      -0.675  -7.319   3.091  0.00  0.00    +0.144 HD
BRANCH  20  24
ATOM     24  O   UNL     1       1.259  -8.240   2.125  0.00  0.00    -0.408 OA
ATOM     25  H   UNL     1       2.084  -8.711   1.946  0.00  0.00    +0.328 HD
ENDBRANCH  20  24
ENDBRANCH  14  19
ENDBRANCH   3  14
TORSDOF 4
