REMARK  Name = ZINC36743482
REMARK  5 active torsions:
REMARK  status: ('A' for Active; 'I' for Inactive)
REMARK    1  A    between atoms: C_1  and  C_2
REMARK    2  A    between atoms: N_5  and  S_8
REMARK    3  A    between atoms: S_8  and  N_11
REMARK    4  A    between atoms: N_11  and  C_12
REMARK    5  A    between atoms: C_14  and  N_20
REMARK                            x       y       z     vdW  Elec       q    Type
REMARK                         _______ _______ _______ _____ _____    ______ ____
ROOT
ATOM      1  N   UNL     1       3.943  -2.728  -0.053  0.00  0.00    -0.204 N 
ATOM      2  H   UNL     1       4.537  -2.777  -0.818  0.00  0.00    +0.175 HD
ENDROOT
BRANCH   1   3
ATOM      3  C   UNL     1       4.226  -1.849   0.999  0.00  0.00    +0.086 A 
ATOM      4  C   UNL     1       3.931  -2.211   2.305  0.00  0.00    +0.053 A 
ATOM      5  C   UNL     1       4.212  -1.338   3.346  0.00  0.00    +0.062 A 
ATOM      6  C   UNL     1       4.789  -0.101   3.077  0.00  0.00    +0.147 A 
ATOM      7  C   UNL     1       5.082   0.258   1.774  0.00  0.00    +0.080 A 
ATOM      8  C   UNL     1       4.808  -0.614   0.735  0.00  0.00    +0.148 A 
ATOM      9  F   UNL     1       5.101  -0.263  -0.536  0.00  0.00    -0.203 F 
ATOM     10  F   UNL     1       5.063   0.750   4.090  0.00  0.00    -0.203 F 
BRANCH   5  11
ATOM     11  N   UNL     1       3.916  -1.700   4.665  0.00  0.00    -0.356 N 
ATOM     12  H   UNL     1       3.513  -2.563   4.851  0.00  0.00    +0.142 HD
ATOM     13  H   UNL     1       4.112  -1.089   5.392  0.00  0.00    +0.142 HD
ENDBRANCH   5  11
ENDBRANCH   1   3
BRANCH   1  14
ATOM     14  S   UNL     1       2.594  -3.687   0.009  0.00  0.00    +0.112 S 
ATOM     15  O   UNL     1       2.652  -4.391   1.242  0.00  0.00    -0.138 OA
ATOM     16  O   UNL     1       2.509  -4.351  -1.244  0.00  0.00    -0.138 OA
BRANCH  14  21
ATOM     17  C   UNL     1      -0.250   1.287   0.254  0.00  0.00    +0.007 C 
ATOM     18  C   UNL     1      -0.142  -0.239   0.223  0.00  0.00    -0.012 C 
ATOM     19  C   UNL     1       0.541  -0.675  -1.076  0.00  0.00    +0.020 C 
ATOM     20  C   UNL     1       0.616  -2.205  -1.119  0.00  0.00    +0.111 C 
ATOM     21  N   UNL     1       1.282  -2.680   0.101  0.00  0.00    -0.164 NA
ATOM     22  C   UNL     1       0.761  -2.246   1.405  0.00  0.00    +0.111 C 
ATOM     23  C   UNL     1       0.684  -0.716   1.420  0.00  0.00    +0.020 C 
ENDBRANCH  14  21
ENDBRANCH   1  14
TORSDOF 4
