REMARK  Name = ZINC12987425
REMARK  7 active torsions:
REMARK  status: ('A' for Active; 'I' for Inactive)
REMARK    1  A    between atoms: C_1  and  C_2
REMARK    2  A    between atoms: N_4  and  C_5
REMARK    3  A    between atoms: C_8  and  O_27
REMARK    4  A    between atoms: C_9  and  N_11
REMARK    5  A    between atoms: C_12  and  C_14
REMARK    6  A    between atoms: C_14  and  C_15
REMARK    7  A    between atoms: O_27  and  C_28
REMARK                            x       y       z     vdW  Elec       q    Type
REMARK                         _______ _______ _______ _____ _____    ______ ____
ROOT
ATOM      1  N   UNL     1      -5.899   1.815  -0.362  0.00  0.00    -0.282 N 
ATOM      2  C   UNL     1      -5.906   3.159  -0.466  0.00  0.00    +0.222 C 
ATOM      3  O   UNL     1      -4.867   3.780  -0.382  0.00  0.00    -0.275 OA
ATOM      4  H   UNL     1      -6.735   1.324  -0.362  0.00  0.00    +0.155 HD
ENDROOT
BRANCH   1   9
ATOM      5  C   UNL     1      -2.420   1.011   0.543  0.00  0.00    +0.035 A 
ATOM      6  C   UNL     1      -2.276  -0.237  -0.047  0.00  0.00    +0.027 A 
ATOM      7  C   UNL     1      -3.333  -0.806  -0.732  0.00  0.00    +0.049 A 
ATOM      8  C   UNL     1      -4.536  -0.127  -0.840  0.00  0.00    +0.141 A 
ATOM      9  C   UNL     1      -4.683   1.128  -0.254  0.00  0.00    +0.077 A 
ATOM     10  C   UNL     1      -3.623   1.695   0.438  0.00  0.00    +0.050 A 
BRANCH   5  14
ATOM     11  C   UNL     1       0.814   1.409   2.430  0.00  0.00    +0.109 C 
ATOM     12  C   UNL     1      -0.409   0.794   1.799  0.00  0.00    +0.214 C 
ATOM     13  O   UNL     1      -0.546  -0.411   1.789  0.00  0.00    -0.276 OA
ATOM     14  N   UNL     1      -1.349   1.584   1.241  0.00  0.00    -0.286 N 
ATOM     15  H   UNL     1      -1.282   2.548   1.323  0.00  0.00    +0.155 HD
ENDBRANCH   5  14
BRANCH   8  16
ATOM     16  O   UNL     1      -5.574  -0.687  -1.519  0.00  0.00    -0.493 OA
ATOM     17  C   UNL     1      -5.354  -1.976  -2.094  0.00  0.00    +0.277 C 
ENDBRANCH   8  16
ENDBRANCH   1   9
BRANCH   2  18
ATOM     18  C   UNL     1      -7.205   3.890  -0.688  0.00  0.00    +0.131 C 
BRANCH  18  19
ATOM     19  C   UNL     1      -6.940   5.372  -0.768  0.00  0.00    -0.034 A 
ATOM     20  C   UNL     1      -6.667   5.958  -1.991  0.00  0.00    +0.053 A 
ATOM     21  C   UNL     1      -6.424   7.319  -2.061  0.00  0.00    +0.164 A 
ATOM     22  C   UNL     1      -6.454   8.091  -0.909  0.00  0.00    +0.180 A 
ATOM     23  C   UNL     1      -6.726   7.502   0.315  0.00  0.00    +0.086 A 
ATOM     24  C   UNL     1      -6.975   6.141   0.380  0.00  0.00    +0.028 A 
ATOM     25 CL   UNL     1      -6.764   8.465   1.758  0.00  0.00    -0.080 Cl
ATOM     26  O   UNL     1      -6.212   9.432  -0.988  0.00  0.00    -0.487 OA
ATOM     27  C   UNL     1      -7.207  10.208  -1.659  0.00  0.00    +0.232 C 
ATOM     28  C   UNL     1      -6.981  10.191  -3.163  0.00  0.00    +0.082 C 
ATOM     29  C   UNL     1      -7.153   8.802  -3.758  0.00  0.00    +0.232 C 
ATOM     30  O   UNL     1      -6.153   7.910  -3.261  0.00  0.00    -0.488 OA
ENDBRANCH  18  19
ENDBRANCH   2  18
TORSDOF 5
