REMARK  Name = ZINC32475378
REMARK  9 active torsions:
REMARK  status: ('A' for Active; 'I' for Inactive)
REMARK    1  A    between atoms: C_1  and  C_2
REMARK    2  A    between atoms: C_2  and  C_3
REMARK    3  A    between atoms: C_2  and  C_4
REMARK    4  A    between atoms: C_2  and  N_11
REMARK    5  A    between atoms: N_11  and  S_12
REMARK    6  A    between atoms: S_12  and  C_15
REMARK    7  A    between atoms: C_18  and  O_24
REMARK    8  A    between atoms: C_19  and  C_21
REMARK    9  A    between atoms: O_24  and  C_25
REMARK                            x       y       z     vdW  Elec       q    Type
REMARK                         _______ _______ _______ _____ _____    ______ ____
ROOT
ATOM      1  S   UNL     1       1.829   0.206  -1.987  0.00  0.00    +0.059 S 
ATOM      2  O   UNL     1       1.662  -0.329  -3.293  0.00  0.00    -0.153 OA
ATOM      3  O   UNL     1       1.910   1.603  -1.742  0.00  0.00    -0.153 OA
ENDROOT
BRANCH   1   4
ATOM      4  C   UNL     1       3.301  -0.507  -1.335  0.00  0.00    +0.106 A 
ATOM      5  C   UNL     1       3.920   0.071  -0.238  0.00  0.00    +0.032 A 
ATOM      6  C   UNL     1       5.074  -0.478   0.283  0.00  0.00    +0.048 A 
ATOM      7  C   UNL     1       5.623  -1.616  -0.290  0.00  0.00    +0.132 A 
ATOM      8  C   UNL     1       5.001  -2.204  -1.400  0.00  0.00    +0.080 A 
ATOM      9  C   UNL     1       3.830  -1.640  -1.914  0.00  0.00    +0.045 A 
BRANCH   8  10
ATOM     10  C   UNL     1       5.575  -3.413  -2.018  0.00  0.00    +0.245 C 
ATOM     11  O   UNL     1       6.592  -3.904  -1.566  0.00  0.00    -0.270 OA
ATOM     12  N   UNL     1       4.973  -3.976  -3.085  0.00  0.00    -0.325 N 
ATOM     13  H   UNL     1       4.162  -3.585  -3.446  0.00  0.00    +0.145 HD
ATOM     14  H   UNL     1       5.351  -4.771  -3.492  0.00  0.00    +0.145 HD
ENDBRANCH   8  10
BRANCH   7  15
ATOM     15  O   UNL     1       6.758  -2.156   0.220  0.00  0.00    -0.494 OA
ATOM     16  C   UNL     1       7.337  -1.502   1.351  0.00  0.00    +0.277 C 
ENDBRANCH   7  15
ENDBRANCH   1   4
BRANCH   1  17
ATOM     17  N   UNL     1       0.566  -0.361  -1.079  0.00  0.00    -0.180 NA
ATOM     18  H   UNL     1       0.018   0.258  -0.570  0.00  0.00    +0.149 HD
BRANCH  17  20
ATOM     19  C   UNL     1       1.258  -2.491  -0.097  0.00  0.00    +0.034 C 
ATOM     20  C   UNL     1       0.276  -1.796  -1.043  0.00  0.00    +0.059 C 
ATOM     21  C   UNL     1       0.421  -2.381  -2.449  0.00  0.00    +0.034 C 
BRANCH  20  22
ATOM     22  C   UNL     1      -1.133  -2.012  -0.551  0.00  0.00    -0.026 A 
ATOM     23  C   UNL     1      -2.062  -0.993  -0.647  0.00  0.00    +0.006 A 
ATOM     24  C   UNL     1      -3.353  -1.191  -0.197  0.00  0.00    +0.015 A 
ATOM     25  C   UNL     1      -3.717  -2.409   0.349  0.00  0.00    +0.018 A 
ATOM     26  C   UNL     1      -2.787  -3.428   0.445  0.00  0.00    +0.015 A 
ATOM     27  C   UNL     1      -1.496  -3.231  -0.010  0.00  0.00    +0.006 A 
ATOM     28 BR   UNL     1      -5.484  -2.680   0.965  0.00  0.00    -0.050 Br
ENDBRANCH  20  22
ENDBRANCH  17  20
ENDBRANCH   1  17
TORSDOF 6
