REMARK  Name = ZINC37921253
REMARK  4 active torsions:
REMARK  status: ('A' for Active; 'I' for Inactive)
REMARK    1  A    between atoms: C_6  and  S_7
REMARK    2  A    between atoms: S_7  and  N_10
REMARK    3  A    between atoms: N_10  and  C_11
REMARK    4  A    between atoms: C_11  and  C_12
REMARK                            x       y       z     vdW  Elec       q    Type
REMARK                         _______ _______ _______ _____ _____    ______ ____
ROOT
ATOM      1  S   UNL     1      -1.512  -0.905   0.012  0.00  0.00    +0.059 S 
ATOM      2  O   UNL     1      -1.218  -2.186   0.553  0.00  0.00    -0.153 OA
ATOM      3  O   UNL     1      -2.493  -0.046   0.577  0.00  0.00    -0.153 OA
ENDROOT
BRANCH   1   9
ATOM      4  C   UNL     1      -0.017   1.378   0.010  0.00  0.00    +0.029 A 
ATOM      5  C   UNL     1       1.171   2.086   0.002  0.00  0.00    +0.017 A 
ATOM      6  C   UNL     1       2.378   1.411  -0.013  0.00  0.00    +0.018 A 
ATOM      7  C   UNL     1       2.396   0.027  -0.021  0.00  0.00    +0.017 A 
ATOM      8  C   UNL     1       1.208  -0.679  -0.013  0.00  0.00    +0.029 A 
ATOM      9  C   UNL     1       0.002  -0.004   0.002  0.00  0.00    +0.105 A 
ATOM     10 BR   UNL     1       4.003   2.378  -0.024  0.00  0.00    -0.050 Br
ENDBRANCH   1   9
BRANCH   1  11
ATOM     11  N   UNL     1      -1.948  -1.147  -1.567  0.00  0.00    -0.183 NA
ATOM     12  H   UNL     1      -2.755  -0.738  -1.916  0.00  0.00    +0.148 HD
BRANCH  11  13
ATOM     13  C   UNL     1      -1.114  -1.980  -2.438  0.00  0.00    +0.183 C 
BRANCH  13  14
ATOM     14  C   UNL     1      -1.889  -2.343  -3.678  0.00  0.00    +0.166 A 
ATOM     15  N   UNL     1      -1.915  -1.640  -4.809  0.00  0.00    -0.218 NA
ATOM     16  H   UNL     1      -3.775  -3.994  -5.527  0.00  0.00    +0.190 HD
ATOM     17  C   UNL     1      -2.684  -2.235  -5.685  0.00  0.00    +0.216 A 
ATOM     18  N   UNL     1      -3.175  -3.351  -5.119  0.00  0.00    -0.265 N 
ATOM     19  N   UNL     1      -2.641  -3.403  -3.821  0.00  0.00    -0.156 NA
ENDBRANCH  13  14
ENDBRANCH  11  13
ENDBRANCH   1  11
TORSDOF 4
