REMARK  Name = ZINC43513875
REMARK  5 active torsions:
REMARK  status: ('A' for Active; 'I' for Inactive)
REMARK    1  A    between atoms: C_1  and  C_2
REMARK    2  A    between atoms: C_2  and  C_4
REMARK    3  A    between atoms: C_2  and  N_7
REMARK    4  A    between atoms: C_4  and  N_6
REMARK    5  A    between atoms: C_10  and  C_13
REMARK                            x       y       z     vdW  Elec       q    Type
REMARK                         _______ _______ _______ _____ _____    ______ ____
ROOT
ATOM      1  N   UNL     1       0.633  -0.651  -1.156  0.00  0.00    -0.294 NA
ATOM      2  C   UNL     1       2.084  -0.428  -1.157  0.00  0.00    +0.086 C 
ATOM      3  C   UNL     1       2.687  -0.990  -2.448  0.00  0.00    +0.028 C 
ATOM      4  C   UNL     1       2.381  -2.487  -2.539  0.00  0.00    +0.077 C 
ATOM      5  C   UNL     1       0.865  -2.695  -2.486  0.00  0.00    +0.028 C 
ATOM      6  C   UNL     1       0.316  -2.085  -1.195  0.00  0.00    +0.086 C 
ENDROOT
BRANCH   4   7
ATOM      7  C   UNL     1       2.920  -3.033  -3.836  0.00  0.00    +0.214 C 
ATOM      8  O   UNL     1       3.492  -2.298  -4.612  0.00  0.00    -0.276 OA
ATOM      9  N   UNL     1       2.766  -4.338  -4.133  0.00  0.00    -0.329 N 
ATOM     10  H   UNL     1       2.309  -4.927  -3.512  0.00  0.00    +0.145 HD
ATOM     11  H   UNL     1       3.113  -4.690  -4.968  0.00  0.00    +0.145 HD
ENDBRANCH   4   7
BRANCH   1  13
ATOM     12  C   UNL     1       0.250  -0.847   1.255  0.00  0.00    +0.031 C 
ATOM     13  C   UNL     1       0.002  -0.004   0.002  0.00  0.00    +0.105 C 
BRANCH  13  14
ATOM     14  C   UNL     1      -1.481   0.117  -0.237  0.00  0.00    +0.063 C 
ATOM     15  S   UNL     1      -2.110  -0.369  -1.624  0.00  0.00    -0.039 S 
BRANCH  14  16
ATOM     16  N   UNL     1      -2.277   0.636   0.719  0.00  0.00    -0.354 N 
ATOM     17  H   UNL     1      -1.895   0.931   1.561  0.00  0.00    +0.143 HD
ATOM     18  H   UNL     1      -3.232   0.714   0.566  0.00  0.00    +0.143 HD
ENDBRANCH  14  16
ENDBRANCH  13  14
ENDBRANCH   1  13
TORSDOF 4
