REMARK  Name = ZINC09915164
REMARK  3 active torsions:
REMARK  status: ('A' for Active; 'I' for Inactive)
REMARK    1  A    between atoms: C_5  and  N_7
REMARK    2  A    between atoms: C_8  and  C_10
REMARK    3  A    between atoms: N_12  and  C_13
REMARK                            x       y       z     vdW  Elec       q    Type
REMARK                         _______ _______ _______ _____ _____    ______ ____
ROOT
ATOM      1  C   UNL     1       5.380  -1.778   2.866  0.00  0.00    +0.303 C 
ATOM      2  O   UNL     1       4.642  -2.742   2.875  0.00  0.00    -0.265 OA
ATOM      3  N   UNL     1       4.999  -0.643   2.248  0.00  0.00    -0.278 N 
ATOM      4  H   UNL     1       5.615   0.103   2.181  0.00  0.00    +0.155 HD
ENDROOT
BRANCH   3   5
ATOM      5  C   UNL     1       3.715  -0.541   1.703  0.00  0.00    +0.038 A 
ATOM      6  C   UNL     1       3.042   0.674   1.732  0.00  0.00    +0.027 A 
ATOM      7  C   UNL     1       1.774   0.776   1.194  0.00  0.00    +0.051 A 
ATOM      8  C   UNL     1       1.169  -0.333   0.623  0.00  0.00    +0.166 A 
ATOM      9  C   UNL     1       1.841  -1.552   0.591  0.00  0.00    +0.168 A 
ATOM     10  C   UNL     1       3.112  -1.654   1.131  0.00  0.00    +0.072 A 
ATOM     11  O   UNL     1       1.041  -2.476  -0.018  0.00  0.00    -0.453 OA
ATOM     12  C   UNL     1       0.043  -1.714  -0.723  0.00  0.00    +0.466 C 
ATOM     13  O   UNL     1      -0.052  -0.493   0.033  0.00  0.00    -0.453 OA
ENDBRANCH   3   5
BRANCH   1  15
ATOM     14  N   UNL     1       7.091  -2.986   4.159  0.00  0.00    -0.275 N 
ATOM     15  C   UNL     1       6.709  -1.850   3.540  0.00  0.00    +0.304 C 
ATOM     16  O   UNL     1       7.447  -0.886   3.531  0.00  0.00    -0.265 OA
ATOM     17  H   UNL     1       6.538  -3.780   4.098  0.00  0.00    +0.155 HD
BRANCH  14  22
ATOM     18  C   UNL     1       9.983  -1.880   6.141  0.00  0.00    +0.002 A 
ATOM     19  C   UNL     1      10.644  -3.080   6.332  0.00  0.00    +0.003 A 
ATOM     20  C   UNL     1      10.129  -4.249   5.804  0.00  0.00    +0.040 A 
ATOM     21  C   UNL     1       8.950  -4.223   5.082  0.00  0.00    +0.144 A 
ATOM     22  C   UNL     1       8.283  -3.017   4.888  0.00  0.00    +0.069 A 
ATOM     23  C   UNL     1       8.807  -1.845   5.417  0.00  0.00    +0.026 A 
ATOM     24  F   UNL     1       8.447  -5.365   4.565  0.00  0.00    -0.204 F 
ENDBRANCH  14  22
ENDBRANCH   1  15
TORSDOF 3
