REMARK  Name = ZINC40480152
REMARK  5 active torsions:
REMARK  status: ('A' for Active; 'I' for Inactive)
REMARK    1  A    between atoms: C_1  and  C_2
REMARK    2  A    between atoms: C_5  and  N_11
REMARK    3  A    between atoms: C_6  and  C_8
REMARK    4  A    between atoms: C_12  and  C_14
REMARK    5  A    between atoms: C_17  and  O_21
REMARK                            x       y       z     vdW  Elec       q    Type
REMARK                         _______ _______ _______ _____ _____    ______ ____
ROOT
ATOM      1  N   UNL     1       0.050  -4.103  -0.036  0.00  0.00    -0.286 N 
ATOM      2  C   UNL     1      -0.033  -4.748  -1.217  0.00  0.00    +0.203 C 
ATOM      3  O   UNL     1      -0.028  -4.119  -2.254  0.00  0.00    -0.277 OA
ATOM      4  H   UNL     1       0.111  -4.608   0.789  0.00  0.00    +0.155 HD
ENDROOT
BRANCH   1   9
ATOM      5  C   UNL     1       0.052   1.573   0.088  0.00  0.00    +0.044 C 
ATOM      6  C   UNL     1       0.047   0.066   0.063  0.00  0.00    -0.050 A 
ATOM      7  C   UNL     1       0.669  -0.608  -0.976  0.00  0.00    +0.005 A 
ATOM      8  C   UNL     1       0.671  -1.988  -1.011  0.00  0.00    +0.024 A 
ATOM      9  C   UNL     1       0.049  -2.711  -0.002  0.00  0.00    +0.048 A 
ATOM     10  C   UNL     1      -0.581  -2.031   1.052  0.00  0.00    +0.085 A 
ATOM     11  C   UNL     1      -0.570  -0.633   1.077  0.00  0.00    +0.020 A 
BRANCH  10  12
ATOM     12  C   UNL     1      -1.245  -2.785   2.128  0.00  0.00    +0.388 C 
ATOM     13  O   UNL     1      -1.869  -2.192   2.996  0.00  0.00    -0.241 OA
ATOM     14  O   UNL     1      -1.172  -4.006   2.154  0.00  0.00    -0.241 OA
ENDBRANCH  10  12
ENDBRANCH   1   9
BRANCH   2  15
ATOM     15  C   UNL     1      -0.134  -6.251  -1.248  0.00  0.00    +0.019 C 
ATOM     16  C   UNL     1       1.269  -6.896  -1.115  0.00  0.00    +0.023 C 
ATOM     17  C   UNL     1       1.077  -8.281  -1.774  0.00  0.00    +0.097 C 
ATOM     18  C   UNL     1      -0.148  -8.122  -2.694  0.00  0.00    -0.050 C 
ATOM     19  N   UNL     1      -0.601  -6.717  -2.579  0.00  0.00    +0.388 N 
ATOM     20  H   UNL     1      -1.608  -6.668  -2.630  0.00  0.00    -0.085 HD
ATOM     21  H   UNL     1      -0.187  -6.158  -3.309  0.00  0.00    -0.085 HD
BRANCH  17  22
ATOM     22  O   UNL     1       0.826  -9.274  -0.778  0.00  0.00    -0.394 OA
ATOM     23  H   UNL     1       0.697 -10.164  -1.133  0.00  0.00    +0.210 HD
ENDBRANCH  17  22
ENDBRANCH   2  15
TORSDOF 4
