REMARK  Name = ZINC39320826
REMARK  6 active torsions:
REMARK  status: ('A' for Active; 'I' for Inactive)
REMARK    1  A    between atoms: C_1  and  C_2
REMARK    2  A    between atoms: C_2  and  C_3
REMARK    3  A    between atoms: C_2  and  S_4
REMARK    4  A    between atoms: S_4  and  C_7
REMARK    5  A    between atoms: C_10  and  N_14
REMARK    6  A    between atoms: C_11  and  N_13
REMARK                            x       y       z     vdW  Elec       q    Type
REMARK                         _______ _______ _______ _____ _____    ______ ____
ROOT
ATOM      1  C   UNL     1       2.476   0.084  -1.381  0.00  0.00    +0.090 A 
ATOM      2  C   UNL     1       2.745   1.327  -1.923  0.00  0.00    +0.029 A 
ATOM      3  C   UNL     1       4.018   1.861  -1.840  0.00  0.00    +0.027 A 
ATOM      4  C   UNL     1       5.028   1.150  -1.211  0.00  0.00    +0.051 A 
ATOM      5  C   UNL     1       4.757  -0.104  -0.663  0.00  0.00    +0.048 A 
ATOM      6  C   UNL     1       3.476  -0.629  -0.747  0.00  0.00    +0.051 A 
ENDROOT
BRANCH   4   7
ATOM      7  N   UNL     1       6.318   1.689  -1.127  0.00  0.00    -0.324 N 
ATOM      8  C   UNL     1       7.313   1.440  -2.181  0.00  0.00    +0.133 C 
ATOM      9  C   UNL     1       7.910   2.786  -2.610  0.00  0.00    +0.178 C 
ATOM     10  O   UNL     1       8.373   3.485  -1.452  0.00  0.00    -0.377 OA
ATOM     11  C   UNL     1       7.343   3.813  -0.516  0.00  0.00    +0.178 C 
ATOM     12  C   UNL     1       6.716   2.525   0.017  0.00  0.00    +0.133 C 
ENDBRANCH   4   7
BRANCH   1  13
ATOM     13  S   UNL     1       0.851  -0.589  -1.490  0.00  0.00    -0.001 S 
ATOM     14  O   UNL     1       1.037  -1.996  -1.428  0.00  0.00    -0.169 OA
ATOM     15  O   UNL     1       0.285   0.016  -2.645  0.00  0.00    -0.169 OA
BRANCH  13  17
ATOM     16  C   UNL     1      -0.019   1.526   0.010  0.00  0.00    +0.032 C 
ATOM     17  C   UNL     1       0.002  -0.004   0.002  0.00  0.00    +0.130 C 
ATOM     18  C   UNL     1      -1.433  -0.534   0.013  0.00  0.00    +0.032 C 
ENDBRANCH  13  17
ENDBRANCH   1  13
BRANCH   5  19
ATOM     19  N   UNL     1       5.773  -0.827  -0.027  0.00  0.00    -0.356 N 
ATOM     20  H   UNL     1       6.667  -0.457   0.033  0.00  0.00    +0.142 HD
ATOM     21  H   UNL     1       5.582  -1.699   0.353  0.00  0.00    +0.142 HD
ENDBRANCH   5  19
TORSDOF 4
