REMARK  Name = ZINC20013287
REMARK  5 active torsions:
REMARK  status: ('A' for Active; 'I' for Inactive)
REMARK    1  A    between atoms: C_4  and  O_8
REMARK    2  A    between atoms: C_5  and  N_7
REMARK    3  A    between atoms: O_8  and  C_9
REMARK    4  A    between atoms: C_9  and  C_10
REMARK    5  A    between atoms: N_12  and  C_13
REMARK                            x       y       z     vdW  Elec       q    Type
REMARK                         _______ _______ _______ _____ _____    ______ ____
ROOT
ATOM      1  C   UNL     1       4.779   0.172  -0.035  0.00  0.00    +0.255 C 
ATOM      2  O   UNL     1       4.608   1.373  -0.030  0.00  0.00    -0.272 OA
ATOM      3  N   UNL     1       6.030  -0.330  -0.056  0.00  0.00    -0.281 N 
ATOM      4  H   UNL     1       6.188  -1.417   0.014  0.00  0.00    +0.155 HD
ENDROOT
BRANCH   3   5
ATOM      5  C   UNL     1       7.129   0.531  -0.167  0.00  0.00    +0.052 A 
ATOM      6  C   UNL     1       7.094   1.783   0.432  0.00  0.00    +0.026 A 
ATOM      7  C   UNL     1       8.179   2.631   0.321  0.00  0.00    +0.022 A 
ATOM      8  C   UNL     1       9.301   2.233  -0.385  0.00  0.00    +0.042 A 
ATOM      9  C   UNL     1       9.339   0.986  -0.983  0.00  0.00    +0.041 A 
ATOM     10  C   UNL     1       8.258   0.132  -0.872  0.00  0.00    +0.064 A 
ATOM     11 CL   UNL     1       8.308  -1.436  -1.617  0.00  0.00    -0.082 Cl
ATOM     12 CL   UNL     1      10.663   3.301  -0.522  0.00  0.00    -0.083 Cl
ENDBRANCH   3   5
BRANCH   1  13
ATOM     13  C   UNL     1       3.594  -0.758  -0.018  0.00  0.00    +0.325 C 
BRANCH  13  14
ATOM     14  O   UNL     1       2.388   0.008   0.003  0.00  0.00    -0.481 OA
BRANCH  14  18
ATOM     15  C   UNL     1      -1.167  -2.095   0.059  0.00  0.00    +0.002 A 
ATOM     16  C   UNL     1       0.038  -2.772   0.038  0.00  0.00    +0.004 A 
ATOM     17  C   UNL     1       1.229  -2.069   0.019  0.00  0.00    +0.047 A 
ATOM     18  C   UNL     1       1.217  -0.684   0.021  0.00  0.00    +0.142 A 
ATOM     19  C   UNL     1       0.003  -0.002   0.042  0.00  0.00    +0.067 A 
ATOM     20  C   UNL     1      -1.188  -0.713   0.066  0.00  0.00    +0.026 A 
BRANCH  19  21
ATOM     21  N   UNL     1      -0.016   1.398   0.044  0.00  0.00    -0.355 N 
ATOM     22  H   UNL     1      -0.976   1.935   0.060  0.00  0.00    +0.142 HD
ATOM     23  H   UNL     1       0.929   1.960   0.029  0.00  0.00    +0.142 HD
ENDBRANCH  19  21
ENDBRANCH  14  18
ENDBRANCH  13  14
ENDBRANCH   1  13
TORSDOF 5
