REMARK  Name = ZINC07313118
REMARK  7 active torsions:
REMARK  status: ('A' for Active; 'I' for Inactive)
REMARK    1  A    between atoms: C_1  and  N_2
REMARK    2  A    between atoms: N_2  and  S_3
REMARK    3  A    between atoms: S_3  and  C_6
REMARK    4  A    between atoms: C_9  and  N_12
REMARK    5  A    between atoms: C_13  and  C_15
REMARK    6  A    between atoms: C_15  and  C_16
REMARK    7  A    between atoms: N_25  and  C_27
REMARK                            x       y       z     vdW  Elec       q    Type
REMARK                         _______ _______ _______ _____ _____    ______ ____
ROOT
ATOM      1  N   UNL     1      -4.200   0.335  -5.089  0.00  0.00    -0.285 N 
ATOM      2  C   UNL     1      -3.909  -0.375  -6.196  0.00  0.00    +0.223 C 
ATOM      3  O   UNL     1      -3.145  -1.315  -6.130  0.00  0.00    -0.275 OA
ATOM      4  H   UNL     1      -4.868   1.038  -5.125  0.00  0.00    +0.155 HD
ENDROOT
BRANCH   1   8
ATOM      5  C   UNL     1      -2.233  -0.485  -1.509  0.00  0.00    +0.105 A 
ATOM      6  C   UNL     1      -1.569  -0.638  -2.712  0.00  0.00    +0.030 A 
ATOM      7  C   UNL     1      -2.218  -0.367  -3.901  0.00  0.00    +0.025 A 
ATOM      8  C   UNL     1      -3.540   0.059  -3.887  0.00  0.00    +0.034 A 
ATOM      9  C   UNL     1      -4.204   0.211  -2.677  0.00  0.00    +0.025 A 
ATOM     10  C   UNL     1      -3.551  -0.066  -1.492  0.00  0.00    +0.030 A 
BRANCH   5  11
ATOM     11  S   UNL     1      -1.401  -0.832   0.005  0.00  0.00    +0.058 S 
ATOM     12  O   UNL     1      -2.073  -0.094   1.016  0.00  0.00    -0.153 OA
ATOM     13  O   UNL     1      -0.011  -0.682  -0.252  0.00  0.00    -0.153 OA
BRANCH  11  15
ATOM     14  C   UNL     1      -1.098  -3.464  -0.539  0.00  0.00    +0.127 C 
ATOM     15  N   UNL     1      -1.650  -2.434   0.344  0.00  0.00    -0.193 NA
ATOM     16  H   UNL     1      -2.161  -2.690   1.128  0.00  0.00    +0.148 HD
ENDBRANCH  11  15
ENDBRANCH   5  11
ENDBRANCH   1   8
BRANCH   2  17
ATOM     17  C   UNL     1      -4.531  -0.001  -7.517  0.00  0.00    +0.153 C 
BRANCH  17  18
ATOM     18  C   UNL     1      -4.045  -0.945  -8.587  0.00  0.00    +0.078 A 
ATOM     19  C   UNL     1      -4.504  -0.785  -9.966  0.00  0.00    +0.011 A 
ATOM     20  C   UNL     1      -5.391   0.227 -10.335  0.00  0.00    +0.010 A 
ATOM     21  C   UNL     1      -5.791   0.336 -11.638  0.00  0.00    +0.001 A 
ATOM     22  C   UNL     1      -5.326  -0.549 -12.603  0.00  0.00    +0.001 A 
ATOM     23  C   UNL     1      -4.450  -1.558 -12.268  0.00  0.00    +0.014 A 
ATOM     24  C   UNL     1      -4.028  -1.688 -10.945  0.00  0.00    +0.050 A 
ATOM     25  C   UNL     1      -3.096  -2.741 -10.525  0.00  0.00    +0.275 A 
ATOM     26  O   UNL     1      -2.659  -3.541 -11.333  0.00  0.00    -0.266 OA
ATOM     27  N   UNL     1      -2.732  -2.805  -9.227  0.00  0.00    -0.232 N 
ATOM     28  N   UNL     1      -3.213  -1.897  -8.284  0.00  0.00    -0.172 NA
ATOM     29  C   UNL     1      -1.802  -3.853  -8.799  0.00  0.00    +0.176 C 
ENDBRANCH  17  18
ENDBRANCH   2  17
TORSDOF 5
