REMARK  Name = ZINC41139299
REMARK  7 active torsions:
REMARK  status: ('A' for Active; 'I' for Inactive)
REMARK    1  A    between atoms: C_5  and  N_7
REMARK    2  A    between atoms: N_10  and  C_13
REMARK    3  A    between atoms: C_13  and  C_14
REMARK    4  A    between atoms: C_14  and  C_15
REMARK    5  A    between atoms: C_15  and  C_16
REMARK    6  A    between atoms: C_19  and  O_23
REMARK    7  A    between atoms: C_20  and  N_22
REMARK                            x       y       z     vdW  Elec       q    Type
REMARK                         _______ _______ _______ _____ _____    ______ ____
ROOT
ATOM      1  N   UNL     1       1.236  -2.079  -0.021  0.00  0.00    -0.331 N 
ATOM      2  C   UNL     1       1.254  -2.842   1.236  0.00  0.00    +0.086 C 
ATOM      3  C   UNL     1       2.390  -3.869   1.165  0.00  0.00    -0.060 C 
ATOM      4  N   UNL     1       2.231  -4.691  -0.041  0.00  0.00    +0.382 N 
ATOM      5  C   UNL     1       2.378  -3.855  -1.239  0.00  0.00    -0.060 C 
ATOM      6  C   UNL     1       1.236  -2.828  -1.287  0.00  0.00    +0.086 C 
ATOM      7  H   UNL     1       1.315  -5.115  -0.039  0.00  0.00    -0.082 HD
ENDROOT
BRANCH   1  12
ATOM      8  C   UNL     1      -0.017   1.377   0.010  0.00  0.00    +0.002 A 
ATOM      9  C   UNL     1       1.170   2.087   0.002  0.00  0.00    +0.003 A 
ATOM     10  C   UNL     1       2.380   1.418  -0.013  0.00  0.00    +0.040 A 
ATOM     11  C   UNL     1       2.406   0.035  -0.021  0.00  0.00    +0.144 A 
ATOM     12  C   UNL     1       1.214  -0.681  -0.013  0.00  0.00    +0.065 A 
ATOM     13  C   UNL     1       0.002  -0.004   0.002  0.00  0.00    +0.026 A 
ATOM     14  F   UNL     1       3.588  -0.619  -0.036  0.00  0.00    -0.204 F 
ENDBRANCH   1  12
BRANCH   4  15
ATOM     15  C   UNL     1       3.255  -5.744  -0.052  0.00  0.00    -0.078 C 
BRANCH  15  16
ATOM     16  C   UNL     1       3.014  -6.676  -1.241  0.00  0.00    -0.014 C 
BRANCH  16  17
ATOM     17  C   UNL     1       4.081  -7.774  -1.253  0.00  0.00    +0.033 C 
BRANCH  17  18
ATOM     18  C   UNL     1       3.844  -8.692  -2.424  0.00  0.00    -0.045 A 
ATOM     19  C   UNL     1       3.028  -9.799  -2.279  0.00  0.00    +0.007 A 
ATOM     20  C   UNL     1       2.807 -10.645  -3.350  0.00  0.00    +0.047 A 
ATOM     21  C   UNL     1       3.403 -10.385  -4.573  0.00  0.00    +0.137 A 
ATOM     22  C   UNL     1       4.224  -9.269  -4.721  0.00  0.00    +0.067 A 
ATOM     23  C   UNL     1       4.438  -8.422  -3.643  0.00  0.00    +0.030 A 
BRANCH  22  24
ATOM     24  N   UNL     1       4.829  -9.002  -5.954  0.00  0.00    -0.355 N 
ATOM     25  H   UNL     1       4.676  -9.593  -6.708  0.00  0.00    +0.142 HD
ATOM     26  H   UNL     1       5.401  -8.225  -6.055  0.00  0.00    +0.142 HD
ENDBRANCH  22  24
BRANCH  21  27
ATOM     27  O   UNL     1       3.186 -11.216  -5.627  0.00  0.00    -0.505 OA
ATOM     28  H   UNL     1       2.424 -10.973  -6.170  0.00  0.00    +0.292 HD
ENDBRANCH  21  27
ENDBRANCH  17  18
ENDBRANCH  16  17
ENDBRANCH  15  16
ENDBRANCH   4  15
TORSDOF 7
