REMARK  Name = ZINC13151758
REMARK  9 active torsions:
REMARK  status: ('A' for Active; 'I' for Inactive)
REMARK    1  A    between atoms: C_1  and  C_2
REMARK    2  A    between atoms: C_7  and  O_8
REMARK    3  A    between atoms: O_8  and  C_9
REMARK    4  A    between atoms: C_11  and  N_24
REMARK    5  A    between atoms: C_13  and  O_23
REMARK    6  A    between atoms: C_15  and  O_22
REMARK    7  A    between atoms: C_17  and  C_20
REMARK    8  A    between atoms: C_20  and  O_21
REMARK    9  A    between atoms: C_25  and  C_27
REMARK                            x       y       z     vdW  Elec       q    Type
REMARK                         _______ _______ _______ _____ _____    ______ ____
ROOT
ATOM      1  C   UNL     1      -3.038   3.521   2.385  0.00  0.00    +0.331 C 
ATOM      2  C   UNL     1      -1.543   3.366   2.675  0.00  0.00    +0.173 C 
ATOM      3  C   UNL     1      -0.967   4.723   3.093  0.00  0.00    +0.172 C 
ATOM      4  C   UNL     1      -1.241   5.745   1.985  0.00  0.00    +0.176 C 
ATOM      5  C   UNL     1      -2.747   5.809   1.721  0.00  0.00    +0.179 C 
ATOM      6  O   UNL     1      -3.224   4.509   1.368  0.00  0.00    -0.332 OA
ENDROOT
BRANCH   2   7
ATOM      7  N   UNL     1      -0.857   2.894   1.470  0.00  0.00    -0.304 N 
ATOM      8  C   UNL     1       0.266   2.158   1.578  0.00  0.00    +0.210 C 
ATOM      9  O   UNL     1       0.710   1.886   2.674  0.00  0.00    -0.276 OA
ATOM     10  C   UNL     1       0.972   1.671   0.339  0.00  0.00    +0.109 C 
ATOM     11  H   UNL     1      -1.212   3.111   0.593  0.00  0.00    +0.149 HD
ENDBRANCH   2   7
BRANCH   4  12
ATOM     12  O   UNL     1      -0.563   5.347   0.791  0.00  0.00    -0.387 OA
ATOM     13  H   UNL     1      -0.692   5.950   0.046  0.00  0.00    +0.210 HD
ENDBRANCH   4  12
BRANCH   3  14
ATOM     14  O   UNL     1       0.442   4.602   3.295  0.00  0.00    -0.387 OA
ATOM     15  H   UNL     1       0.873   5.426   3.562  0.00  0.00    +0.210 HD
ENDBRANCH   3  14
BRANCH   1  16
ATOM     16  O   UNL     1      -3.714   3.931   3.576  0.00  0.00    -0.461 OA
BRANCH  16  23
ATOM     17  C   UNL     1      -5.070   4.726   5.923  0.00  0.00    +0.047 C 
ATOM     18  C   UNL     1      -5.793   4.293   4.674  0.00  0.00    -0.009 A 
ATOM     19  C   UNL     1      -7.174   4.280   4.644  0.00  0.00    +0.007 A 
ATOM     20  C   UNL     1      -7.838   3.878   3.500  0.00  0.00    +0.000 A 
ATOM     21  C   UNL     1      -7.123   3.493   2.381  0.00  0.00    +0.004 A 
ATOM     22  C   UNL     1      -5.742   3.510   2.404  0.00  0.00    +0.046 A 
ATOM     23  C   UNL     1      -5.073   3.913   3.551  0.00  0.00    +0.127 A 
ENDBRANCH  16  23
ENDBRANCH   1  16
BRANCH   5  24
ATOM     24  C   UNL     1      -3.024   6.783   0.575  0.00  0.00    +0.190 C 
BRANCH  24  25
ATOM     25  O   UNL     1      -4.435   6.932   0.406  0.00  0.00    -0.392 OA
ATOM     26  H   UNL     1      -4.684   7.537  -0.306  0.00  0.00    +0.210 HD
ENDBRANCH  24  25
ENDBRANCH   5  24
TORSDOF 7
