REMARK  Name = ZINC39856235
REMARK  9 active torsions:
REMARK  status: ('A' for Active; 'I' for Inactive)
REMARK    1  A    between atoms: C_1  and  C_2
REMARK    2  A    between atoms: C_6  and  C_7
REMARK    3  A    between atoms: N_9  and  C_10
REMARK    4  A    between atoms: N_9  and  C_11
REMARK    5  A    between atoms: C_19  and  C_27
REMARK    6  A    between atoms: C_19  and  C_28
REMARK    7  A    between atoms: N_22  and  N_23
REMARK    8  A    between atoms: N_23  and  C_24
REMARK    9  A    between atoms: C_24  and  N_26
REMARK                            x       y       z     vdW  Elec       q    Type
REMARK                         _______ _______ _______ _____ _____    ______ ____
ROOT
ATOM      1  C   UNL     1      -0.056   1.501   0.010  0.00  0.00    +0.048 C 
ATOM      2  C   UNL     1      -0.015  -0.005   0.002  0.00  0.00    +0.009 A 
ATOM      3  C   UNL     1      -0.001  -0.839  -1.123  0.00  0.00    +0.042 A 
ATOM      4  C   UNL     1       0.037  -2.138  -0.673  0.00  0.00    +0.116 A 
ATOM      5  O   UNL     1       0.049  -2.112   0.658  0.00  0.00    -0.454 OA
ATOM      6  C   UNL     1       0.022  -0.831   1.091  0.00  0.00    +0.193 A 
ATOM      7  C   UNL     1       0.056  -3.327  -1.599  0.00  0.00    +0.081 C 
ATOM      8  C   UNL     1      -0.478  -2.911  -2.972  0.00  0.00    -0.023 C 
ATOM      9  C   UNL     1       0.274  -1.683  -3.496  0.00  0.00    +0.064 C 
ATOM     10  C   UNL     1      -0.017  -0.513  -2.566  0.00  0.00    +0.070 C 
ATOM     11  N   UNL     1      -0.262   0.682  -3.007  0.00  0.00    -0.185 NA
ATOM     12  C   UNL     1      -1.967  -2.577  -2.854  0.00  0.00    +0.011 C 
ATOM     13  C   UNL     1      -0.299  -4.069  -3.956  0.00  0.00    +0.011 C 
ENDROOT
BRANCH   6  14
ATOM     14  C   UNL     1       0.028  -0.400   2.493  0.00  0.00    +0.286 C 
ATOM     15  O   UNL     1       0.102   0.784   2.765  0.00  0.00    -0.266 OA
ATOM     16  N   UNL     1      -0.048  -1.315   3.480  0.00  0.00    -0.267 N 
ATOM     17  C   UNL     1      -0.151  -0.881   4.875  0.00  0.00    +0.139 C 
BRANCH  16  18
ATOM     18  C   UNL     1      -0.029  -2.679   3.171  0.00  0.00    +0.055 A 
ATOM     19  C   UNL     1       1.179  -3.362   3.113  0.00  0.00    +0.025 A 
ATOM     20  C   UNL     1       1.195  -4.709   2.808  0.00  0.00    +0.002 A 
ATOM     21  C   UNL     1       0.010  -5.378   2.561  0.00  0.00    +0.002 A 
ATOM     22  C   UNL     1      -1.195  -4.702   2.618  0.00  0.00    +0.022 A 
ATOM     23  C   UNL     1      -1.218  -3.355   2.928  0.00  0.00    +0.062 A 
ATOM     24 CL   UNL     1      -2.731  -2.508   3.007  0.00  0.00    -0.082 Cl
ENDBRANCH  16  18
ENDBRANCH   6  14
BRANCH  11  25
ATOM     25  N   UNL     1      -0.265   0.933  -4.386  0.00  0.00    -0.218 N 
ATOM     26  H   UNL     1      -0.084   0.213  -5.010  0.00  0.00    +0.176 HD
BRANCH  25  27
ATOM     27  C   UNL     1      -0.520   2.175  -4.844  0.00  0.00    +0.147 C 
ATOM     28  S   UNL     1      -0.523   2.482  -6.528  0.00  0.00    -0.017 S 
BRANCH  27  29
ATOM     29  N   UNL     1      -0.772   3.174  -3.976  0.00  0.00    -0.339 N 
ATOM     30  H   UNL     1      -0.770   3.000  -3.022  0.00  0.00    +0.144 HD
ATOM     31  H   UNL     1      -0.955   4.068  -4.306  0.00  0.00    +0.144 HD
ENDBRANCH  27  29
ENDBRANCH  25  27
ENDBRANCH  11  25
TORSDOF 5
