REMARK  Name = ZINC39686504
REMARK  8 active torsions:
REMARK  status: ('A' for Active; 'I' for Inactive)
REMARK    1  A    between atoms: C_1  and  C_2
REMARK    2  A    between atoms: C_2  and  C_4
REMARK    3  A    between atoms: C_2  and  N_13
REMARK    4  A    between atoms: C_4  and  C_5
REMARK    5  A    between atoms: C_10  and  O_11
REMARK    6  A    between atoms: O_11  and  C_12
REMARK    7  A    between atoms: C_14  and  C_16
REMARK    8  A    between atoms: C_27  and  C_29
REMARK                            x       y       z     vdW  Elec       q    Type
REMARK                         _______ _______ _______ _____ _____    ______ ____
ROOT
ATOM      1  C   UNL     1       0.210  -0.792   3.355  0.00  0.00    +0.100 C 
ATOM      2  C   UNL     1       1.547  -0.079   3.657  0.00  0.00    +0.121 C 
ATOM      3  N   UNL     1       1.248   0.806   4.807  0.00  0.00    -0.296 N 
ATOM      4  C   UNL     1       0.347   0.002   5.667  0.00  0.00    +0.115 C 
ATOM      5  C   UNL     1      -0.573  -0.740   4.677  0.00  0.00    -0.004 C 
ATOM      6  C   UNL     1      -0.858  -2.153   5.178  0.00  0.00    -0.010 C 
ATOM      7  C   UNL     1      -1.687  -2.076   6.463  0.00  0.00    -0.082 C 
ATOM      8  N   UNL     1      -2.945  -1.367   6.195  0.00  0.00    +0.379 N 
ATOM      9  C   UNL     1      -2.664   0.019   5.803  0.00  0.00    -0.082 C 
ATOM     10  C   UNL     1      -1.876   0.031   4.490  0.00  0.00    -0.010 C 
ATOM     11  C   UNL     1       1.694   2.059   5.022  0.00  0.00    +0.250 C 
ATOM     12  O   UNL     1       1.430   2.628   6.064  0.00  0.00    -0.270 OA
ATOM     13  H   UNL     1      -3.439  -1.833   5.449  0.00  0.00    -0.086 HD
ATOM     14  H   UNL     1      -3.516  -1.371   7.027  0.00  0.00    -0.086 HD
ENDROOT
BRANCH  11  15
ATOM     15  C   UNL     1       2.504   2.743   3.993  0.00  0.00    +0.074 A 
ATOM     16  C   UNL     1       3.429   2.026   3.223  0.00  0.00    +0.017 A 
ATOM     17  C   UNL     1       4.162   2.712   2.272  0.00  0.00    +0.021 A 
ATOM     18  C   UNL     1       3.962   4.072   2.112  0.00  0.00    +0.112 A 
ATOM     19  N   UNL     1       3.083   4.723   2.850  0.00  0.00    -0.243 NA
ATOM     20  C   UNL     1       2.357   4.113   3.766  0.00  0.00    +0.141 A 
ATOM     21 CL   UNL     1       1.212   5.022   4.702  0.00  0.00    -0.061 Cl
ENDBRANCH  11  15
BRANCH   1  23
ATOM     22  N   UNL     1      -1.286  -0.751   1.385  0.00  0.00    -0.312 N 
ATOM     23  C   UNL     1      -0.541  -0.062   2.272  0.00  0.00    +0.218 C 
ATOM     24  O   UNL     1      -0.476   1.147   2.198  0.00  0.00    -0.275 OA
ATOM     25  H   UNL     1      -1.338  -1.718   1.444  0.00  0.00    +0.149 HD
BRANCH  22  27
ATOM     26  C   UNL     1      -1.086   0.201  -0.859  0.00  0.00    +0.028 C 
ATOM     27  C   UNL     1      -2.016  -0.041   0.332  0.00  0.00    +0.074 C 
BRANCH  27  28
ATOM     28  C   UNL     1      -3.211  -0.884  -0.117  0.00  0.00    +0.060 C 
BRANCH  28  29
ATOM     29  C   UNL     1      -4.187  -1.020   1.023  0.00  0.00    -0.004 A 
ATOM     30  C   UNL     1      -4.134  -2.124   1.851  0.00  0.00    +0.007 A 
ATOM     31  C   UNL     1      -5.029  -2.249   2.897  0.00  0.00    +0.000 A 
ATOM     32  C   UNL     1      -5.980  -1.269   3.117  0.00  0.00    +0.004 A 
ATOM     33  C   UNL     1      -6.037  -0.163   2.292  0.00  0.00    +0.046 A 
ATOM     34  C   UNL     1      -5.136  -0.033   1.245  0.00  0.00    +0.123 A 
BRANCH  34  35
ATOM     35  O   UNL     1      -5.187   1.057   0.435  0.00  0.00    -0.495 OA
ATOM     36  C   UNL     1      -6.191   2.033   0.723  0.00  0.00    +0.277 C 
ENDBRANCH  34  35
ENDBRANCH  28  29
ENDBRANCH  27  28
ENDBRANCH  22  27
ENDBRANCH   1  23
TORSDOF 6
