REMARK  Name = ZINC32605116
REMARK  4 active torsions:
REMARK  status: ('A' for Active; 'I' for Inactive)
REMARK    1  A    between atoms: C_1  and  C_2
REMARK    2  A    between atoms: N_9  and  C_10
REMARK    3  A    between atoms: C_10  and  C_12
REMARK    4  A    between atoms: C_26  and  C_29
REMARK                            x       y       z     vdW  Elec       q    Type
REMARK                         _______ _______ _______ _____ _____    ______ ____
ROOT
ATOM      1  C   UNL     1      -0.036  -2.977   4.737  0.00  0.00    +0.273 C 
ATOM      2  O   UNL     1       0.819  -3.809   4.992  0.00  0.00    -0.268 OA
ENDROOT
BRANCH   1  11
ATOM      3  C   UNL     1       0.876   1.454   0.054  0.00  0.00    +0.044 C 
ATOM      4  C   UNL     1       0.690  -0.042   0.035  0.00  0.00    -0.050 A 
ATOM      5  C   UNL     1       0.726  -0.725  -1.173  0.00  0.00    +0.005 A 
ATOM      6  C   UNL     1       0.558  -2.091  -1.213  0.00  0.00    +0.026 A 
ATOM      7  C   UNL     1       0.350  -2.796  -0.031  0.00  0.00    +0.048 A 
ATOM      8  C   UNL     1       0.315  -2.098   1.190  0.00  0.00    +0.022 A 
ATOM      9  C   UNL     1       0.492  -0.714   1.209  0.00  0.00    +0.015 A 
ATOM     10  C   UNL     1       0.093  -2.862   2.429  0.00  0.00    +0.068 A 
ATOM     11  N   UNL     1       0.050  -2.253   3.617  0.00  0.00    -0.176 NA
ATOM     12  C   UNL     1      -0.072  -4.261   2.320  0.00  0.00    +0.046 A 
ATOM     13  C   UNL     1      -0.025  -4.857   1.108  0.00  0.00    +0.015 A 
ATOM     14  N   UNL     1       0.178  -4.162  -0.037  0.00  0.00    -0.358 N 
ATOM     15  H   UNL     1       0.203  -4.638  -0.882  0.00  0.00    +0.166 HD
ATOM     16  C   UNL     1      -0.204  -6.351   1.027  0.00  0.00    +0.063 C 
ENDBRANCH   1  11
BRANCH   1  17
ATOM     17  C   UNL     1      -1.165  -2.771   5.664  0.00  0.00    +0.102 A 
ATOM     18  C   UNL     1      -1.261  -3.507   6.824  0.00  0.00    +0.100 A 
ATOM     19  N   UNL     1      -2.272  -3.347   7.691  0.00  0.00    -0.360 N 
ATOM     20  H   UNL     1      -2.288  -3.893   8.492  0.00  0.00    +0.165 HD
ATOM     21  C   UNL     1      -3.288  -2.438   7.492  0.00  0.00    +0.050 A 
ATOM     22  C   UNL     1      -4.316  -2.310   8.424  0.00  0.00    +0.028 A 
ATOM     23  C   UNL     1      -5.326  -1.398   8.213  0.00  0.00    +0.022 A 
ATOM     24  C   UNL     1      -5.335  -0.599   7.077  0.00  0.00    +0.042 A 
ATOM     25  C   UNL     1      -4.329  -0.709   6.142  0.00  0.00    +0.033 A 
ATOM     26  C   UNL     1      -3.299  -1.629   6.343  0.00  0.00    +0.047 A 
ATOM     27  C   UNL     1      -2.202  -1.771   5.368  0.00  0.00    +0.202 A 
ATOM     28  O   UNL     1      -2.159  -1.091   4.357  0.00  0.00    -0.286 OA
ATOM     29 CL   UNL     1      -6.620   0.542   6.833  0.00  0.00    -0.084 Cl
ENDBRANCH   1  17
TORSDOF 2
