REMARK  Name = ZINC03558194
REMARK  10 active torsions:
REMARK  status: ('A' for Active; 'I' for Inactive)
REMARK    1  A    between atoms: C_1  and  C_2
REMARK    2  A    between atoms: C_3  and  C_27
REMARK    3  A    between atoms: C_4  and  C_26
REMARK    4  A    between atoms: C_7  and  C_8
REMARK    5  A    between atoms: C_8  and  O_10
REMARK    6  A    between atoms: O_10  and  C_11
REMARK    7  A    between atoms: C_11  and  C_13
REMARK    8  A    between atoms: C_11  and  C_19
REMARK    9  A    between atoms: N_24  and  C_25
REMARK   10  A    between atoms: C_27  and  C_29
REMARK                            x       y       z     vdW  Elec       q    Type
REMARK                         _______ _______ _______ _____ _____    ______ ____
ROOT
ATOM      1  C   UNL     1       4.182  -0.365  -0.043  0.00  0.00    +0.293 C 
ENDROOT
BRANCH   1   2
ATOM      2  C   UNL     1       4.345  -1.675  -0.771  0.00  0.00    +0.266 C 
ATOM      3  O   UNL     1       3.375  -2.237  -1.232  0.00  0.00    -0.271 OA
ATOM      4  N   UNL     1       5.569  -2.222  -0.908  0.00  0.00    -0.237 N 
ATOM      5  C   UNL     1       5.715  -3.393  -1.559  0.00  0.00    +0.306 C 
ATOM      6  O   UNL     1       4.743  -3.957  -2.021  0.00  0.00    -0.252 OA
ATOM      7  N   UNL     1       6.939  -3.940  -1.696  0.00  0.00    -0.302 N 
ATOM      8  C   UNL     1       7.098  -5.213  -2.403  0.00  0.00    +0.129 C 
ATOM      9  H   UNL     1       6.346  -1.772  -0.539  0.00  0.00    +0.159 HD
ATOM     10  H   UNL     1       7.716  -3.491  -1.327  0.00  0.00    +0.150 HD
ENDBRANCH   1   2
BRANCH   1  11
ATOM     11  C   UNL     1       4.676  -0.512   1.373  0.00  0.00    +0.002 A 
ATOM     12  C   UNL     1       3.869  -1.098   2.329  0.00  0.00    +0.008 A 
ATOM     13  C   UNL     1       4.324  -1.237   3.627  0.00  0.00    +0.000 A 
ATOM     14  C   UNL     1       5.583  -0.781   3.971  0.00  0.00    +0.000 A 
ATOM     15  C   UNL     1       6.389  -0.191   3.015  0.00  0.00    +0.000 A 
ATOM     16  C   UNL     1       5.935  -0.056   1.716  0.00  0.00    +0.008 A 
ENDBRANCH   1  11
BRANCH   1  17
ATOM     17  O   UNL     1       2.780   0.010  -0.030  0.00  0.00    -0.443 OA
BRANCH  17  18
ATOM     18  C   UNL     1       2.499   1.329  -0.012  0.00  0.00    +0.357 C 
ATOM     19  O   UNL     1       3.402   2.143  -0.008  0.00  0.00    -0.243 OA
BRANCH  18  26
ATOM     20  C   UNL     1       1.564   4.303   0.029  0.00  0.00    +0.047 C 
ATOM     21  C   UNL     1       0.686   3.079   0.021  0.00  0.00    -0.008 A 
ATOM     22  C   UNL     1      -0.729   3.057   0.030  0.00  0.00    +0.041 A 
ATOM     23  C   UNL     1      -1.114   1.725   0.010  0.00  0.00    +0.024 A 
ATOM     24  N   UNL     1      -0.009   0.966  -0.001  0.00  0.00    -0.352 N 
ATOM     25  H   UNL     1       0.006  -0.004  -0.012  0.00  0.00    +0.166 HD
ATOM     26  C   UNL     1       1.104   1.781   0.002  0.00  0.00    +0.128 A 
ATOM     27  C   UNL     1      -2.533   1.218   0.006  0.00  0.00    +0.064 C 
BRANCH  22  28
ATOM     28  C   UNL     1      -1.619   4.222   0.050  0.00  0.00    +0.162 C 
ATOM     29  O   UNL     1      -1.926   4.769  -0.989  0.00  0.00    -0.292 OA
ATOM     30  C   UNL     1      -2.152   4.741   1.360  0.00  0.00    +0.091 C 
ENDBRANCH  22  28
ENDBRANCH  18  26
ENDBRANCH  17  18
ENDBRANCH   1  17
TORSDOF 6
