REMARK  Name = ZINC44242846
REMARK  4 active torsions:
REMARK  status: ('A' for Active; 'I' for Inactive)
REMARK    1  A    between atoms: C_3  and  N_11
REMARK    2  A    between atoms: C_4  and  C_8
REMARK    3  A    between atoms: N_11  and  S_12
REMARK    4  A    between atoms: S_12  and  C_15
REMARK                            x       y       z     vdW  Elec       q    Type
REMARK                         _______ _______ _______ _____ _____    ______ ____
ROOT
ATOM      1  N   UNL     1       3.570   2.150  -0.022  0.00  0.00    -0.097 NA
ENDROOT
BRANCH   1   4
ATOM      2  C   UNL     1      -0.017   1.383   0.010  0.00  0.00    +0.022 A 
ATOM      3  C   UNL     1       1.163   2.098   0.002  0.00  0.00    +0.029 A 
ATOM      4  C   UNL     1       2.382   1.432  -0.013  0.00  0.00    +0.088 A 
ATOM      5  C   UNL     1       2.405   0.026  -0.021  0.00  0.00    +0.089 A 
ATOM      6  C   UNL     1       1.200  -0.684  -0.013  0.00  0.00    +0.037 A 
ATOM      7  C   UNL     1       0.002  -0.004   0.002  0.00  0.00    +0.042 A 
ATOM      8 CL   UNL     1      -1.492  -0.888   0.011  0.00  0.00    -0.084 Cl
BRANCH   5   9
ATOM      9  C   UNL     1       3.688  -0.692  -0.038  0.00  0.00    +0.388 C 
ATOM     10  O   UNL     1       3.704  -1.915  -0.045  0.00  0.00    -0.241 OA
ATOM     11  O   UNL     1       4.740  -0.066  -0.046  0.00  0.00    -0.241 OA
ENDBRANCH   5   9
ENDBRANCH   1   4
BRANCH   1  12
ATOM     12  S   UNL     1       3.536   3.805  -0.013  0.00  0.00    +0.093 S 
ATOM     13  O   UNL     1       2.965   4.206  -1.251  0.00  0.00    -0.148 OA
ATOM     14  O   UNL     1       2.990   4.194   1.240  0.00  0.00    -0.148 OA
BRANCH  12  15
ATOM     15  C   UNL     1       5.209   4.360  -0.027  0.00  0.00    +0.129 A 
ATOM     16  C   UNL     1       5.889   4.569   1.163  0.00  0.00    +0.047 A 
ATOM     17  C   UNL     1       7.204   5.006   1.103  0.00  0.00    +0.038 A 
ATOM     18  C   UNL     1       7.789   5.216  -0.133  0.00  0.00    +0.126 A 
ATOM     19  N   UNL     1       7.111   5.006  -1.244  0.00  0.00    -0.260 NA
ATOM     20  C   UNL     1       5.861   4.586  -1.225  0.00  0.00    +0.139 A 
ATOM     21 BR   UNL     1       8.185   5.310   2.691  0.00  0.00    -0.049 Br
ENDBRANCH  12  15
ENDBRANCH   1  12
TORSDOF 4
