REMARK  Name = ZINC16853065
REMARK  6 active torsions:
REMARK  status: ('A' for Active; 'I' for Inactive)
REMARK    1  A    between atoms: C_1  and  C_2
REMARK    2  A    between atoms: C_4  and  C_14
REMARK    3  A    between atoms: C_5  and  C_9
REMARK    4  A    between atoms: C_6  and  O_8
REMARK    5  A    between atoms: C_15  and  C_16
REMARK    6  A    between atoms: C_19  and  O_22
REMARK                            x       y       z     vdW  Elec       q    Type
REMARK                         _______ _______ _______ _____ _____    ______ ____
ROOT
ATOM      1  C   UNL     1       6.090  -2.433  -0.067  0.00  0.00    +0.088 C 
ATOM      2  C   UNL     1       6.097  -0.926  -0.060  0.00  0.00    +0.130 A 
ATOM      3  N   UNL     1       4.950  -0.283  -0.040  0.00  0.00    -0.232 NA
ATOM      4  C   UNL     1       4.915   1.053  -0.038  0.00  0.00    +0.074 A 
ATOM      5  C   UNL     1       6.121   1.760  -0.046  0.00  0.00    +0.042 A 
ATOM      6  C   UNL     1       7.307   1.036  -0.061  0.00  0.00    +0.220 A 
ATOM      7  N   UNL     1       7.253  -0.293  -0.067  0.00  0.00    -0.198 NA
ENDROOT
BRANCH   5   8
ATOM      8  C   UNL     1       6.135   3.267  -0.039  0.00  0.00    +0.026 C 
ATOM      9  C   UNL     1       6.899   3.795  -1.271  0.00  0.00    +0.008 C 
ATOM     10  C   UNL     1       7.654   5.041  -0.745  0.00  0.00    +0.001 C 
ATOM     11  C   UNL     1       8.086   4.604   0.678  0.00  0.00    +0.001 C 
ATOM     12  C   UNL     1       6.889   3.782   1.200  0.00  0.00    +0.008 C 
ENDBRANCH   5   8
BRANCH   6  13
ATOM     13  O   UNL     1       8.503   1.675  -0.069  0.00  0.00    -0.492 OA
ATOM     14  H   UNL     1       8.858   1.856   0.812  0.00  0.00    +0.294 HD
ENDBRANCH   6  13
BRANCH   4  15
ATOM     15  C   UNL     1       3.628   1.768  -0.023  0.00  0.00    +0.029 C 
ATOM     16  C   UNL     1       2.475   1.077  -0.015  0.00  0.00    +0.010 C 
BRANCH  16  17
ATOM     17  C   UNL     1       1.188   1.792   0.000  0.00  0.00    -0.025 A 
ATOM     18  C   UNL     1      -0.013   1.076   0.008  0.00  0.00    +0.011 A 
ATOM     19  C   UNL     1      -1.214   1.749   0.017  0.00  0.00    +0.046 A 
ATOM     20  C   UNL     1      -1.234   3.139   0.031  0.00  0.00    +0.117 A 
ATOM     21  C   UNL     1      -0.044   3.855   0.023  0.00  0.00    +0.046 A 
ATOM     22  C   UNL     1       1.163   3.191   0.008  0.00  0.00    +0.011 A 
BRANCH  20  23
ATOM     23  O   UNL     1      -2.421   3.798   0.047  0.00  0.00    -0.507 OA
ATOM     24  H   UNL     1      -2.774   3.994  -0.832  0.00  0.00    +0.292 HD
ENDBRANCH  20  23
ENDBRANCH  16  17
ENDBRANCH   4  15
TORSDOF 5
