REMARK  Name = ZINC42472385
REMARK  4 active torsions:
REMARK  status: ('A' for Active; 'I' for Inactive)
REMARK    1  A    between atoms: C_3  and  N_18
REMARK    2  A    between atoms: C_4  and  C_15
REMARK    3  A    between atoms: C_6  and  N_7
REMARK    4  A    between atoms: C_11  and  O_14
REMARK                            x       y       z     vdW  Elec       q    Type
REMARK                         _______ _______ _______ _____ _____    ______ ____
ROOT
ATOM      1  C   UNL     1       0.036   1.470   0.043  0.00  0.00    +0.025 A 
ATOM      2  C   UNL     1       1.264   2.099   0.025  0.00  0.00    +0.025 A 
ATOM      3  C   UNL     1       2.431   1.347  -0.023  0.00  0.00    +0.037 A 
ATOM      4  C   UNL     1       2.358  -0.054  -0.054  0.00  0.00    +0.059 A 
ATOM      5  C   UNL     1       1.109  -0.681  -0.035  0.00  0.00    +0.038 A 
ATOM      6  C   UNL     1      -0.044   0.082   0.013  0.00  0.00    +0.031 A 
ENDROOT
BRANCH   6   7
ATOM      7  N   UNL     1      -1.296  -0.546   0.032  0.00  0.00    -0.327 N 
ATOM      8  C   UNL     1      -1.399  -2.007   0.138  0.00  0.00    +0.105 C 
ATOM      9  C   UNL     1      -2.266  -2.526  -1.013  0.00  0.00    +0.021 C 
ATOM     10  C   UNL     1      -3.612  -1.798  -0.999  0.00  0.00    +0.034 C 
ATOM     11  C   UNL     1      -3.386  -0.299  -1.203  0.00  0.00    +0.132 C 
ATOM     12  C   UNL     1      -2.531   0.245  -0.048  0.00  0.00    +0.136 C 
BRANCH  11  13
ATOM     13  O   UNL     1      -4.646   0.376  -1.221  0.00  0.00    -0.390 OA
ATOM     14  H   UNL     1      -5.240   0.080  -1.924  0.00  0.00    +0.210 HD
ENDBRANCH  11  13
ENDBRANCH   6   7
BRANCH   4  15
ATOM     15  C   UNL     1       3.591  -0.859  -0.105  0.00  0.00    +0.243 C 
ATOM     16  O   UNL     1       4.676  -0.317  -0.016  0.00  0.00    -0.270 OA
ATOM     17  N   UNL     1       3.517  -2.197  -0.251  0.00  0.00    -0.325 N 
ATOM     18  H   UNL     1       2.652  -2.630  -0.322  0.00  0.00    +0.145 HD
ATOM     19  H   UNL     1       4.329  -2.727  -0.285  0.00  0.00    +0.145 HD
ENDBRANCH   4  15
BRANCH   3  20
ATOM     20  N   UNL     1       3.669   1.982  -0.042  0.00  0.00    -0.357 N 
ATOM     21  H   UNL     1       3.718   2.949  -0.101  0.00  0.00    +0.142 HD
ATOM     22  H   UNL     1       4.484   1.457   0.004  0.00  0.00    +0.142 HD
ENDBRANCH   3  20
TORSDOF 4
