REMARK  Name = ZINC15022259
REMARK  13 active torsions:
REMARK  status: ('A' for Active; 'I' for Inactive)
REMARK    1  A    between atoms: C_1  and  C_2
REMARK    2  A    between atoms: N_5  and  C_11
REMARK    3  A    between atoms: C_8  and  O_10
REMARK    4  A    between atoms: C_11  and  C_12
REMARK    5  A    between atoms: C_11  and  C_13
REMARK    6  A    between atoms: C_11  and  C_14
REMARK    7  A    between atoms: C_15  and  C_16
REMARK    8  A    between atoms: C_17  and  C_18
REMARK    9  A    between atoms: C_18  and  C_19
REMARK   10  A    between atoms: C_18  and  C_20
REMARK   11  A    between atoms: C_18  and  N_21
REMARK   12  A    between atoms: C_24  and  O_30
REMARK   13  A    between atoms: C_26  and  C_29
REMARK                            x       y       z     vdW  Elec       q    Type
REMARK                         _______ _______ _______ _____ _____    ______ ____
ROOT
ATOM      1  C   UNL     1       2.688  -1.972  -2.684  0.00  0.00    -0.067 C 
ATOM      2  C   UNL     1       3.781  -1.567  -2.821  0.00  0.00    -0.013 C 
ENDROOT
BRANCH   1   3
ATOM      3  C   UNL     1       1.317  -2.480  -2.512  0.00  0.00    +0.079 C 
ATOM      4  C   UNL     1       1.341  -4.009  -2.472  0.00  0.00    +0.042 C 
ATOM      5  C   UNL     1       0.450  -2.014  -3.683  0.00  0.00    +0.042 C 
BRANCH   3   9
ATOM      6  C   UNL     1      -0.019   1.526   0.010  0.00  0.00    +0.011 C 
ATOM      7  C   UNL     1       0.002  -0.004   0.002  0.00  0.00    +0.029 C 
ATOM      8  C   UNL     1       0.720  -0.498  -1.256  0.00  0.00    +0.091 C 
ATOM      9  N   UNL     1       0.759  -1.966  -1.254  0.00  0.00    -0.287 NA
ATOM     10  C   UNL     1       1.508  -2.476  -0.099  0.00  0.00    +0.088 C 
ATOM     11  C   UNL     1       0.814  -2.041   1.194  0.00  0.00    +0.047 C 
ATOM     12  C   UNL     1       0.744  -0.512   1.241  0.00  0.00    +0.120 C 
BRANCH  12  13
ATOM     13  O   UNL     1       2.068   0.025   1.258  0.00  0.00    -0.391 OA
ATOM     14  H   UNL     1       2.597  -0.256   2.018  0.00  0.00    +0.210 HD
ENDBRANCH  12  13
ENDBRANCH   3   9
ENDBRANCH   1   3
BRANCH   2  15
ATOM     15  C   UNL     1       5.064  -1.091  -2.981  0.00  0.00    -0.013 C 
ATOM     16  C   UNL     1       6.157  -0.686  -3.119  0.00  0.00    -0.067 C 
BRANCH  16  17
ATOM     17  C   UNL     1       7.528  -0.178  -3.290  0.00  0.00    +0.079 C 
ATOM     18  C   UNL     1       8.109  -0.713  -4.600  0.00  0.00    +0.042 C 
ATOM     19  C   UNL     1       7.504   1.351  -3.330  0.00  0.00    +0.042 C 
BRANCH  17  20
ATOM     20  N   UNL     1       8.360  -0.626  -2.166  0.00  0.00    -0.287 NA
ATOM     21  C   UNL     1       9.760  -0.222  -2.354  0.00  0.00    +0.088 C 
ATOM     22  C   UNL     1      10.620  -0.827  -1.242  0.00  0.00    +0.047 C 
ATOM     23  C   UNL     1      10.107  -0.341   0.116  0.00  0.00    +0.120 C 
ATOM     24  C   UNL     1       8.634  -0.733   0.266  0.00  0.00    +0.029 C 
ATOM     25  C   UNL     1       7.831  -0.130  -0.889  0.00  0.00    +0.091 C 
ATOM     26  C   UNL     1       8.097  -0.200   1.596  0.00  0.00    +0.011 C 
BRANCH  23  27
ATOM     27  O   UNL     1      10.872  -0.947   1.160  0.00  0.00    -0.391 OA
ATOM     28  H   UNL     1      11.817  -0.745   1.123  0.00  0.00    +0.210 HD
ENDBRANCH  23  27
ENDBRANCH  17  20
ENDBRANCH  16  17
ENDBRANCH   2  15
TORSDOF 7
