REMARK  Name = ZINC39944162
REMARK  6 active torsions:
REMARK  status: ('A' for Active; 'I' for Inactive)
REMARK    1  A    between atoms: C_4  and  C_7
REMARK    2  A    between atoms: C_7  and  C_8
REMARK    3  A    between atoms: C_8  and  N_9
REMARK    4  A    between atoms: N_11  and  N_22
REMARK    5  A    between atoms: C_12  and  C_16
REMARK    6  A    between atoms: C_23  and  C_24
REMARK                            x       y       z     vdW  Elec       q    Type
REMARK                         _______ _______ _______ _____ _____    ______ ____
ROOT
ATOM      1  N   UNL     1       5.434  -1.696   1.388  0.00  0.00    -0.366 N 
ATOM      2  C   UNL     1       6.026  -2.009   2.506  0.00  0.00    +0.151 C 
ATOM      3  N   UNL     1       7.182  -2.745   2.679  0.00  0.00    -0.195 N 
ATOM      4  C   UNL     1       7.880  -2.680   3.949  0.00  0.00    +0.140 C 
ATOM      5  C   UNL     1       7.170  -1.775   4.983  0.00  0.00    +0.106 C 
ATOM      6  S   UNL     1       5.532  -1.578   4.169  0.00  0.00    -0.089 S 
ATOM      7  H   UNL     1       5.844  -1.931   0.541  0.00  0.00    +0.161 HD
ENDROOT
BRANCH   4   8
ATOM      8  C   UNL     1       9.269  -2.144   3.713  0.00  0.00    -0.024 A 
ATOM      9  C   UNL     1       9.468  -1.110   2.818  0.00  0.00    +0.005 A 
ATOM     10  C   UNL     1      10.742  -0.619   2.601  0.00  0.00    +0.000 A 
ATOM     11  C   UNL     1      11.816  -1.161   3.281  0.00  0.00    +0.000 A 
ATOM     12  C   UNL     1      11.617  -2.195   4.177  0.00  0.00    +0.000 A 
ATOM     13  C   UNL     1      10.342  -2.683   4.397  0.00  0.00    +0.005 A 
ENDBRANCH   4   8
BRANCH   3  14
ATOM     14  N   UNL     1       7.676  -3.544   1.640  0.00  0.00    -0.185 NA
ATOM     15  C   UNL     1       8.709  -4.323   1.846  0.00  0.00    +0.136 C 
BRANCH  15  16
ATOM     16  C   UNL     1       9.269  -5.040   0.782  0.00  0.00    +0.000 C 
ATOM     17  C   UNL     1      10.358  -5.910   0.832  0.00  0.00    +0.004 A 
ATOM     18  C   UNL     1      11.197  -6.329   1.887  0.00  0.00    +0.010 A 
ATOM     19  C   UNL     1      12.204  -7.205   1.640  0.00  0.00    +0.001 A 
ATOM     20  C   UNL     1      12.436  -7.710   0.358  0.00  0.00    +0.002 A 
ATOM     21  C   UNL     1      11.671  -7.351  -0.702  0.00  0.00    +0.026 A 
ATOM     22  C   UNL     1      10.599  -6.439  -0.521  0.00  0.00    +0.043 A 
ATOM     23  N   UNL     1       9.725  -5.941  -1.373  0.00  0.00    -0.380 N 
ATOM     24  C   UNL     1       8.816  -5.038  -0.661  0.00  0.00    +0.150 C 
ATOM     25  H   UNL     1       9.686  -6.144  -2.321  0.00  0.00    +0.160 HD
ENDBRANCH  15  16
ENDBRANCH   3  14
BRANCH   1  26
ATOM     26  C   UNL     1       4.150  -0.991   1.411  0.00  0.00    +0.119 C 
BRANCH  26  27
ATOM     27  C   UNL     1       3.677  -0.747  -0.024  0.00  0.00    +0.056 C 
BRANCH  27  31
ATOM     28  C   UNL     1      -0.066   1.310   0.040  0.00  0.00    +0.000 A 
ATOM     29  C   UNL     1       1.116   2.026   0.019  0.00  0.00    +0.000 A 
ATOM     30  C   UNL     1       2.327   1.361  -0.001  0.00  0.00    +0.004 A 
ATOM     31  C   UNL     1       2.356  -0.021  -0.000  0.00  0.00    -0.046 A 
ATOM     32  C   UNL     1       1.174  -0.738   0.022  0.00  0.00    +0.004 A 
ATOM     33  C   UNL     1      -0.037  -0.072   0.041  0.00  0.00    +0.000 A 
ENDBRANCH  27  31
ENDBRANCH  26  27
ENDBRANCH   1  26
TORSDOF 6
