REMARK  Name = ZINC49692519
REMARK  4 active torsions:
REMARK  status: ('A' for Active; 'I' for Inactive)
REMARK    1  A    between atoms: C_3  and  N_12
REMARK    2  A    between atoms: C_4  and  N_11
REMARK    3  A    between atoms: C_6  and  S_7
REMARK    4  A    between atoms: S_7  and  N_10
REMARK                            x       y       z     vdW  Elec       q    Type
REMARK                         _______ _______ _______ _____ _____    ______ ____
ROOT
ATOM      1  C   UNL     1      -0.017   1.378   0.010  0.00  0.00    +0.030 A 
ATOM      2  C   UNL     1       1.169   2.090   0.002  0.00  0.00    +0.027 A 
ATOM      3  C   UNL     1       2.381   1.417  -0.013  0.00  0.00    +0.051 A 
ATOM      4  C   UNL     1       2.400   0.022  -0.021  0.00  0.00    +0.048 A 
ATOM      5  C   UNL     1       1.207  -0.683  -0.013  0.00  0.00    +0.053 A 
ATOM      6  C   UNL     1       0.002  -0.004   0.002  0.00  0.00    +0.107 A 
ENDROOT
BRANCH   3   7
ATOM      7  N   UNL     1       3.583   2.136  -0.021  0.00  0.00    -0.327 N 
ATOM      8  C   UNL     1       4.188   2.518  -1.298  0.00  0.00    +0.118 C 
ATOM      9  C   UNL     1       5.521   1.782  -1.472  0.00  0.00    +0.122 C 
ATOM     10  S   UNL     1       6.593   2.177  -0.057  0.00  0.00    +0.025 S 
ATOM     11  O   UNL     1       7.735   1.333  -0.079  0.00  0.00    -0.257 OA
ATOM     12  C   UNL     1       5.556   1.757   1.376  0.00  0.00    +0.122 C 
ATOM     13  C   UNL     1       4.216   2.500   1.247  0.00  0.00    +0.118 C 
ENDBRANCH   3   7
BRANCH   6  14
ATOM     14  S   UNL     1      -1.513  -0.903   0.012  0.00  0.00    +0.056 S 
ATOM     15  O   UNL     1      -1.222  -2.184   0.553  0.00  0.00    -0.153 OA
ATOM     16  O   UNL     1      -2.492  -0.042   0.578  0.00  0.00    -0.153 OA
BRANCH  14  17
ATOM     17  N   UNL     1      -1.950  -1.145  -1.567  0.00  0.00    -0.204 NA
ATOM     18  H   UNL     1      -2.459  -1.932  -1.814  0.00  0.00    +0.144 HD
ATOM     19  H   UNL     1      -1.697  -0.498  -2.244  0.00  0.00    +0.144 HD
ENDBRANCH  14  17
ENDBRANCH   6  14
BRANCH   4  20
ATOM     20  N   UNL     1       3.621  -0.663  -0.037  0.00  0.00    -0.356 N 
ATOM     21  H   UNL     1       4.455  -0.169  -0.042  0.00  0.00    +0.142 HD
ATOM     22  H   UNL     1       3.632  -1.633  -0.042  0.00  0.00    +0.142 HD
ENDBRANCH   4  20
TORSDOF 4
