REMARK  Name = ZINC36743210
REMARK  5 active torsions:
REMARK  status: ('A' for Active; 'I' for Inactive)
REMARK    1  A    between atoms: C_1  and  C_2
REMARK    2  A    between atoms: C_6  and  S_8
REMARK    3  A    between atoms: S_8  and  N_11
REMARK    4  A    between atoms: N_11  and  C_12
REMARK    5  A    between atoms: C_13  and  N_20
REMARK                            x       y       z     vdW  Elec       q    Type
REMARK                         _______ _______ _______ _____ _____    ______ ____
ROOT
ATOM      1  N   UNL     1       1.169  -2.593   2.730  0.00  0.00    -0.213 N 
ATOM      2  H   UNL     1       1.264  -3.490   2.373  0.00  0.00    +0.174 HD
ENDROOT
BRANCH   1   3
ATOM      3  C   UNL     1       2.282  -1.929   3.263  0.00  0.00    +0.083 A 
ATOM      4  C   UNL     1       2.316  -1.597   4.617  0.00  0.00    +0.049 A 
ATOM      5  C   UNL     1       3.420  -0.940   5.139  0.00  0.00    +0.040 A 
ATOM      6  C   UNL     1       4.484  -0.616   4.316  0.00  0.00    +0.021 A 
ATOM      7  C   UNL     1       4.450  -0.944   2.974  0.00  0.00    +0.032 A 
ATOM      8  C   UNL     1       3.355  -1.605   2.447  0.00  0.00    +0.043 A 
ATOM      9 BR   UNL     1       3.317  -2.060   0.611  0.00  0.00    -0.048 Br
ATOM     10 BR   UNL     1       5.988   0.281   5.030  0.00  0.00    -0.050 Br
BRANCH   4  11
ATOM     11  N   UNL     1       1.238  -1.926   5.448  0.00  0.00    -0.356 N 
ATOM     12  H   UNL     1       0.588  -2.586   5.161  0.00  0.00    +0.142 HD
ATOM     13  H   UNL     1       1.141  -1.493   6.311  0.00  0.00    +0.142 HD
ENDBRANCH   4  11
ENDBRANCH   1   3
BRANCH   1  14
ATOM     14  S   UNL     1      -0.309  -1.846   2.710  0.00  0.00    +0.072 S 
ATOM     15  O   UNL     1      -0.513  -1.313   4.012  0.00  0.00    -0.150 OA
ATOM     16  O   UNL     1      -1.218  -2.759   2.110  0.00  0.00    -0.150 OA
BRANCH  14  22
ATOM     17  C   UNL     1       0.493   3.240   1.809  0.00  0.00    +0.044 C 
ATOM     18  C   UNL     1       0.192   1.869   1.262  0.00  0.00    -0.049 A 
ATOM     19  C   UNL     1       0.015   1.690  -0.098  0.00  0.00    +0.003 A 
ATOM     20  C   UNL     1      -0.261   0.432  -0.599  0.00  0.00    +0.002 A 
ATOM     21  C   UNL     1      -0.360  -0.648   0.258  0.00  0.00    +0.029 A 
ATOM     22  C   UNL     1      -0.183  -0.469   1.617  0.00  0.00    +0.109 A 
ATOM     23  C   UNL     1       0.098   0.788   2.119  0.00  0.00    +0.032 A 
ENDBRANCH  14  22
ENDBRANCH   1  14
TORSDOF 4
