REMARK  Name = ZINC39167587
REMARK  4 active torsions:
REMARK  status: ('A' for Active; 'I' for Inactive)
REMARK    1  A    between atoms: C_5  and  C_13
REMARK    2  A    between atoms: C_9  and  N_10
REMARK    3  A    between atoms: C_13  and  S_14
REMARK    4  A    between atoms: S_14  and  C_15
REMARK                            x       y       z     vdW  Elec       q    Type
REMARK                         _______ _______ _______ _____ _____    ______ ____
ROOT
ATOM      1  C   UNL     1      -0.017   1.402   0.010  0.00  0.00    +0.035 A 
ATOM      2  C   UNL     1       1.108   2.144   0.003  0.00  0.00    +0.029 A 
ATOM      3  C   UNL     1       2.417   1.476  -0.013  0.00  0.00    +0.060 A 
ATOM      4  N   UNL     1       3.639   1.924  -0.022  0.00  0.00    -0.363 N 
ATOM      5  C   UNL     1       4.535   0.761  -0.037  0.00  0.00    +0.184 C 
ATOM      6  N   UNL     1       3.671  -0.427  -0.035  0.00  0.00    -0.363 N 
ATOM      7  C   UNL     1       2.437  -0.012  -0.021  0.00  0.00    +0.062 A 
ATOM      8  C   UNL     1       1.147  -0.715  -0.013  0.00  0.00    +0.060 A 
ATOM      9  C   UNL     1       0.002  -0.004   0.002  0.00  0.00    +0.128 A 
ATOM     10  H   UNL     1       3.966  -1.351  -0.043  0.00  0.00    +0.162 HD
ATOM     11  H   UNL     1       3.909   2.856  -0.020  0.00  0.00    +0.162 HD
ENDROOT
BRANCH   9  12
ATOM     12  N   UNL     1      -1.286  -0.732   0.010  0.00  0.00    +0.056 N 
ATOM     13  O   UNL     1      -2.328  -0.118   0.024  0.00  0.00    -0.126 OA
ATOM     14  O   UNL     1      -1.298  -1.941   0.004  0.00  0.00    -0.126 OA
ENDBRANCH   9  12
BRANCH   5  15
ATOM     15  C   UNL     1       5.399   0.779  -1.299  0.00  0.00    +0.124 C 
BRANCH  15  16
ATOM     16  S   UNL     1       4.330   0.771  -2.765  0.00  0.00    -0.084 S 
BRANCH  16  17
ATOM     17  C   UNL     1       5.460   0.794  -4.117  0.00  0.00    +0.167 A 
ATOM     18  N   UNL     1       6.765   0.807  -4.007  0.00  0.00    -0.222 NA
ATOM     19  C   UNL     1       7.327   0.822  -5.244  0.00  0.00    +0.091 A 
ATOM     20  C   UNL     1       8.649   0.839  -5.698  0.00  0.00    +0.045 A 
ATOM     21  C   UNL     1       8.907   0.853  -7.051  0.00  0.00    +0.020 A 
ATOM     22  C   UNL     1       7.865   0.849  -7.967  0.00  0.00    +0.017 A 
ATOM     23  C   UNL     1       6.555   0.831  -7.534  0.00  0.00    +0.029 A 
ATOM     24  C   UNL     1       6.276   0.818  -6.176  0.00  0.00    +0.067 A 
ATOM     25  N   UNL     1       5.105   0.795  -5.436  0.00  0.00    -0.333 N 
ATOM     26 BR   UNL     1      10.696   0.877  -7.664  0.00  0.00    -0.050 Br
ATOM     27  H   UNL     1       4.201   0.784  -5.789  0.00  0.00    +0.168 HD
ENDBRANCH  16  17
ENDBRANCH  15  16
ENDBRANCH   5  15
TORSDOF 4
