REMARK  Name = ZINC07709597
REMARK  4 active torsions:
REMARK  status: ('A' for Active; 'I' for Inactive)
REMARK    1  A    between atoms: C_4  and  S_8
REMARK    2  A    between atoms: S_8  and  N_11
REMARK    3  A    between atoms: N_11  and  N_12
REMARK    4  A    between atoms: C_13  and  C_15
REMARK                            x       y       z     vdW  Elec       q    Type
REMARK                         _______ _______ _______ _____ _____    ______ ____
ROOT
ATOM      1  N   UNL     1      -3.529  -1.204   0.029  0.00  0.00    -0.108 NA
ATOM      2  H   UNL     1      -3.632  -1.877  -0.661  0.00  0.00    +0.172 HD
ENDROOT
BRANCH   1   3
ATOM      3  N   UNL     1      -2.410  -0.360   0.023  0.00  0.00    -0.227 N 
ATOM      4  C   UNL     1      -1.169  -0.887   0.009  0.00  0.00    +0.275 C 
ATOM      5  O   UNL     1      -1.021  -2.095   0.001  0.00  0.00    -0.267 OA
ATOM      6  H   UNL     1      -2.528   0.602   0.029  0.00  0.00    +0.171 HD
BRANCH   4   7
ATOM      7  C   UNL     1       0.002  -0.004   0.002  0.00  0.00    +0.104 A 
ATOM      8  C   UNL     1       1.322  -0.402  -0.013  0.00  0.00    +0.047 A 
ATOM      9  C   UNL     1       2.102   0.760  -0.014  0.00  0.00    +0.036 A 
ATOM     10  C   UNL     1       1.262   1.823  -0.000  0.00  0.00    +0.098 A 
ATOM     11  N   UNL     1      -0.017   1.372   0.010  0.00  0.00    -0.356 N 
ATOM     12  H   UNL     1      -0.812   1.927   0.017  0.00  0.00    +0.166 HD
ATOM     13 BR   UNL     1       3.991   0.833  -0.032  0.00  0.00    -0.049 Br
ENDBRANCH   4   7
ENDBRANCH   1   3
BRANCH   1  14
ATOM     14  S   UNL     1      -4.674  -1.051   1.216  0.00  0.00    +0.076 S 
ATOM     15  O   UNL     1      -5.735  -1.931   0.871  0.00  0.00    -0.152 OA
ATOM     16  O   UNL     1      -3.986  -1.136   2.457  0.00  0.00    -0.152 OA
BRANCH  14  20
ATOM     17  C   UNL     1      -6.336   3.152   0.941  0.00  0.00    +0.003 A 
ATOM     18  C   UNL     1      -7.152   2.066   0.682  0.00  0.00    +0.002 A 
ATOM     19  C   UNL     1      -6.643   0.783   0.760  0.00  0.00    +0.031 A 
ATOM     20  C   UNL     1      -5.320   0.584   1.109  0.00  0.00    +0.142 A 
ATOM     21  C   UNL     1      -4.503   1.671   1.369  0.00  0.00    +0.150 A 
ATOM     22  C   UNL     1      -5.012   2.955   1.285  0.00  0.00    +0.040 A 
ATOM     23  F   UNL     1      -3.208   1.477   1.704  0.00  0.00    -0.203 F 
ENDBRANCH  14  20
ENDBRANCH   1  14
TORSDOF 4
