REMARK  Name = ZINC09419159
REMARK  6 active torsions:
REMARK  status: ('A' for Active; 'I' for Inactive)
REMARK    1  A    between atoms: C_1  and  S_2
REMARK    2  A    between atoms: S_2  and  C_3
REMARK    3  A    between atoms: C_5  and  N_23
REMARK    4  A    between atoms: C_6  and  C_13
REMARK    5  A    between atoms: C_13  and  O_15
REMARK    6  A    between atoms: O_15  and  C_16
REMARK                            x       y       z     vdW  Elec       q    Type
REMARK                         _______ _______ _______ _____ _____    ______ ____
ROOT
ATOM      1  C   UNL     1       1.867  -1.995   0.035  0.00  0.00    +0.112 A 
ATOM      2  C   UNL     1       1.424  -0.639   0.015  0.00  0.00    +0.061 A 
ATOM      3  C   UNL     1       0.074  -0.115  -0.048  0.00  0.00    +0.058 A 
ATOM      4  C   UNL     1      -0.097   1.257  -0.056  0.00  0.00    +0.120 A 
ATOM      5  S   UNL     1       1.572   1.878   0.023  0.00  0.00    -0.060 S 
ATOM      6  C   UNL     1       2.446   0.336   0.063  0.00  0.00    +0.117 A 
ATOM      7  N   UNL     1       3.719  -0.005   0.123  0.00  0.00    -0.207 NA
ATOM      8  C   UNL     1       4.072  -1.284   0.139  0.00  0.00    +0.215 A 
ATOM      9  N   UNL     1       3.164  -2.251   0.097  0.00  0.00    -0.208 NA
ATOM     10  N   UNL     1       5.412  -1.616   0.202  0.00  0.00    -0.327 N 
ATOM     11  H   UNL     1       6.084  -0.917   0.234  0.00  0.00    +0.145 HD
ATOM     12  H   UNL     1       5.681  -2.548   0.214  0.00  0.00    +0.145 HD
ENDROOT
BRANCH   3  13
ATOM     13  N   UNL     1      -1.018  -0.968  -0.099  0.00  0.00    -0.356 N 
ATOM     14  H   UNL     1      -1.917  -0.610  -0.033  0.00  0.00    +0.142 HD
ATOM     15  H   UNL     1      -0.883  -1.923  -0.200  0.00  0.00    +0.142 HD
ENDBRANCH   3  13
BRANCH   1  17
ATOM     16  C   UNL     1       1.825  -4.731   0.033  0.00  0.00    +0.091 C 
ATOM     17  S   UNL     1       0.700  -3.314  -0.019  0.00  0.00    -0.108 S 
ENDBRANCH   1  17
BRANCH   4  18
ATOM     18  C   UNL     1      -1.302   1.988  -0.117  0.00  0.00    +0.353 C 
ATOM     19  O   UNL     1      -2.368   1.403  -0.172  0.00  0.00    -0.244 OA
BRANCH  18  20
ATOM     20  O   UNL     1      -1.272   3.338  -0.114  0.00  0.00    -0.422 OA
BRANCH  20  21
ATOM     21  C   UNL     1      -2.457   4.002  -0.058  0.00  0.00    +0.132 A 
ATOM     22  C   UNL     1      -2.973   4.601  -1.198  0.00  0.00    +0.048 A 
ATOM     23  C   UNL     1      -4.180   5.271  -1.139  0.00  0.00    +0.023 A 
ATOM     24  C   UNL     1      -4.868   5.354   0.058  0.00  0.00    +0.041 A 
ATOM     25  C   UNL     1      -4.353   4.762   1.198  0.00  0.00    +0.023 A 
ATOM     26  C   UNL     1      -3.149   4.087   1.142  0.00  0.00    +0.048 A 
ATOM     27 CL   UNL     1      -6.382   6.202   0.131  0.00  0.00    -0.084 Cl
ENDBRANCH  20  21
ENDBRANCH  18  20
ENDBRANCH   4  18
TORSDOF 5
