REMARK  Name = ZINC49691216
REMARK  4 active torsions:
REMARK  status: ('A' for Active; 'I' for Inactive)
REMARK    1  A    between atoms: C_6  and  N_7
REMARK    2  A    between atoms: N_11  and  C_12
REMARK    3  A    between atoms: C_12  and  C_14
REMARK    4  A    between atoms: C_14  and  N_15
REMARK                            x       y       z     vdW  Elec       q    Type
REMARK                         _______ _______ _______ _____ _____    ______ ____
ROOT
ATOM      1  C   UNL     1      -0.017   1.385  -0.002  0.00  0.00    +0.025 A 
ATOM      2  C   UNL     1       1.151   2.111  -0.002  0.00  0.00    +0.028 A 
ATOM      3  C   UNL     1       2.395   1.466  -0.020  0.00  0.00    +0.055 A 
ATOM      4  C   UNL     1       2.389   0.064  -0.039  0.00  0.00    +0.040 A 
ATOM      5  C   UNL     1       1.225  -0.667  -0.039  0.00  0.00    +0.040 A 
ATOM      6  C   UNL     1       0.002  -0.006  -0.021  0.00  0.00    +0.026 A 
ATOM      7  S   UNL     1       4.114  -0.347  -0.058  0.00  0.00    -0.052 S 
ATOM      8  C   UNL     1       4.752   1.208  -0.042  0.00  0.00    +0.164 A 
ATOM      9  N   UNL     1       3.664   2.018  -0.022  0.00  0.00    -0.335 N 
ATOM     10  N   UNL     1       6.035   1.564  -0.047  0.00  0.00    -0.158 NA
ATOM     11  H   UNL     1       3.776   2.982  -0.011  0.00  0.00    +0.168 HD
ENDROOT
BRANCH   6  12
ATOM     12  N   UNL     1      -1.194  -0.731  -0.021  0.00  0.00    -0.358 N 
ATOM     13  H   UNL     1      -2.044  -0.263  -0.008  0.00  0.00    +0.142 HD
ATOM     14  H   UNL     1      -1.174  -1.700  -0.034  0.00  0.00    +0.142 HD
ENDBRANCH   6  12
BRANCH  10  15
ATOM     15  C   UNL     1       6.368   2.847  -0.143  0.00  0.00    +0.222 C 
ATOM     16  O   UNL     1       5.504   3.702  -0.130  0.00  0.00    -0.276 OA
BRANCH  15  17
ATOM     17  C   UNL     1       7.817   3.242  -0.268  0.00  0.00    +0.021 C 
BRANCH  17  18
ATOM     18  N   UNL     1       7.920   4.704  -0.358  0.00  0.00    +0.387 N 
ATOM     19  C   UNL     1       7.422   5.298   0.884  0.00  0.00    -0.065 C 
ATOM     20  C   UNL     1       7.169   6.796   0.681  0.00  0.00    +0.085 C 
ATOM     21  S   UNL     1       8.754   7.591   0.270  0.00  0.00    +0.019 S 
ATOM     22  O   UNL     1       8.512   8.896  -0.237  0.00  0.00    -0.257 OA
ATOM     23  C   UNL     1       9.397   6.532  -1.064  0.00  0.00    +0.085 C 
ATOM     24  C   UNL     1       9.316   5.073  -0.600  0.00  0.00    -0.065 C 
ATOM     25  H   UNL     1       7.355   5.029  -1.129  0.00  0.00    -0.081 HD
ENDBRANCH  17  18
ENDBRANCH  15  17
ENDBRANCH  10  15
TORSDOF 4
