REMARK  Name = ZINC27601262
REMARK  6 active torsions:
REMARK  status: ('A' for Active; 'I' for Inactive)
REMARK    1  A    between atoms: C_4  and  N_22
REMARK    2  A    between atoms: C_5  and  C_7
REMARK    3  A    between atoms: N_9  and  N_10
REMARK    4  A    between atoms: C_11  and  C_13
REMARK    5  A    between atoms: N_22  and  S_23
REMARK    6  A    between atoms: S_23  and  C_26
REMARK                            x       y       z     vdW  Elec       q    Type
REMARK                         _______ _______ _______ _____ _____    ______ ____
ROOT
ATOM      1  C   UNL     1      -3.306  -1.181   0.514  0.00  0.00    +0.001 A 
ATOM      2  C   UNL     1      -4.565  -0.607   0.424  0.00  0.00    +0.002 A 
ATOM      3  C   UNL     1      -4.702   0.756   0.266  0.00  0.00    +0.025 A 
ATOM      4  C   UNL     1      -3.574   1.566   0.195  0.00  0.00    +0.060 A 
ATOM      5  C   UNL     1      -2.299   0.988   0.286  0.00  0.00    +0.060 A 
ATOM      6  C   UNL     1      -2.177  -0.395   0.441  0.00  0.00    +0.015 A 
ENDROOT
BRANCH   5   7
ATOM      7  C   UNL     1      -1.094   1.835   0.212  0.00  0.00    +0.262 C 
ATOM      8  O   UNL     1      -1.204   3.038   0.072  0.00  0.00    -0.269 OA
ATOM      9  N   UNL     1       0.129   1.276   0.299  0.00  0.00    -0.230 N 
ATOM     10  H   UNL     1       0.229   0.188   0.430  0.00  0.00    +0.173 HD
BRANCH   9  11
ATOM     11  N   UNL     1       1.274   2.080   0.223  0.00  0.00    -0.230 N 
ATOM     12  C   UNL     1       2.497   1.520   0.305  0.00  0.00    +0.260 C 
ATOM     13  O   UNL     1       2.607   0.317   0.445  0.00  0.00    -0.269 OA
ATOM     14  H   UNL     1       1.174   3.168   0.097  0.00  0.00    +0.173 HD
BRANCH  12  15
ATOM     15  C   UNL     1       3.704   2.367   0.225  0.00  0.00    +0.042 A 
ATOM     16  C   UNL     1       3.579   3.749   0.059  0.00  0.00    +0.017 A 
ATOM     17  C   UNL     1       4.706   4.539  -0.010  0.00  0.00    +0.050 A 
ATOM     18  C   UNL     1       5.968   3.965   0.074  0.00  0.00    +0.166 A 
ATOM     19  C   UNL     1       6.099   2.585   0.234  0.00  0.00    +0.167 A 
ATOM     20  C   UNL     1       4.973   1.789   0.310  0.00  0.00    +0.062 A 
ATOM     21  O   UNL     1       7.428   2.277   0.288  0.00  0.00    -0.453 OA
ATOM     22  C   UNL     1       8.110   3.426  -0.250  0.00  0.00    +0.466 C 
ATOM     23  O   UNL     1       7.213   4.518   0.028  0.00  0.00    -0.453 OA
ENDBRANCH  12  15
ENDBRANCH   9  11
ENDBRANCH   5   7
BRANCH   4  24
ATOM     24  N   UNL     1      -3.709   2.938   0.036  0.00  0.00    -0.216 N 
ATOM     25  H   UNL     1      -2.982   3.495  -0.574  0.00  0.00    +0.174 HD
BRANCH  24  26
ATOM     26  S   UNL     1      -4.965   3.737   0.762  0.00  0.00    +0.072 S 
ATOM     27  O   UNL     1      -4.756   5.123   0.526  0.00  0.00    -0.150 OA
ATOM     28  O   UNL     1      -6.155   3.068   0.368  0.00  0.00    -0.150 OA
BRANCH  26  29
ATOM     29  C   UNL     1      -4.802   3.493   2.500  0.00  0.00    +0.109 A 
ATOM     30  C   UNL     1      -5.415   2.412   3.106  0.00  0.00    +0.031 A 
ATOM     31  C   UNL     1      -5.284   2.217   4.468  0.00  0.00    +0.040 A 
ATOM     32  C   UNL     1      -4.546   3.110   5.227  0.00  0.00    +0.124 A 
ATOM     33  C   UNL     1      -3.937   4.194   4.620  0.00  0.00    +0.040 A 
ATOM     34  C   UNL     1      -4.065   4.385   3.257  0.00  0.00    +0.031 A 
ATOM     35  F   UNL     1      -4.421   2.922   6.559  0.00  0.00    -0.205 F 
ENDBRANCH  26  29
ENDBRANCH  24  26
ENDBRANCH   4  24
TORSDOF 6
