REMARK  Name = ZINC57340137
REMARK  5 active torsions:
REMARK  status: ('A' for Active; 'I' for Inactive)
REMARK    1  A    between atoms: C_1  and  O_2
REMARK    2  A    between atoms: O_2  and  C_3
REMARK    3  A    between atoms: C_6  and  N_23
REMARK    4  A    between atoms: C_8  and  N_9
REMARK    5  A    between atoms: C_10  and  C_12
REMARK                            x       y       z     vdW  Elec       q    Type
REMARK                         _______ _______ _______ _____ _____    ______ ____
ROOT
ATOM      1  N   UNL     1       0.100  -2.776  -0.107  0.00  0.00    -0.278 N 
ATOM      2  C   UNL     1       0.059  -4.117  -0.229  0.00  0.00    +0.249 C 
ATOM      3  O   UNL     1       0.593  -4.659  -1.177  0.00  0.00    -0.270 OA
ATOM      4  H   UNL     1      -0.255  -2.349   0.688  0.00  0.00    +0.155 HD
ENDROOT
BRANCH   2   5
ATOM      5  C   UNL     1      -0.635  -4.928   0.788  0.00  0.00    +0.045 A 
ATOM      6  C   UNL     1      -1.341  -4.315   1.813  0.00  0.00    +0.014 A 
ATOM      7  C   UNL     1      -1.996  -5.073   2.775  0.00  0.00    +0.001 A 
ATOM      8  C   UNL     1      -1.965  -6.436   2.740  0.00  0.00    +0.009 A 
ATOM      9  C   UNL     1      -1.262  -7.100   1.720  0.00  0.00    -0.003 A 
ATOM     10  C   UNL     1      -0.593  -6.344   0.727  0.00  0.00    -0.005 A 
ATOM     11  C   UNL     1       0.102  -7.007  -0.293  0.00  0.00    +0.009 A 
ATOM     12  C   UNL     1       0.122  -8.370  -0.321  0.00  0.00    +0.002 A 
ATOM     13  C   UNL     1      -0.541  -9.116   0.650  0.00  0.00    +0.016 A 
ATOM     14  C   UNL     1      -1.216  -8.505   1.664  0.00  0.00    +0.026 A 
ATOM     15 BR   UNL     1      -2.107  -9.539   2.972  0.00  0.00    -0.050 Br
ENDBRANCH   2   5
BRANCH   1  21
ATOM     16  C   UNL     1       1.169  -0.734  -0.846  0.00  0.00    +0.141 A 
ATOM     17  C   UNL     1       1.723   0.032  -1.858  0.00  0.00    +0.049 A 
ATOM     18  C   UNL     1       1.761  -0.452  -3.152  0.00  0.00    +0.026 A 
ATOM     19  C   UNL     1       1.244  -1.708  -3.441  0.00  0.00    +0.027 A 
ATOM     20  C   UNL     1       0.689  -2.480  -2.430  0.00  0.00    +0.049 A 
ATOM     21  C   UNL     1       0.655  -1.997  -1.131  0.00  0.00    +0.078 A 
BRANCH  19  22
ATOM     22  N   UNL     1       1.284  -2.195  -4.752  0.00  0.00    -0.358 N 
ATOM     23  H   UNL     1       1.672  -1.656  -5.459  0.00  0.00    +0.142 HD
ATOM     24  H   UNL     1       0.923  -3.073  -4.954  0.00  0.00    +0.142 HD
ENDBRANCH  19  22
BRANCH  16  26
ATOM     25  C   UNL     1       1.677   1.046   0.648  0.00  0.00    +0.277 C 
ATOM     26  O   UNL     1       1.132  -0.256   0.428  0.00  0.00    -0.493 OA
ENDBRANCH  16  26
ENDBRANCH   1  21
TORSDOF 4
