REMARK  Name = ZINC39098132
REMARK  7 active torsions:
REMARK  status: ('A' for Active; 'I' for Inactive)
REMARK    1  A    between atoms: C_1  and  C_2
REMARK    2  A    between atoms: C_4  and  C_17
REMARK    3  A    between atoms: C_4  and  O_18
REMARK    4  A    between atoms: C_5  and  O_16
REMARK    5  A    between atoms: C_7  and  O_15
REMARK    6  A    between atoms: C_9  and  C_11
REMARK    7  A    between atoms: C_9  and  C_12
REMARK                            x       y       z     vdW  Elec       q    Type
REMARK                         _______ _______ _______ _____ _____    ______ ____
ROOT
ATOM      1  C   UNL     1      -0.019   1.525   0.010  0.00  0.00    -0.011 C 
ATOM      2  C   UNL     1       0.002  -0.004   0.002  0.00  0.00    -0.039 C 
ATOM      3  C   UNL     1       0.602  -0.519  -1.299  0.00  0.00    +0.079 C 
ATOM      4  C   UNL     1       2.125  -0.409  -1.273  0.00  0.00    +0.172 C 
ATOM      5  C   UNL     1       2.677  -1.158  -0.065  0.00  0.00    +0.145 C 
ATOM      6  C   UNL     1       2.070  -0.633   1.231  0.00  0.00    +0.062 C 
ATOM      7  N   UNL     1       0.620  -0.548   1.194  0.00  0.00    +0.395 N 
ATOM      8  C   UNL     1       2.698   0.719   1.587  0.00  0.00    +0.004 C 
ATOM      9  C   UNL     1       0.062   0.318  -2.467  0.00  0.00    +0.042 C 
ATOM     10  H   UNL     1       0.311   0.004   2.001  0.00  0.00    -0.084 HD
ATOM     11  H   UNL     1       0.239  -1.485   1.360  0.00  0.00    -0.084 HD
ENDROOT
BRANCH   6  12
ATOM     12  C   UNL     1       2.449  -1.607   2.339  0.00  0.00    +0.348 C 
ATOM     13  O   UNL     1       3.623  -1.813   2.595  0.00  0.00    -0.248 OA
ATOM     14  O   UNL     1       1.577  -2.181   2.970  0.00  0.00    -0.248 OA
ENDBRANCH   6  12
BRANCH   5  15
ATOM     15  O   UNL     1       2.420  -2.558  -0.190  0.00  0.00    -0.390 OA
ATOM     16  H   UNL     1       2.817  -2.963  -0.973  0.00  0.00    +0.210 HD
ENDBRANCH   5  15
BRANCH   4  17
ATOM     17  O   UNL     1       2.659  -0.987  -2.472  0.00  0.00    -0.387 OA
ATOM     18  H   UNL     1       3.623  -0.954  -2.529  0.00  0.00    +0.210 HD
ENDBRANCH   4  17
BRANCH   3  19
ATOM     19  O   UNL     1       0.216  -1.883  -1.501  0.00  0.00    -0.388 OA
ATOM     20  H   UNL     1       0.565  -2.274  -2.313  0.00  0.00    +0.210 HD
ENDBRANCH   3  19
TORSDOF 4
