REMARK  Name = ZINC36936982
REMARK  4 active torsions:
REMARK  status: ('A' for Active; 'I' for Inactive)
REMARK    1  A    between atoms: C_1  and  C_2
REMARK    2  A    between atoms: C_7  and  C_8
REMARK    3  A    between atoms: C_9  and  C_14
REMARK    4  A    between atoms: C_10  and  N_13
REMARK                            x       y       z     vdW  Elec       q    Type
REMARK                         _______ _______ _______ _____ _____    ______ ____
ROOT
ATOM      1  C   UNL     1       0.025   0.022   2.495  0.00  0.00    +0.123 A 
ATOM      2  C   UNL     1       0.052  -0.575   3.832  0.00  0.00    +0.072 A 
ATOM      3  C   UNL     1       0.045   0.471   4.733  0.00  0.00    +0.224 A 
ATOM      4  O   UNL     1       0.016   1.617   4.036  0.00  0.00    -0.339 OA
ATOM      5  N   UNL     1       0.010   1.324   2.653  0.00  0.00    -0.075 NA
ENDROOT
BRANCH   2   6
ATOM      6  C   UNL     1       0.081  -2.021   4.155  0.00  0.00    +0.008 A 
ATOM      7  C   UNL     1       1.301  -2.682   4.298  0.00  0.00    +0.011 A 
ATOM      8  C   UNL     1       1.322  -4.028   4.600  0.00  0.00    +0.021 A 
ATOM      9  C   UNL     1       0.135  -4.723   4.759  0.00  0.00    +0.042 A 
ATOM     10  C   UNL     1      -1.079  -4.074   4.618  0.00  0.00    +0.040 A 
ATOM     11  C   UNL     1      -1.112  -2.725   4.322  0.00  0.00    +0.050 A 
ATOM     12 CL   UNL     1      -2.635  -1.909   4.153  0.00  0.00    -0.083 Cl
ATOM     13 CL   UNL     1       0.170  -6.418   5.137  0.00  0.00    -0.083 Cl
ENDBRANCH   2   6
BRANCH   1  20
ATOM     14  C   UNL     1      -0.018   1.503   0.010  0.00  0.00    +0.044 C 
ATOM     15  C   UNL     1       0.002  -0.004   0.002  0.00  0.00    -0.041 A 
ATOM     16  C   UNL     1       0.006  -0.689  -1.196  0.00  0.00    +0.004 A 
ATOM     17  C   UNL     1       0.024  -2.072  -1.206  0.00  0.00    +0.000 A 
ATOM     18  C   UNL     1       0.040  -2.776  -0.015  0.00  0.00    +0.001 A 
ATOM     19  C   UNL     1       0.036  -2.102   1.189  0.00  0.00    +0.010 A 
ATOM     20  C   UNL     1       0.023  -0.708   1.204  0.00  0.00    +0.007 A 
ENDBRANCH   1  20
BRANCH   3  21
ATOM     21  N   UNL     1       0.063   0.358   6.108  0.00  0.00    -0.327 N 
ATOM     22  H   UNL     1       0.084  -0.519   6.522  0.00  0.00    +0.145 HD
ATOM     23  H   UNL     1       0.056   1.155   6.660  0.00  0.00    +0.145 HD
ENDBRANCH   3  21
TORSDOF 3
