REMARK  Name = ZINC19327388
REMARK  10 active torsions:
REMARK  status: ('A' for Active; 'I' for Inactive)
REMARK    1  A    between atoms: C_1  and  C_2
REMARK    2  A    between atoms: C_6  and  C_24
REMARK    3  A    between atoms: C_12  and  C_13
REMARK    4  A    between atoms: C_13  and  C_15
REMARK    5  A    between atoms: C_13  and  O_23
REMARK    6  A    between atoms: C_15  and  C_17
REMARK    7  A    between atoms: C_15  and  O_22
REMARK    8  A    between atoms: C_17  and  C_19
REMARK    9  A    between atoms: C_17  and  O_21
REMARK   10  A    between atoms: C_19  and  O_20
REMARK                            x       y       z     vdW  Elec       q    Type
REMARK                         _______ _______ _______ _____ _____    ______ ____
ROOT
ATOM      1  C   UNL     1       4.116  -1.339  -2.675  0.00  0.00    +0.018 C 
ATOM      2  C   UNL     1       4.040  -0.479  -1.412  0.00  0.00    +0.025 C 
ATOM      3  C   UNL     1       5.288   0.405  -1.259  0.00  0.00    -0.061 C 
ATOM      4  N   UNL     1       5.143   1.202  -0.008  0.00  0.00    +0.393 N 
ATOM      5  C   UNL     1       4.018   2.174  -0.140  0.00  0.00    -0.056 C 
ATOM      6  C   UNL     1       2.717   1.357  -0.221  0.00  0.00    +0.052 C 
ATOM      7  C   UNL     1       2.841   0.463  -1.450  0.00  0.00    +0.148 C 
ATOM      8  O   UNL     1       2.060   0.497  -2.370  0.00  0.00    -0.296 OA
ATOM      9  C   UNL     1       2.632   0.422   0.996  0.00  0.00    +0.100 C 
ATOM     10  N   UNL     1       3.792  -0.476   1.028  0.00  0.00    -0.311 NA
ATOM     11  C   UNL     1       3.878  -1.346  -0.152  0.00  0.00    +0.095 C 
ATOM     12  C   UNL     1       5.016   0.328   1.168  0.00  0.00    +0.034 C 
ATOM     13  H   UNL     1       6.062   1.783   0.163  0.00  0.00    -0.079 HD
ENDROOT
BRANCH   6  14
ATOM     14  C   UNL     1       1.510   2.254  -0.311  0.00  0.00    -0.035 A 
ATOM     15  C   UNL     1       0.246   1.703  -0.414  0.00  0.00    +0.004 A 
ATOM     16  C   UNL     1      -0.861   2.526  -0.503  0.00  0.00    +0.000 A 
ATOM     17  C   UNL     1      -0.706   3.899  -0.477  0.00  0.00    +0.000 A 
ATOM     18  C   UNL     1       0.557   4.450  -0.373  0.00  0.00    +0.000 A 
ATOM     19  C   UNL     1       1.665   3.627  -0.290  0.00  0.00    +0.004 A 
ENDBRANCH   6  14
BRANCH  12  20
ATOM     20  C   UNL     1       4.927   1.182   2.435  0.00  0.00    +0.146 C 
BRANCH  20  21
ATOM     21  O   UNL     1       6.077   2.026   2.522  0.00  0.00    -0.390 OA
ATOM     22  H   UNL     1       6.190   2.716   3.371  0.00  0.00    +0.210 HD
ENDBRANCH  20  21
BRANCH  20  23
ATOM     23  C   UNL     1       4.870   0.270   3.662  0.00  0.00    +0.173 C 
BRANCH  23  24
ATOM     24  O   UNL     1       3.720  -0.574   3.575  0.00  0.00    -0.387 OA
ATOM     25  H   UNL     1       3.511  -1.302   4.372  0.00  0.00    +0.210 HD
ENDBRANCH  23  24
BRANCH  23  26
ATOM     26  C   UNL     1       4.781   1.124   4.928  0.00  0.00    +0.171 C 
BRANCH  26  27
ATOM     27  O   UNL     1       5.931   1.968   5.015  0.00  0.00    -0.387 OA
ATOM     28  H   UNL     1       6.043   2.658   5.865  0.00  0.00    +0.210 HD
ENDBRANCH  26  27
BRANCH  26  29
ATOM     29  C   UNL     1       4.724   0.212   6.155  0.00  0.00    +0.189 C 
BRANCH  29  30
ATOM     30  O   UNL     1       4.524   1.003   7.328  0.00  0.00    -0.392 OA
ATOM     31  H   UNL     1       4.456   0.519   8.313  0.00  0.00    +0.210 HD
ENDBRANCH  29  30
ENDBRANCH  26  29
ENDBRANCH  23  26
ENDBRANCH  20  23
ENDBRANCH  12  20
TORSDOF 9
