REMARK  Name = ZINC37820031
REMARK  6 active torsions:
REMARK  status: ('A' for Active; 'I' for Inactive)
REMARK    1  A    between atoms: C_1  and  S_2
REMARK    2  A    between atoms: S_2  and  N_5
REMARK    3  A    between atoms: N_5  and  C_6
REMARK    4  A    between atoms: C_6  and  C_7
REMARK    5  A    between atoms: C_14  and  C_16
REMARK    6  A    between atoms: C_19  and  N_22
REMARK                            x       y       z     vdW  Elec       q    Type
REMARK                         _______ _______ _______ _____ _____    ______ ____
ROOT
ATOM      1  C   UNL     1       2.564  -0.718  -3.003  0.00  0.00    +0.022 C 
ATOM      2  C   UNL     1       2.351  -2.219  -2.800  0.00  0.00    +0.008 C 
ATOM      3  C   UNL     1       2.928  -2.985  -3.993  0.00  0.00    +0.019 C 
ATOM      4  C   UNL     1       4.434  -2.718  -4.085  0.00  0.00    +0.108 C 
ATOM      5  N   UNL     1       4.655  -1.267  -4.135  0.00  0.00    -0.301 N 
ATOM      6  C   UNL     1       4.066  -0.425  -3.085  0.00  0.00    +0.112 C 
ATOM      7  C   UNL     1       5.385  -0.717  -5.125  0.00  0.00    +0.219 C 
ATOM      8  O   UNL     1       5.479   0.489  -5.212  0.00  0.00    -0.275 OA
ENDROOT
BRANCH   7   9
ATOM      9  C   UNL     1       6.085  -1.601  -6.125  0.00  0.00    +0.075 C 
ATOM     10  C   UNL     1       7.160  -2.425  -5.414  0.00  0.00    +0.011 C 
ATOM     11  C   UNL     1       8.177  -1.484  -4.765  0.00  0.00    -0.016 C 
ATOM     12  C   UNL     1       8.830  -0.617  -5.843  0.00  0.00    -0.075 C 
ATOM     13  C   UNL     1       7.755   0.207  -6.555  0.00  0.00    -0.016 C 
ATOM     14  C   UNL     1       6.738  -0.734  -7.204  0.00  0.00    +0.011 C 
BRANCH  12  15
ATOM     15  N   UNL     1       9.807   0.287  -5.220  0.00  0.00    +0.380 N 
ATOM     16  H   UNL     1      10.515  -0.257  -4.751  0.00  0.00    -0.090 HD
ATOM     17  H   UNL     1      10.237   0.859  -5.932  0.00  0.00    -0.090 HD
ATOM     18  H   UNL     1       9.338   0.878  -4.551  0.00  0.00    -0.090 HD
ENDBRANCH  12  15
ENDBRANCH   7   9
BRANCH   1  19
ATOM     19  C   UNL     1       1.958   0.048  -1.826  0.00  0.00    +0.110 C 
BRANCH  19  20
ATOM     20  N   UNL     1       0.504  -0.137  -1.819  0.00  0.00    -0.194 NA
ATOM     21  H   UNL     1       0.057  -0.491  -2.603  0.00  0.00    +0.148 HD
BRANCH  20  23
ATOM     22  C   UNL     1      -0.191   2.053  -0.303  0.00  0.00    +0.214 C 
ATOM     23  S   UNL     1      -0.374   0.256  -0.471  0.00  0.00    +0.027 S 
ATOM     24  O   UNL     1       0.288  -0.406   0.599  0.00  0.00    -0.158 OA
ATOM     25  O   UNL     1      -1.716  -0.071  -0.805  0.00  0.00    -0.158 OA
ENDBRANCH  20  23
ENDBRANCH  19  20
ENDBRANCH   1  19
TORSDOF 5
