REMARK  Name = ZINC08300888
REMARK  5 active torsions:
REMARK  status: ('A' for Active; 'I' for Inactive)
REMARK    1  A    between atoms: C_6  and  N_7
REMARK    2  A    between atoms: C_12  and  O_34
REMARK    3  A    between atoms: C_14  and  O_33
REMARK    4  A    between atoms: C_17  and  C_22
REMARK    5  A    between atoms: C_27  and  C_30
REMARK                            x       y       z     vdW  Elec       q    Type
REMARK                         _______ _______ _______ _____ _____    ______ ____
ROOT
ATOM      1  N   UNL     1       2.535   1.292  -9.461  0.00  0.00    -0.294 N 
ATOM      2  C   UNL     1       2.312   2.000  -8.301  0.00  0.00    +0.154 C 
ATOM      3  N   UNL     1       1.612   3.089  -8.170  0.00  0.00    -0.256 NA
ATOM      4  C   UNL     1       1.495   3.740  -6.893  0.00  0.00    +0.153 C 
ATOM      5  C   UNL     1       0.192   4.431  -6.635  0.00  0.00    +0.168 C 
ATOM      6  C   UNL     1      -0.729   3.634  -5.716  0.00  0.00    +0.146 C 
ATOM      7  C   UNL     1       0.030   3.341  -4.417  0.00  0.00    +0.048 C 
ATOM      8  C   UNL     1       1.190   2.406  -4.732  0.00  0.00    +0.093 C 
ATOM      9  C   UNL     1       2.152   3.000  -5.743  0.00  0.00    +0.093 C 
ATOM     10  S   UNL     1       2.926   1.611  -6.673  0.00  0.00    -0.084 S 
ATOM     11  H   UNL     1       3.011   0.448  -9.430  0.00  0.00    +0.154 HD
ENDROOT
BRANCH   8  12
ATOM     12  C   UNL     1       1.939   2.112  -3.458  0.00  0.00    +0.220 C 
ATOM     13  O   UNL     1       2.806   2.869  -3.076  0.00  0.00    -0.275 OA
ATOM     14  N   UNL     1       1.647   1.007  -2.744  0.00  0.00    -0.301 N 
ATOM     15  C   UNL     1       2.448   0.642  -1.568  0.00  0.00    +0.108 C 
ATOM     16  C   UNL     1       1.510   0.454  -0.372  0.00  0.00    +0.032 C 
ATOM     17  C   UNL     1       0.425  -0.564  -0.734  0.00  0.00    +0.078 C 
ATOM     18  C   UNL     1      -0.396  -0.039  -1.914  0.00  0.00    +0.032 C 
ATOM     19  C   UNL     1       0.521   0.144  -3.128  0.00  0.00    +0.108 C 
BRANCH  17  20
ATOM     20  C   UNL     1      -0.480  -0.777   0.452  0.00  0.00    +0.214 C 
ATOM     21  O   UNL     1      -0.278  -0.174   1.485  0.00  0.00    -0.276 OA
ATOM     22  N   UNL     1      -1.513  -1.638   0.365  0.00  0.00    -0.329 N 
ATOM     23  H   UNL     1      -1.675  -2.120  -0.461  0.00  0.00    +0.145 HD
ATOM     24  H   UNL     1      -2.096  -1.775   1.128  0.00  0.00    +0.145 HD
ENDBRANCH  17  20
ENDBRANCH   8  12
BRANCH   1  30
ATOM     25  C   UNL     1       1.819   0.924 -11.738  0.00  0.00    +0.025 A 
ATOM     26  C   UNL     1       1.359   1.419 -12.943  0.00  0.00    +0.022 A 
ATOM     27  C   UNL     1       1.165   2.779 -13.104  0.00  0.00    +0.041 A 
ATOM     28  C   UNL     1       1.425   3.647 -12.058  0.00  0.00    +0.022 A 
ATOM     29  C   UNL     1       1.880   3.157 -10.849  0.00  0.00    +0.025 A 
ATOM     30  C   UNL     1       2.075   1.792 -10.684  0.00  0.00    +0.033 A 
ATOM     31 CL   UNL     1       0.595   3.399 -14.622  0.00  0.00    -0.084 Cl
ENDBRANCH   1  30
BRANCH   6  32
ATOM     32  O   UNL     1      -1.902   4.397  -5.428  0.00  0.00    -0.389 OA
ATOM     33  H   UNL     1      -2.522   3.955  -4.832  0.00  0.00    +0.210 HD
ENDBRANCH   6  32
BRANCH   5  34
ATOM     34  O   UNL     1      -0.471   4.640  -7.884  0.00  0.00    -0.387 OA
ATOM     35  H   UNL     1      -1.303   5.128  -7.811  0.00  0.00    +0.210 HD
ENDBRANCH   5  34
TORSDOF 5
