REMARK  Name = ZINC06147991
REMARK  7 active torsions:
REMARK  status: ('A' for Active; 'I' for Inactive)
REMARK    1  A    between atoms: C_1  and  C_2
REMARK    2  A    between atoms: C_2  and  O_3
REMARK    3  A    between atoms: O_3  and  C_4
REMARK    4  A    between atoms: C_4  and  C_6
REMARK    5  A    between atoms: C_8  and  C_20
REMARK    6  A    between atoms: C_14  and  C_15
REMARK    7  A    between atoms: C_14  and  O_19
REMARK                            x       y       z     vdW  Elec       q    Type
REMARK                         _______ _______ _______ _____ _____    ______ ____
ROOT
ATOM      1  C   UNL     1      -2.139  -2.742   0.574  0.00  0.00    +0.181 C 
ATOM      2  C   UNL     1      -2.787  -3.951  -0.109  0.00  0.00    +0.121 C 
ATOM      3  N   UNL     1      -2.782  -5.085   0.816  0.00  0.00    -0.319 N 
ATOM      4  C   UNL     1      -2.828  -4.902   2.144  0.00  0.00    +0.133 C 
ATOM      5  S   UNL     1      -2.833  -6.278   3.164  0.00  0.00    -0.019 S 
ATOM      6  N   UNL     1      -2.869  -3.685   2.705  0.00  0.00    -0.291 N 
ATOM      7  C   UNL     1      -2.878  -2.465   1.888  0.00  0.00    +0.244 C 
ATOM      8  H   UNL     1      -2.746  -5.987   0.462  0.00  0.00    +0.148 HD
ATOM      9  H   UNL     1      -2.893  -3.607   3.672  0.00  0.00    +0.151 HD
ENDROOT
BRANCH   2  10
ATOM     10  C   UNL     1      -2.007  -4.307  -1.348  0.00  0.00    -0.026 A 
ATOM     11  C   UNL     1      -0.903  -5.134  -1.256  0.00  0.00    +0.006 A 
ATOM     12  C   UNL     1      -0.188  -5.461  -2.393  0.00  0.00    +0.015 A 
ATOM     13  C   UNL     1      -0.576  -4.961  -3.622  0.00  0.00    +0.018 A 
ATOM     14  C   UNL     1      -1.681  -4.134  -3.714  0.00  0.00    +0.015 A 
ATOM     15  C   UNL     1      -2.399  -3.811  -2.578  0.00  0.00    +0.006 A 
ATOM     16 BR   UNL     1       0.402  -5.408  -5.177  0.00  0.00    -0.050 Br
ENDBRANCH   2  10
BRANCH   7  17
ATOM     17  C   UNL     1      -4.323  -2.063   1.587  0.00  0.00    +0.436 C 
ATOM     18  F   UNL     1      -4.963  -3.101   0.903  0.00  0.00    -0.166 F 
ATOM     19  F   UNL     1      -4.996  -1.810   2.787  0.00  0.00    -0.166 F 
ATOM     20  F   UNL     1      -4.330  -0.908   0.797  0.00  0.00    -0.166 F 
ENDBRANCH   7  17
BRANCH   1  21
ATOM     21  C   UNL     1      -0.690  -3.039   0.861  0.00  0.00    +0.317 C 
ATOM     22  O   UNL     1      -0.384  -3.640   1.864  0.00  0.00    -0.250 OA
BRANCH  21  23
ATOM     23  O   UNL     1       0.261  -2.638   0.003  0.00  0.00    -0.465 OA
BRANCH  23  25
ATOM     24  C   UNL     1       2.547  -2.420  -0.750  0.00  0.00    +0.048 C 
ATOM     25  C   UNL     1       1.613  -2.954   0.338  0.00  0.00    +0.229 C 
ENDBRANCH  23  25
ENDBRANCH  21  23
ENDBRANCH   1  21
BRANCH   7  26
ATOM     26  O   UNL     1      -2.222  -1.408   2.591  0.00  0.00    -0.364 OA
ATOM     27  H   UNL     1      -2.637  -1.179   3.434  0.00  0.00    +0.212 HD
ENDBRANCH   7  26
TORSDOF 6
