REMARK  Name = ZINC64604393
REMARK  11 active torsions:
REMARK  status: ('A' for Active; 'I' for Inactive)
REMARK    1  A    between atoms: C_1  and  C_2
REMARK    2  A    between atoms: C_5  and  C_31
REMARK    3  A    between atoms: C_6  and  N_8
REMARK    4  A    between atoms: C_9  and  C_11
REMARK    5  A    between atoms: C_11  and  C_12
REMARK    6  A    between atoms: C_12  and  C_13
REMARK    7  A    between atoms: C_15  and  C_18
REMARK    8  A    between atoms: C_18  and  S_19
REMARK    9  A    between atoms: S_19  and  C_20
REMARK   10  A    between atoms: C_24  and  C_30
REMARK   11  A    between atoms: C_25  and  C_29
REMARK                            x       y       z     vdW  Elec       q    Type
REMARK                         _______ _______ _______ _____ _____    ______ ____
ROOT
ATOM      1  C   UNL     1       0.467  -2.704   7.331  0.00  0.00    +0.228 A 
ATOM      2  N   UNL     1       1.588  -3.065   7.890  0.00  0.00    -0.195 NA
ATOM      3  C   UNL     1       1.342  -3.733   9.023  0.00  0.00    +0.182 A 
ATOM      4  N   UNL     1       0.054  -3.804   9.199  0.00  0.00    -0.060 NA
ATOM      5  O   UNL     1      -0.542  -3.130   8.101  0.00  0.00    -0.338 OA
ENDROOT
BRANCH   1   6
ATOM      6  C   UNL     1       0.330  -1.934   6.043  0.00  0.00    +0.108 C 
BRANCH   6   7
ATOM      7  C   UNL     1       0.245  -2.913   4.870  0.00  0.00    +0.105 C 
BRANCH   7   9
ATOM      8  N   UNL     1       0.016  -2.803   2.409  0.00  0.00    -0.285 N 
ATOM      9  C   UNL     1       0.109  -2.144   3.582  0.00  0.00    +0.218 C 
ATOM     10  O   UNL     1       0.082  -0.931   3.599  0.00  0.00    -0.275 OA
ATOM     11  H   UNL     1      -0.044  -3.771   2.401  0.00  0.00    +0.155 HD
BRANCH   8  17
ATOM     12  C   UNL     1       1.196   1.242  -0.124  0.00  0.00    +0.044 C 
ATOM     13  C   UNL     1       0.571  -0.127  -0.051  0.00  0.00    -0.049 A 
ATOM     14  C   UNL     1      -0.013  -0.681  -1.176  0.00  0.00    +0.004 A 
ATOM     15  C   UNL     1      -0.587  -1.937  -1.113  0.00  0.00    +0.005 A 
ATOM     16  C   UNL     1      -0.579  -2.643   0.074  0.00  0.00    -0.029 A 
ATOM     17  C   UNL     1       0.007  -2.090   1.205  0.00  0.00    +0.037 A 
ATOM     18  C   UNL     1       0.587  -0.830   1.137  0.00  0.00    +0.027 A 
ATOM     19  C   UNL     1      -1.206  -4.012   0.142  0.00  0.00    +0.045 C 
ENDBRANCH   8  17
ENDBRANCH   7   9
ENDBRANCH   6   7
ENDBRANCH   1   6
BRANCH   3  20
ATOM     20  C   UNL     1       2.386  -4.308   9.945  0.00  0.00    +0.152 C 
BRANCH  20  21
ATOM     21  S   UNL     1       2.843  -3.070  11.189  0.00  0.00    -0.107 S 
BRANCH  21  22
ATOM     22  C   UNL     1       4.090  -3.908  12.206  0.00  0.00    +0.236 C 
ATOM     23  N   UNL     1       5.203  -4.364  11.364  0.00  0.00    -0.355 N 
ATOM     24  C   UNL     1       5.269  -5.659  11.470  0.00  0.00    +0.061 A 
ATOM     25  C   UNL     1       6.159  -6.667  10.877  0.00  0.00    +0.031 A 
ATOM     26  C   UNL     1       5.984  -7.969  11.178  0.00  0.00    -0.045 A 
ATOM     27  C   UNL     1       4.973  -8.417  12.047  0.00  0.00    -0.045 A 
ATOM     28  C   UNL     1       4.104  -7.577  12.645  0.00  0.00    +0.031 A 
ATOM     29  C   UNL     1       4.199  -6.133  12.391  0.00  0.00    +0.061 A 
ATOM     30  N   UNL     1       3.514  -5.112  12.818  0.00  0.00    -0.355 N 
ATOM     31  C   UNL     1       4.857  -9.894  12.322  0.00  0.00    +0.044 C 
ATOM     32  C   UNL     1       6.907  -8.986  10.558  0.00  0.00    +0.044 C 
ATOM     33  H   UNL     1       5.784  -3.802  10.826  0.00  0.00    +0.162 HD
ATOM     34  H   UNL     1       2.761  -5.141  13.429  0.00  0.00    +0.162 HD
ENDBRANCH  21  22
ENDBRANCH  20  21
ENDBRANCH   3  20
TORSDOF 7
