REMARK  Name = ZINC54910424
REMARK  1 active torsions:
REMARK  status: ('A' for Active; 'I' for Inactive)
REMARK    1  A    between atoms: C_13  and  O_18
REMARK                            x       y       z     vdW  Elec       q    Type
REMARK                         _______ _______ _______ _____ _____    ______ ____
ROOT
ATOM      1  C   UNL     1      -0.018   1.505   0.010  0.00  0.00    +0.002 C 
ATOM      2  C   UNL     1       1.414   2.030  -0.001  0.00  0.00    +0.002 C 
ATOM      3  C   UNL     1       2.036   2.122   1.329  0.00  0.00    +0.019 C 
ATOM      4  C   UNL     1       2.148   0.716   1.969  0.00  0.00    +0.107 C 
ATOM      5  N   UNL     1       0.833   0.250   2.349  0.00  0.00    -0.310 N 
ATOM      6  C   UNL     1      -0.025  -0.541   1.444  0.00  0.00    +0.107 C 
ATOM      7  C   UNL     1       0.002  -0.004   0.002  0.00  0.00    +0.019 C 
ATOM      8  C   UNL     1       0.358   0.558   3.614  0.00  0.00    +0.161 A 
ATOM      9  N   UNL     1       0.951   1.249   4.564  0.00  0.00    -0.229 NA
ATOM     10  C   UNL     1       0.369   1.468   5.740  0.00  0.00    +0.056 A 
ATOM     11  C   UNL     1      -0.868   0.927   5.876  0.00  0.00    +0.042 A 
ATOM     12  S   UNL     1      -1.121   0.145   4.307  0.00  0.00    -0.054 S 
ATOM     13  C   UNL     1      -1.768   0.994   7.062  0.00  0.00    +0.153 C 
ATOM     14  C   UNL     1      -0.938   1.466   8.268  0.00  0.00    +0.037 C 
ATOM     15  C   UNL     1      -0.108   2.683   7.849  0.00  0.00    +0.009 C 
ATOM     16  C   UNL     1       0.997   2.259   6.880  0.00  0.00    +0.056 C 
ENDROOT
BRANCH  13  17
ATOM     17  O   UNL     1      -2.313  -0.300   7.328  0.00  0.00    -0.387 OA
ATOM     18  H   UNL     1      -2.833  -0.665   6.599  0.00  0.00    +0.210 HD
ENDBRANCH  13  17
TORSDOF 1
