REMARK  Name = ZINC40730137
REMARK  6 active torsions:
REMARK  status: ('A' for Active; 'I' for Inactive)
REMARK    1  A    between atoms: C_1  and  C_2
REMARK    2  A    between atoms: C_3  and  C_17
REMARK    3  A    between atoms: N_5  and  C_8
REMARK    4  A    between atoms: C_6  and  C_7
REMARK    5  A    between atoms: C_13  and  C_14
REMARK    6  A    between atoms: C_14  and  N_16
REMARK                            x       y       z     vdW  Elec       q    Type
REMARK                         _______ _______ _______ _____ _____    ______ ____
ROOT
ATOM      1  C   UNL     1       0.316  -3.196   1.529  0.00  0.00    +0.075 A 
ATOM      2  C   UNL     1      -0.436  -3.311   2.689  0.00  0.00    +0.028 A 
ATOM      3  C   UNL     1      -0.563  -4.537   3.312  0.00  0.00    +0.002 A 
ATOM      4  C   UNL     1       0.057  -5.659   2.787  0.00  0.00    +0.001 A 
ATOM      5  C   UNL     1       0.808  -5.563   1.635  0.00  0.00    +0.012 A 
ATOM      6  C   UNL     1       0.941  -4.331   0.990  0.00  0.00    +0.028 A 
ENDROOT
BRANCH   1  11
ATOM      7  C   UNL     1       1.948   1.322   0.317  0.00  0.00    +0.047 C 
ATOM      8  C   UNL     1       1.157   0.040   0.352  0.00  0.00    -0.007 A 
ATOM      9  C   UNL     1       0.075  -0.282  -0.475  0.00  0.00    +0.064 A 
ATOM     10  N   UNL     1      -0.351  -1.476  -0.150  0.00  0.00    -0.171 NA
ATOM     11  N   UNL     1       0.447  -1.957   0.897  0.00  0.00    -0.236 N 
ATOM     12  C   UNL     1       1.373  -1.005   1.184  0.00  0.00    +0.045 A 
ATOM     13  C   UNL     1       2.444  -1.095   2.240  0.00  0.00    +0.066 C 
ATOM     14  C   UNL     1      -0.502   0.596  -1.555  0.00  0.00    +0.068 C 
ENDBRANCH   1  11
BRANCH   6  15
ATOM     15  C   UNL     1       1.738  -4.222  -0.245  0.00  0.00    +0.079 C 
ATOM     16  S   UNL     1       1.766  -2.750  -1.119  0.00  0.00    -0.035 S 
BRANCH  15  17
ATOM     17  N   UNL     1       2.444  -5.282  -0.686  0.00  0.00    -0.352 N 
ATOM     18  H   UNL     1       2.428  -6.116  -0.191  0.00  0.00    +0.143 HD
ATOM     19  H   UNL     1       2.968  -5.210  -1.499  0.00  0.00    +0.143 HD
ENDBRANCH  15  17
ENDBRANCH   6  15
TORSDOF 3
