REMARK  Name = ZINC37269600
REMARK  10 active torsions:
REMARK  status: ('A' for Active; 'I' for Inactive)
REMARK    1  A    between atoms: C_1  and  C_2
REMARK    2  A    between atoms: C_3  and  N_21
REMARK    3  A    between atoms: C_7  and  N_8
REMARK    4  A    between atoms: C_9  and  C_11
REMARK    5  A    between atoms: C_11  and  C_13
REMARK    6  A    between atoms: C_11  and  N_14
REMARK    7  A    between atoms: N_14  and  C_15
REMARK    8  A    between atoms: N_14  and  C_16
REMARK    9  A    between atoms: C_16  and  C_17
REMARK   10  A    between atoms: N_19  and  C_20
REMARK                            x       y       z     vdW  Elec       q    Type
REMARK                         _______ _______ _______ _____ _____    ______ ____
ROOT
ATOM      1  N   UNL     1       0.015   0.040   2.442  0.00  0.00    -0.287 N 
ATOM      2  C   UNL     1      -0.248  -0.623   3.586  0.00  0.00    +0.203 C 
ATOM      3  O   UNL     1      -0.570  -1.792   3.549  0.00  0.00    -0.277 OA
ATOM      4  H   UNL     1       0.326   0.958   2.475  0.00  0.00    +0.155 HD
ENDROOT
BRANCH   1  11
ATOM      5  C   UNL     1      -0.836   1.613   0.231  0.00  0.00    +0.047 C 
ATOM      6  C   UNL     1      -0.576   0.134   0.104  0.00  0.00    -0.009 A 
ATOM      7  C   UNL     1      -0.744  -0.499  -1.119  0.00  0.00    +0.029 A 
ATOM      8  C   UNL     1      -0.503  -1.863  -1.233  0.00  0.00    +0.023 A 
ATOM      9  C   UNL     1      -0.097  -2.588  -0.129  0.00  0.00    +0.004 A 
ATOM     10  C   UNL     1       0.072  -1.961   1.090  0.00  0.00    +0.024 A 
ATOM     11  C   UNL     1      -0.162  -0.596   1.209  0.00  0.00    +0.038 A 
BRANCH   7  12
ATOM     12  N   UNL     1      -1.156   0.233  -2.235  0.00  0.00    -0.358 N 
ATOM     13  H   UNL     1      -1.324   1.185  -2.155  0.00  0.00    +0.142 HD
ATOM     14  H   UNL     1      -1.273  -0.210  -3.090  0.00  0.00    +0.142 HD
ENDBRANCH   7  12
ENDBRANCH   1  11
BRANCH   2  15
ATOM     15  C   UNL     1      -0.141   0.087   4.910  0.00  0.00    +0.017 C 
ATOM     16  C   UNL     1      -1.344   1.016   5.089  0.00  0.00    -0.004 C 
BRANCH  15  17
ATOM     17  N   UNL     1      -0.121  -0.902   5.997  0.00  0.00    +0.391 N 
ATOM     18  C   UNL     1      -0.134  -0.207   7.291  0.00  0.00    -0.094 C 
ATOM     19  H   UNL     1      -0.933  -1.496   5.926  0.00  0.00    -0.080 HD
BRANCH  17  20
ATOM     20  C   UNL     1       1.095  -1.719   5.892  0.00  0.00    +0.019 C 
BRANCH  20  21
ATOM     21  C   UNL     1       1.026  -2.852   6.883  0.00  0.00    +0.196 C 
ATOM     22  O   UNL     1       0.059  -2.968   7.605  0.00  0.00    -0.278 OA
ATOM     23  N   UNL     1       2.039  -3.737   6.966  0.00  0.00    -0.320 N 
ATOM     24  C   UNL     1       1.971  -4.839   7.929  0.00  0.00    +0.128 C 
ATOM     25  H   UNL     1       2.812  -3.645   6.388  0.00  0.00    +0.148 HD
ENDBRANCH  20  21
ENDBRANCH  17  20
ENDBRANCH  15  17
ENDBRANCH   2  15
TORSDOF 6
