REMARK  Name = ZINC29010022
REMARK  4 active torsions:
REMARK  status: ('A' for Active; 'I' for Inactive)
REMARK    1  A    between atoms: N_11  and  C_12
REMARK    2  A    between atoms: C_12  and  C_14
REMARK    3  A    between atoms: C_14  and  C_15
REMARK    4  A    between atoms: C_15  and  C_21
REMARK                            x       y       z     vdW  Elec       q    Type
REMARK                         _______ _______ _______ _____ _____    ______ ____
ROOT
ATOM      1  C   UNL     1      -0.018   1.375  -0.018  0.00  0.00    +0.002 A 
ATOM      2  C   UNL     1       1.167   2.090  -0.015  0.00  0.00    +0.002 A 
ATOM      3  C   UNL     1       2.379   1.429  -0.020  0.00  0.00    +0.028 A 
ATOM      4  C   UNL     1       2.410   0.041  -0.029  0.00  0.00    +0.065 A 
ATOM      5  C   UNL     1       1.214  -0.680  -0.032  0.00  0.00    +0.065 A 
ATOM      6  C   UNL     1       0.001  -0.005  -0.027  0.00  0.00    +0.028 A 
ATOM      7  N   UNL     1       1.549  -2.030  -0.041  0.00  0.00    -0.326 N 
ATOM      8  H   UNL     1       0.924  -2.771  -0.045  0.00  0.00    +0.169 HD
ATOM      9  C   UNL     1       2.904  -2.132  -0.042  0.00  0.00    +0.198 A 
ATOM     10  N   UNL     1       3.447  -0.886  -0.035  0.00  0.00    -0.326 N 
ATOM     11  N   UNL     1       3.591  -3.271  -0.050  0.00  0.00    -0.147 NA
ATOM     12  H   UNL     1       4.394  -0.678  -0.035  0.00  0.00    +0.169 HD
ENDROOT
BRANCH  11  13
ATOM     13  C   UNL     1       4.916  -3.248  -0.162  0.00  0.00    +0.240 C 
ATOM     14  O   UNL     1       5.508  -2.186  -0.163  0.00  0.00    -0.274 OA
BRANCH  13  15
ATOM     15  C   UNL     1       5.684  -4.538  -0.290  0.00  0.00    +0.116 C 
BRANCH  15  16
ATOM     16  C   UNL     1       7.179  -4.233  -0.404  0.00  0.00    +0.080 C 
ATOM     17  C   UNL     1       7.429  -3.366  -1.640  0.00  0.00    +0.019 C 
ATOM     18  C   UNL     1       6.965  -4.115  -2.890  0.00  0.00    +0.001 C 
ATOM     19  C   UNL     1       7.744  -5.425  -3.020  0.00  0.00    +0.000 C 
ATOM     20  C   UNL     1       7.494  -6.292  -1.784  0.00  0.00    +0.001 C 
ATOM     21  C   UNL     1       7.958  -5.543  -0.533  0.00  0.00    +0.019 C 
BRANCH  16  22
ATOM     22  C   UNL     1       7.636  -3.496   0.828  0.00  0.00    +0.362 C 
ATOM     23  O   UNL     1       6.840  -3.238   1.715  0.00  0.00    -0.246 OA
ATOM     24  O   UNL     1       8.802  -3.157   0.938  0.00  0.00    -0.246 OA
ENDBRANCH  16  22
ENDBRANCH  15  16
ENDBRANCH  13  15
ENDBRANCH  11  13
TORSDOF 4
