REMARK  Name = ZINC02754193
REMARK  4 active torsions:
REMARK  status: ('A' for Active; 'I' for Inactive)
REMARK    1  A    between atoms: C_6  and  C_7
REMARK    2  A    between atoms: C_9  and  C_27
REMARK    3  A    between atoms: C_10  and  N_26
REMARK    4  A    between atoms: N_11  and  C_19
REMARK                            x       y       z     vdW  Elec       q    Type
REMARK                         _______ _______ _______ _____ _____    ______ ____
ROOT
ATOM      1  C   UNL     1      -2.704   2.140   2.997  0.00  0.00    +0.097 C 
ATOM      2  C   UNL     1      -1.785   1.260   3.792  0.00  0.00    +0.077 C 
ATOM      3  C   UNL     1      -0.473   1.137   3.463  0.00  0.00    +0.107 C 
ATOM      4  N   UNL     1       0.034   1.819   2.380  0.00  0.00    -0.260 N 
ATOM      5  C   UNL     1      -0.802   2.290   1.401  0.00  0.00    +0.024 C 
ATOM      6  C   UNL     1      -2.119   2.459   1.645  0.00  0.00    +0.025 C 
ATOM      7  C   UNL     1      -2.985   2.939   0.646  0.00  0.00    +0.162 C 
ATOM      8  O   UNL     1      -4.168   3.063   0.892  0.00  0.00    -0.292 OA
ATOM      9  C   UNL     1      -2.473   3.301  -0.721  0.00  0.00    +0.080 C 
ATOM     10  C   UNL     1      -1.010   3.742  -0.604  0.00  0.00    +0.014 C 
ATOM     11  C   UNL     1      -0.214   2.610   0.049  0.00  0.00    +0.052 C 
ENDROOT
BRANCH   1  17
ATOM     12  C   UNL     1      -1.868   4.258   4.037  0.00  0.00    +0.007 A 
ATOM     13  C   UNL     1      -2.078   5.438   4.724  0.00  0.00    +0.038 A 
ATOM     14  C   UNL     1      -3.354   5.780   5.137  0.00  0.00    +0.123 A 
ATOM     15  C   UNL     1      -4.420   4.942   4.856  0.00  0.00    +0.038 A 
ATOM     16  C   UNL     1      -4.208   3.765   4.164  0.00  0.00    +0.007 A 
ATOM     17  C   UNL     1      -2.933   3.424   3.752  0.00  0.00    -0.035 A 
ATOM     18  F   UNL     1      -3.560   6.931   5.815  0.00  0.00    -0.205 F 
ENDBRANCH   1  17
BRANCH   4  19
ATOM     19  C   UNL     1       1.414   2.032   2.278  0.00  0.00    +0.040 A 
ATOM     20  C   UNL     1       2.217   1.098   1.636  0.00  0.00    +0.025 A 
ATOM     21  C   UNL     1       3.576   1.314   1.530  0.00  0.00    +0.022 A 
ATOM     22  C   UNL     1       4.141   2.454   2.074  0.00  0.00    +0.041 A 
ATOM     23  C   UNL     1       3.345   3.384   2.720  0.00  0.00    +0.022 A 
ATOM     24  C   UNL     1       1.984   3.176   2.822  0.00  0.00    +0.025 A 
ATOM     25 CL   UNL     1       5.852   2.719   1.947  0.00  0.00    -0.084 Cl
ENDBRANCH   4  19
BRANCH   3  26
ATOM     26  N   UNL     1       0.350   0.331   4.213  0.00  0.00    -0.345 N 
ATOM     27  H   UNL     1       0.017  -0.080   5.026  0.00  0.00    +0.144 HD
ATOM     28  H   UNL     1       1.264   0.173   3.929  0.00  0.00    +0.144 HD
ENDBRANCH   3  26
BRANCH   2  29
ATOM     29  C   UNL     1      -2.300   0.538   4.917  0.00  0.00    +0.099 C 
ATOM     30  N   UNL     1      -2.708  -0.035   5.809  0.00  0.00    -0.191 NA
ENDBRANCH   2  29
TORSDOF 4
