REMARK  Name = ZINC58041680
REMARK  8 active torsions:
REMARK  status: ('A' for Active; 'I' for Inactive)
REMARK    1  A    between atoms: C_1  and  C_2
REMARK    2  A    between atoms: C_2  and  C_3
REMARK    3  A    between atoms: C_2  and  C_4
REMARK    4  A    between atoms: C_2  and  O_5
REMARK    5  A    between atoms: O_5  and  C_6
REMARK    6  A    between atoms: N_8  and  C_9
REMARK    7  A    between atoms: C_9  and  C_10
REMARK    8  A    between atoms: C_14  and  C_18
REMARK                            x       y       z     vdW  Elec       q    Type
REMARK                         _______ _______ _______ _____ _____    ______ ____
ROOT
ATOM      1  C   UNL     1       4.579  -0.657  -3.906  0.00  0.00    -0.011 C 
ATOM      2  C   UNL     1       3.824  -0.050  -5.093  0.00  0.00    +0.002 C 
ATOM      3  C   UNL     1       4.428  -0.583  -6.395  0.00  0.00    -0.006 C 
ATOM      4  C   UNL     1       5.922  -0.256  -6.430  0.00  0.00    +0.016 C 
ATOM      5  N   UNL     1       6.591  -0.886  -5.285  0.00  0.00    +0.387 N 
ATOM      6  C   UNL     1       6.068  -0.329  -4.032  0.00  0.00    -0.077 C 
ATOM      7  H   UNL     1       6.423  -1.881  -5.304  0.00  0.00    -0.085 HD
ATOM      8  H   UNL     1       7.584  -0.714  -5.340  0.00  0.00    -0.085 HD
ENDROOT
BRANCH   4   9
ATOM      9  C   UNL     1       6.521  -0.779  -7.710  0.00  0.00    +0.196 C 
ATOM     10  O   UNL     1       7.133  -1.826  -7.710  0.00  0.00    -0.278 OA
ATOM     11  N   UNL     1       6.376  -0.083  -8.855  0.00  0.00    -0.331 N 
ATOM     12  H   UNL     1       5.887   0.754  -8.855  0.00  0.00    +0.145 HD
ATOM     13  H   UNL     1       6.762  -0.420  -9.679  0.00  0.00    +0.145 HD
ENDBRANCH   4   9
BRANCH   1  14
ATOM     14  C   UNL     1       4.035  -0.071  -2.601  0.00  0.00    +0.109 C 
BRANCH  14  17
ATOM     15  C   UNL     1       1.952  -0.085  -1.337  0.00  0.00    +0.401 C 
ATOM     16  O   UNL     1       2.488   0.619  -0.503  0.00  0.00    -0.226 OA
ATOM     17  N   UNL     1       2.641  -0.485  -2.424  0.00  0.00    -0.281 N 
ATOM     18  H   UNL     1       2.213  -1.047  -3.089  0.00  0.00    +0.152 HD
BRANCH  15  19
ATOM     19  O   UNL     1       0.671  -0.465  -1.174  0.00  0.00    -0.445 OA
BRANCH  19  21
ATOM     20  C   UNL     1      -0.019   1.526   0.010  0.00  0.00    +0.055 C 
ATOM     21  C   UNL     1       0.002  -0.004   0.002  0.00  0.00    +0.107 C 
ATOM     22  C   UNL     1       0.742  -0.511   1.242  0.00  0.00    +0.055 C 
ATOM     23  C   UNL     1      -1.433  -0.534   0.013  0.00  0.00    +0.055 C 
ENDBRANCH  19  21
ENDBRANCH  15  19
ENDBRANCH  14  17
ENDBRANCH   1  14
TORSDOF 5
