REMARK  Name = ZINC40735227
REMARK  10 active torsions:
REMARK  status: ('A' for Active; 'I' for Inactive)
REMARK    1  A    between atoms: C_1  and  C_2
REMARK    2  A    between atoms: C_7  and  C_9
REMARK    3  A    between atoms: C_7  and  C_10
REMARK    4  A    between atoms: C_14  and  N_25
REMARK    5  A    between atoms: C_15  and  N_19
REMARK    6  A    between atoms: N_19  and  N_20
REMARK    7  A    between atoms: N_20  and  C_21
REMARK    8  A    between atoms: C_21  and  C_22
REMARK    9  A    between atoms: C_21  and  C_23
REMARK   10  A    between atoms: C_21  and  C_24
REMARK                            x       y       z     vdW  Elec       q    Type
REMARK                         _______ _______ _______ _____ _____    ______ ____
ROOT
ATOM      1  C   UNL     1       0.397   0.161   1.984  0.00  0.00    +0.013 C 
ATOM      2  C   UNL     1      -0.009  -1.300   1.738  0.00  0.00    -0.014 C 
ATOM      3  C   UNL     1       0.953  -2.023   0.756  0.00  0.00    +0.030 C 
ATOM      4  C   UNL     1       0.053  -3.214   0.342  0.00  0.00    +0.076 C 
ATOM      5  C   UNL     1       0.045  -4.202   1.506  0.00  0.00    +0.029 C 
ATOM      6  C   UNL     1      -0.383  -3.592   2.829  0.00  0.00    -0.033 C 
ATOM      7  C   UNL     1      -0.048  -2.125   3.024  0.00  0.00    +0.014 C 
ATOM      8  C   UNL     1       0.343  -4.379   3.949  0.00  0.00    +0.011 C 
ATOM      9  C   UNL     1      -1.886  -3.821   3.044  0.00  0.00    +0.011 C 
ATOM     10  N   UNL     1      -1.297  -2.635   0.191  0.00  0.00    -0.310 N 
ATOM     11  C   UNL     1      -1.369  -1.419   1.015  0.00  0.00    +0.113 C 
ATOM     12  C   UNL     1      -2.320  -3.142  -0.602  0.00  0.00    +0.147 A 
ATOM     13  C   UNL     1      -3.590  -2.562  -0.578  0.00  0.00    +0.105 A 
ATOM     14  C   UNL     1      -4.580  -3.110  -1.393  0.00  0.00    +0.136 A 
ATOM     15  N   UNL     1      -4.280  -4.157  -2.158  0.00  0.00    -0.332 N 
ATOM     16  C   UNL     1      -3.068  -4.676  -2.151  0.00  0.00    +0.200 A 
ATOM     17  N   UNL     1      -2.103  -4.185  -1.400  0.00  0.00    -0.221 NA
ATOM     18  H   UNL     1      -4.962  -4.545  -2.728  0.00  0.00    +0.168 HD
ENDROOT
BRANCH  13  19
ATOM     19  N   UNL     1      -3.862  -1.457   0.246  0.00  0.00    -0.353 N 
ATOM     20  H   UNL     1      -3.180  -0.784   0.396  0.00  0.00    +0.143 HD
ATOM     21  H   UNL     1      -4.733  -1.367   0.664  0.00  0.00    +0.143 HD
ENDBRANCH  13  19
BRANCH  14  22
ATOM     22  N   UNL     1      -5.862  -2.571  -1.407  0.00  0.00    -0.264 N 
ATOM     23  H   UNL     1      -6.072  -1.808  -0.846  0.00  0.00    +0.168 HD
BRANCH  22  24
ATOM     24  N   UNL     1      -6.823  -3.116  -2.209  0.00  0.00    -0.236 NA
ATOM     25  H   UNL     1      -6.941  -4.099  -2.016  0.00  0.00    +0.145 HD
BRANCH  24  26
ATOM     26  C   UNL     1      -8.096  -2.396  -2.069  0.00  0.00    +0.028 C 
ATOM     27  C   UNL     1      -7.900  -0.931  -2.464  0.00  0.00    +0.029 C 
ATOM     28  C   UNL     1      -9.146  -3.034  -2.981  0.00  0.00    +0.029 C 
ATOM     29  C   UNL     1      -8.568  -2.473  -0.615  0.00  0.00    +0.029 C 
ENDBRANCH  24  26
ENDBRANCH  22  24
ENDBRANCH  14  22
TORSDOF 4
