REMARK  Name = ZINC41069934
REMARK  11 active torsions:
REMARK  status: ('A' for Active; 'I' for Inactive)
REMARK    1  A    between atoms: C_1  and  C_2
REMARK    2  A    between atoms: C_2  and  N_3
REMARK    3  A    between atoms: N_3  and  C_4
REMARK    4  A    between atoms: N_3  and  C_6
REMARK    5  A    between atoms: C_4  and  C_5
REMARK    6  A    between atoms: C_6  and  C_7
REMARK    7  A    between atoms: C_7  and  N_8
REMARK    8  A    between atoms: N_8  and  S_9
REMARK    9  A    between atoms: S_9  and  C_12
REMARK   10  A    between atoms: C_17  and  N_18
REMARK   11  A    between atoms: N_18  and  N_19
REMARK                            x       y       z     vdW  Elec       q    Type
REMARK                         _______ _______ _______ _____ _____    ______ ____
ROOT
ATOM      1  S   UNL     1      -3.059  -4.129  -1.796  0.00  0.00    +0.062 S 
ATOM      2  O   UNL     1      -3.143  -5.535  -1.986  0.00  0.00    -0.153 OA
ATOM      3  O   UNL     1      -3.534  -3.489  -0.619  0.00  0.00    -0.153 OA
ENDROOT
BRANCH   1   4
ATOM      4  C   UNL     1      -3.906  -3.386  -3.150  0.00  0.00    +0.147 A 
ATOM      5  C   UNL     1      -4.863  -2.412  -2.929  0.00  0.00    +0.048 A 
ATOM      6  C   UNL     1      -5.506  -1.853  -4.027  0.00  0.00    +0.038 A 
ATOM      7  C   UNL     1      -5.174  -2.284  -5.296  0.00  0.00    +0.128 A 
ATOM      8  N   UNL     1      -4.257  -3.216  -5.477  0.00  0.00    -0.236 NA
ATOM      9  C   UNL     1      -3.618  -3.768  -4.457  0.00  0.00    +0.159 A 
ATOM     10 BR   UNL     1      -6.823  -0.518  -3.785  0.00  0.00    -0.049 Br
BRANCH   9  11
ATOM     11  N   UNL     1      -2.654  -4.741  -4.693  0.00  0.00    -0.266 N 
ATOM     12  H   UNL     1      -2.233  -5.198  -3.948  0.00  0.00    +0.167 HD
BRANCH  11  13
ATOM     13  N   UNL     1      -2.300  -5.055  -5.974  0.00  0.00    -0.255 NA
ATOM     14  H   UNL     1      -1.992  -4.235  -6.475  0.00  0.00    +0.140 HD
ATOM     15  H   UNL     1      -1.593  -5.775  -5.989  0.00  0.00    +0.140 HD
ENDBRANCH  11  13
ENDBRANCH   9  11
ENDBRANCH   1   4
BRANCH   1  16
ATOM     16  N   UNL     1      -1.459  -3.727  -1.939  0.00  0.00    -0.192 NA
ATOM     17  H   UNL     1      -0.797  -4.419  -2.092  0.00  0.00    +0.148 HD
BRANCH  16  18
ATOM     18  C   UNL     1      -1.044  -2.326  -1.836  0.00  0.00    +0.087 C 
BRANCH  18  19
ATOM     19  C   UNL     1       0.466  -2.258  -1.596  0.00  0.00    -0.062 C 
BRANCH  19  20
ATOM     20  N   UNL     1       0.882  -0.853  -1.492  0.00  0.00    +0.380 N 
ATOM     21  H   UNL     1       0.583  -0.351  -2.315  0.00  0.00    -0.082 HD
BRANCH  20  23
ATOM     22  C   UNL     1       0.591   1.248  -0.268  0.00  0.00    -0.017 C 
ATOM     23  C   UNL     1       0.272  -0.248  -0.301  0.00  0.00    -0.082 C 
ENDBRANCH  20  23
BRANCH  20  24
ATOM     24  C   UNL     1       2.346  -0.783  -1.382  0.00  0.00    -0.082 C 
ATOM     25  C   UNL     1       2.980  -1.287  -2.679  0.00  0.00    -0.017 C 
ENDBRANCH  20  24
ENDBRANCH  19  20
ENDBRANCH  18  19
ENDBRANCH  16  18
ENDBRANCH   1  16
TORSDOF 9
