REMARK  Name = ZINC51808302
REMARK  7 active torsions:
REMARK  status: ('A' for Active; 'I' for Inactive)
REMARK    1  A    between atoms: C_1  and  C_2
REMARK    2  A    between atoms: C_5  and  N_9
REMARK    3  A    between atoms: C_10  and  C_12
REMARK    4  A    between atoms: N_14  and  C_15
REMARK    5  A    between atoms: C_15  and  C_16
REMARK    6  A    between atoms: N_18  and  C_19
REMARK    7  A    between atoms: C_19  and  C_20
REMARK                            x       y       z     vdW  Elec       q    Type
REMARK                         _______ _______ _______ _____ _____    ______ ____
ROOT
ATOM      1  N   UNL     1       0.059  -4.170  -0.025  0.00  0.00    -0.275 N 
ATOM      2  C   UNL     1      -0.039  -4.838  -1.192  0.00  0.00    +0.303 C 
ATOM      3  O   UNL     1      -0.053  -4.227  -2.241  0.00  0.00    -0.265 OA
ATOM      4  H   UNL     1       0.151  -4.660   0.807  0.00  0.00    +0.155 HD
ENDROOT
BRANCH   1   9
ATOM      5  C   UNL     1      -0.065   1.502   0.015  0.00  0.00    +0.044 C 
ATOM      6  C   UNL     1      -0.031  -0.005   0.006  0.00  0.00    -0.048 A 
ATOM      7  C   UNL     1      -0.622  -0.701  -1.033  0.00  0.00    +0.005 A 
ATOM      8  C   UNL     1      -0.593  -2.082  -1.046  0.00  0.00    +0.026 A 
ATOM      9  C   UNL     1       0.029  -2.772  -0.015  0.00  0.00    +0.069 A 
ATOM     10  C   UNL     1       0.623  -2.070   1.029  0.00  0.00    +0.145 A 
ATOM     11  C   UNL     1       0.595  -0.687   1.033  0.00  0.00    +0.043 A 
ATOM     12  F   UNL     1       1.229  -2.737   2.035  0.00  0.00    -0.204 F 
ENDBRANCH   1   9
BRANCH   2  13
ATOM     13  C   UNL     1      -0.131  -6.328  -1.194  0.00  0.00    +0.300 C 
ATOM     14  O   UNL     1      -0.118  -6.939  -0.145  0.00  0.00    -0.265 OA
ATOM     15  N   UNL     1      -0.230  -6.996  -2.361  0.00  0.00    -0.299 N 
ATOM     16  H   UNL     1      -0.241  -6.508  -3.199  0.00  0.00    +0.150 HD
BRANCH  15  17
ATOM     17  C   UNL     1      -0.320  -8.458  -2.363  0.00  0.00    +0.200 C 
BRANCH  17  18
ATOM     18  C   UNL     1      -0.421  -8.953  -3.783  0.00  0.00    +0.231 C 
ATOM     19  O   UNL     1      -0.417  -8.162  -4.702  0.00  0.00    -0.274 OA
ATOM     20  N   UNL     1      -0.515 -10.275  -4.030  0.00  0.00    -0.303 N 
ATOM     21  H   UNL     1      -0.518 -10.907  -3.295  0.00  0.00    +0.150 HD
BRANCH  20  22
ATOM     22  C   UNL     1      -0.612 -10.756  -5.411  0.00  0.00    +0.193 C 
BRANCH  22  23
ATOM     23  C   UNL     1      -0.703 -12.225  -5.413  0.00  0.00    -0.087 C 
ATOM     24  C   UNL     1      -0.776 -13.397  -5.414  0.00  0.00    +0.005 C 
ENDBRANCH  22  23
ENDBRANCH  20  22
ENDBRANCH  17  18
ENDBRANCH  15  17
ENDBRANCH   2  13
TORSDOF 6
