REMARK  Name = ZINC50817521
REMARK  3 active torsions:
REMARK  status: ('A' for Active; 'I' for Inactive)
REMARK    1  A    between atoms: N_9  and  C_13
REMARK    2  A    between atoms: C_13  and  C_14
REMARK    3  A    between atoms: C_15  and  N_19
REMARK                            x       y       z     vdW  Elec       q    Type
REMARK                         _______ _______ _______ _____ _____    ______ ____
ROOT
ATOM      1  C   UNL     1      -0.019   1.527   0.010  0.00  0.00    +0.002 C 
ATOM      2  C   UNL     1       1.414   2.061  -0.000  0.00  0.00    +0.003 C 
ATOM      3  C   UNL     1       2.141   1.562  -1.252  0.00  0.00    +0.033 C 
ATOM      4  C   UNL     1       2.162   0.034  -1.247  0.00  0.00    +0.135 C 
ATOM      5  C   UNL     1       0.724  -0.491  -1.255  0.00  0.00    +0.086 C 
ATOM      6  C   UNL     1       0.002  -0.004   0.002  0.00  0.00    +0.021 C 
ATOM      7  N   UNL     1       0.747  -1.959  -1.288  0.00  0.00    -0.289 NA
ATOM      8  C   UNL     1       1.461  -2.436  -2.482  0.00  0.00    +0.113 C 
ATOM      9  C   UNL     1       2.888  -1.882  -2.479  0.00  0.00    +0.175 C 
ATOM     10  O   UNL     1       2.843  -0.454  -2.404  0.00  0.00    -0.374 OA
ENDROOT
BRANCH   7  11
ATOM     11  C   UNL     1      -0.614  -2.509  -1.233  0.00  0.00    +0.144 C 
BRANCH  11  12
ATOM     12  C   UNL     1      -0.546  -3.999  -1.022  0.00  0.00    +0.107 A 
ATOM     13  C   UNL     1      -0.488  -4.874  -2.069  0.00  0.00    +0.108 A 
ATOM     14  S   UNL     1      -0.429  -6.358  -1.281  0.00  0.00    +0.051 S 
ATOM     15  N   UNL     1      -0.479  -5.812   0.303  0.00  0.00    -0.108 NA
ATOM     16  N   UNL     1      -0.533  -4.529   0.181  0.00  0.00    -0.143 NA
BRANCH  13  17
ATOM     17  N   UNL     1      -0.481  -4.606  -3.436  0.00  0.00    -0.350 N 
ATOM     18  H   UNL     1      -0.521  -3.690  -3.750  0.00  0.00    +0.143 HD
ATOM     19  H   UNL     1      -0.437  -5.336  -4.073  0.00  0.00    +0.143 HD
ENDBRANCH  13  17
ENDBRANCH  11  12
ENDBRANCH   7  11
TORSDOF 3
