REMARK  Name = ZINC07461111
REMARK  6 active torsions:
REMARK  status: ('A' for Active; 'I' for Inactive)
REMARK    1  A    between atoms: C_6  and  N_7
REMARK    2  A    between atoms: C_8  and  C_10
REMARK    3  A    between atoms: C_10  and  S_11
REMARK    4  A    between atoms: S_11  and  C_12
REMARK    5  A    between atoms: C_15  and  C_19
REMARK    6  A    between atoms: C_16  and  N_18
REMARK                            x       y       z     vdW  Elec       q    Type
REMARK                         _______ _______ _______ _____ _____    ______ ____
ROOT
ATOM      1  C   UNL     1       6.083  -0.705  -0.275  0.00  0.00    +0.173 C 
ENDROOT
BRANCH   1   3
ATOM      2  N   UNL     1       3.622  -0.653  -0.036  0.00  0.00    -0.285 N 
ATOM      3  C   UNL     1       4.776   0.034  -0.145  0.00  0.00    +0.227 C 
ATOM      4  O   UNL     1       4.763   1.247  -0.139  0.00  0.00    -0.275 OA
ATOM      5  H   UNL     1       3.638  -1.620   0.035  0.00  0.00    +0.155 HD
BRANCH   2  11
ATOM      6  C   UNL     1       2.247   1.193  -0.769  0.00  0.00    +0.025 A 
ATOM      7  C   UNL     1       1.040   1.865  -0.759  0.00  0.00    +0.023 A 
ATOM      8  C   UNL     1      -0.017   1.380  -0.009  0.00  0.00    +0.055 A 
ATOM      9  C   UNL     1       0.133   0.220   0.732  0.00  0.00    +0.038 A 
ATOM     10  C   UNL     1       1.338  -0.456   0.725  0.00  0.00    +0.040 A 
ATOM     11  C   UNL     1       2.400   0.030  -0.027  0.00  0.00    +0.035 A 
ATOM     12 BR   UNL     1      -1.314  -0.440   1.756  0.00  0.00    -0.049 Br
ATOM     13 CL   UNL     1      -1.530   2.230   0.008  0.00  0.00    -0.082 Cl
ENDBRANCH   2  11
ENDBRANCH   1   3
BRANCH   1  14
ATOM     14  S   UNL     1       7.440   0.487  -0.402  0.00  0.00    -0.077 S 
BRANCH  14  15
ATOM     15  C   UNL     1       8.806  -0.618  -0.539  0.00  0.00    +0.190 A 
ATOM     16  N   UNL     1       8.580  -1.926  -0.517  0.00  0.00    -0.229 NA
ATOM     17  C   UNL     1       9.571  -2.792  -0.623  0.00  0.00    +0.136 A 
ATOM     18  C   UNL     1      10.880  -2.315  -0.748  0.00  0.00    +0.109 A 
ATOM     19  C   UNL     1      11.082  -0.917  -0.761  0.00  0.00    +0.138 A 
ATOM     20  N   UNL     1      10.027  -0.117  -0.655  0.00  0.00    -0.206 NA
BRANCH  19  21
ATOM     21  N   UNL     1      12.352  -0.392  -0.883  0.00  0.00    -0.342 N 
ATOM     22  H   UNL     1      12.481   0.570  -0.891  0.00  0.00    +0.144 HD
ATOM     23  H   UNL     1      13.117  -0.984  -0.959  0.00  0.00    +0.144 HD
ENDBRANCH  19  21
BRANCH  18  24
ATOM     24  C   UNL     1      11.986  -3.218  -0.858  0.00  0.00    +0.104 C 
ATOM     25  N   UNL     1      12.862  -3.935  -0.946  0.00  0.00    -0.191 NA
ENDBRANCH  18  24
ENDBRANCH  14  15
ENDBRANCH   1  14
TORSDOF 6
