REMARK  Name = ZINC05940561
REMARK  3 active torsions:
REMARK  status: ('A' for Active; 'I' for Inactive)
REMARK    1  A    between atoms: C_5  and  C_7
REMARK    2  A    between atoms: C_8  and  C_9
REMARK    3  A    between atoms: C_9  and  C_22
REMARK                            x       y       z     vdW  Elec       q    Type
REMARK                         _______ _______ _______ _____ _____    ______ ____
ROOT
ATOM      1  C   UNL     1      -0.733   1.888   1.268  0.00  0.00    +0.223 C 
ATOM      2  C   UNL     1       0.024   1.369   2.469  0.00  0.00    +0.056 A 
ATOM      3  C   UNL     1      -0.662   0.578   3.383  0.00  0.00    +0.044 A 
ATOM      4  C   UNL     1       0.004   0.086   4.497  0.00  0.00    +0.027 A 
ATOM      5  C   UNL     1       1.340   0.384   4.688  0.00  0.00    +0.043 A 
ATOM      6  C   UNL     1       2.018   1.173   3.775  0.00  0.00    +0.159 A 
ATOM      7  C   UNL     1       1.355   1.667   2.659  0.00  0.00    +0.167 A 
ATOM      8  F   UNL     1       2.013   2.437   1.765  0.00  0.00    -0.202 F 
ATOM      9  F   UNL     1       3.324   1.460   3.969  0.00  0.00    -0.202 F 
ATOM     10  N   UNL     1      -2.012   0.285   3.174  0.00  0.00    -0.269 N 
ATOM     11  C   UNL     1      -2.699   0.735   2.116  0.00  0.00    +0.305 C 
ATOM     12  O   UNL     1      -3.871   0.430   2.014  0.00  0.00    -0.252 OA
ATOM     13  N   UNL     1      -2.152   1.510   1.161  0.00  0.00    -0.272 N 
ATOM     14  H   UNL     1      -2.472  -0.269   3.824  0.00  0.00    +0.156 HD
ATOM     15  H   UNL     1      -2.687   1.815   0.411  0.00  0.00    +0.152 HD
ENDROOT
BRANCH   1  16
ATOM     16  C   UNL     1      -0.017   1.395   0.010  0.00  0.00    +0.426 C 
ATOM     17  F   UNL     1       0.002  -0.004   0.002  0.00  0.00    -0.167 F 
ATOM     18  F   UNL     1       1.296   1.879  -0.000  0.00  0.00    -0.167 F 
ATOM     19  F   UNL     1      -0.694   1.858  -1.124  0.00  0.00    -0.167 F 
ENDBRANCH   1  16
BRANCH   1  21
ATOM     20  C   UNL     1      -0.594   4.530   1.295  0.00  0.00    -0.044 C 
ATOM     21  C   UNL     1      -0.656   3.358   1.283  0.00  0.00    -0.055 C 
BRANCH  20  26
ATOM     22  C   UNL     1      -1.017   8.055   2.359  0.00  0.00    +0.004 A 
ATOM     23  C   UNL     1      -0.358   8.680   1.309  0.00  0.00    +0.020 A 
ATOM     24  C   UNL     1       0.193   7.912   0.300  0.00  0.00    +0.112 A 
ATOM     25  N   UNL     1       0.107   6.597   0.326  0.00  0.00    -0.247 NA
ATOM     26  C   UNL     1      -0.518   5.960   1.310  0.00  0.00    +0.113 A 
ATOM     27  C   UNL     1      -1.098   6.674   2.360  0.00  0.00    +0.037 A 
ENDBRANCH  20  26
ENDBRANCH   1  21
TORSDOF 3
