REMARK  Name = ZINC49044839
REMARK  7 active torsions:
REMARK  status: ('A' for Active; 'I' for Inactive)
REMARK    1  A    between atoms: C_1  and  C_2
REMARK    2  A    between atoms: C_2  and  C_3
REMARK    3  A    between atoms: C_6  and  S_8
REMARK    4  A    between atoms: S_8  and  N_11
REMARK    5  A    between atoms: N_11  and  C_12
REMARK    6  A    between atoms: C_12  and  C_13
REMARK    7  A    between atoms: C_13  and  N_20
REMARK                            x       y       z     vdW  Elec       q    Type
REMARK                         _______ _______ _______ _____ _____    ______ ____
ROOT
ATOM      1  N   UNL     1      -0.594  -3.366  -5.870  0.00  0.00    -0.191 NA
ATOM      2  H   UNL     1      -0.911  -3.747  -6.704  0.00  0.00    +0.148 HD
ENDROOT
BRANCH   1   3
ATOM      3  S   UNL     1      -1.080  -1.851  -5.413  0.00  0.00    +0.065 S 
ATOM      4  O   UNL     1      -1.513  -1.952  -4.063  0.00  0.00    -0.153 OA
ATOM      5  O   UNL     1      -1.922  -1.365  -6.448  0.00  0.00    -0.153 OA
BRANCH   3   9
ATOM      6  C   UNL     1       2.589   0.611  -4.946  0.00  0.00    -0.009 A 
ATOM      7  C   UNL     1       2.020   0.657  -6.175  0.00  0.00    +0.013 A 
ATOM      8  C   UNL     1       0.874  -0.079  -6.411  0.00  0.00    +0.036 A 
ATOM      9  C   UNL     1       0.353  -0.825  -5.406  0.00  0.00    +0.143 A 
ATOM     10  S   UNL     1       1.499  -0.502  -4.075  0.00  0.00    -0.074 S 
BRANCH   6  12
ATOM     11  C   UNL     1       3.438   2.670  -3.855  0.00  0.00    +0.009 C 
ATOM     12  C   UNL     1       3.825   1.313  -4.446  0.00  0.00    +0.039 C 
ENDBRANCH   6  12
ENDBRANCH   3   9
ENDBRANCH   1   3
BRANCH   1  13
ATOM     13  C   UNL     1       0.315  -4.133  -5.014  0.00  0.00    +0.093 C 
BRANCH  13  14
ATOM     14  C   UNL     1       0.311  -5.599  -5.451  0.00  0.00    -0.057 C 
ATOM     15  C   UNL     1       1.473  -6.331  -4.752  0.00  0.00    -0.012 C 
ATOM     16  C   UNL     1       1.153  -6.702  -3.291  0.00  0.00    -0.001 C 
ATOM     17  C   UNL     1       0.436  -5.598  -2.561  0.00  0.00    -0.000 C 
ATOM     18  C   UNL     1      -1.082  -5.853  -2.657  0.00  0.00    -0.000 C 
ATOM     19  C   UNL     1      -1.635  -5.429  -3.935  0.00  0.00    -0.001 C 
ATOM     20  C   UNL     1      -1.028  -6.202  -5.124  0.00  0.00    -0.012 C 
BRANCH  14  21
ATOM     21  N   UNL     1       0.518  -5.662  -6.904  0.00  0.00    +0.383 N 
ATOM     22  H   UNL     1       1.405  -5.239  -7.136  0.00  0.00    -0.089 HD
ATOM     23  H   UNL     1       0.518  -6.626  -7.203  0.00  0.00    -0.089 HD
ATOM     24  H   UNL     1      -0.225  -5.165  -7.372  0.00  0.00    -0.089 HD
ENDBRANCH  14  21
ENDBRANCH  13  14
ENDBRANCH   1  13
TORSDOF 6
