REMARK  Name = ZINC17304371
REMARK  6 active torsions:
REMARK  status: ('A' for Active; 'I' for Inactive)
REMARK    1  A    between atoms: N_11  and  C_12
REMARK    2  A    between atoms: C_12  and  C_14
REMARK    3  A    between atoms: C_14  and  C_15
REMARK    4  A    between atoms: C_15  and  C_16
REMARK    5  A    between atoms: C_19  and  S_22
REMARK    6  A    between atoms: S_22  and  N_25
REMARK                            x       y       z     vdW  Elec       q    Type
REMARK                         _______ _______ _______ _____ _____    ______ ____
ROOT
ATOM      1  C   UNL     1       5.684  -4.538  -0.290  0.00  0.00    +0.102 C 
ENDROOT
BRANCH   1   2
ATOM      2  C   UNL     1       4.916  -3.248  -0.162  0.00  0.00    +0.239 C 
ATOM      3  O   UNL     1       5.508  -2.186  -0.163  0.00  0.00    -0.274 OA
BRANCH   2  14
ATOM      4  C   UNL     1      -0.018   1.375  -0.018  0.00  0.00    +0.002 A 
ATOM      5  C   UNL     1       1.167   2.090  -0.015  0.00  0.00    +0.002 A 
ATOM      6  C   UNL     1       2.379   1.429  -0.020  0.00  0.00    +0.028 A 
ATOM      7  C   UNL     1       2.410   0.041  -0.029  0.00  0.00    +0.065 A 
ATOM      8  C   UNL     1       1.214  -0.680  -0.032  0.00  0.00    +0.065 A 
ATOM      9  C   UNL     1       0.001  -0.005  -0.027  0.00  0.00    +0.028 A 
ATOM     10  N   UNL     1       1.549  -2.030  -0.041  0.00  0.00    -0.326 N 
ATOM     11  H   UNL     1       0.924  -2.771  -0.045  0.00  0.00    +0.169 HD
ATOM     12  C   UNL     1       2.904  -2.132  -0.042  0.00  0.00    +0.198 A 
ATOM     13  N   UNL     1       3.447  -0.886  -0.035  0.00  0.00    -0.326 N 
ATOM     14  N   UNL     1       3.591  -3.271  -0.050  0.00  0.00    -0.147 NA
ATOM     15  H   UNL     1       4.394  -0.678  -0.035  0.00  0.00    +0.169 HD
ENDBRANCH   2  14
ENDBRANCH   1   2
BRANCH   1  16
ATOM     16  C   UNL     1       7.179  -4.233  -0.404  0.00  0.00    +0.044 C 
BRANCH  16  17
ATOM     17  C   UNL     1       7.947  -5.524  -0.531  0.00  0.00    -0.047 A 
ATOM     18  C   UNL     1       8.396  -6.175   0.602  0.00  0.00    +0.005 A 
ATOM     19  C   UNL     1       9.101  -7.359   0.485  0.00  0.00    +0.029 A 
ATOM     20  C   UNL     1       9.355  -7.891  -0.765  0.00  0.00    +0.105 A 
ATOM     21  C   UNL     1       8.904  -7.240  -1.898  0.00  0.00    +0.029 A 
ATOM     22  C   UNL     1       8.196  -6.059  -1.781  0.00  0.00    +0.005 A 
BRANCH  20  23
ATOM     23  S   UNL     1      10.254  -9.399  -0.914  0.00  0.00    +0.061 S 
ATOM     24  O   UNL     1      10.830  -9.402  -2.213  0.00  0.00    -0.153 OA
ATOM     25  O   UNL     1      11.035  -9.525   0.266  0.00  0.00    -0.153 OA
BRANCH  23  26
ATOM     26  N   UNL     1       9.149 -10.633  -0.884  0.00  0.00    -0.177 NA
ATOM     27  C   UNL     1       8.671 -11.325   0.322  0.00  0.00    +0.109 C 
ATOM     28  C   UNL     1       7.676 -12.411  -0.138  0.00  0.00    +0.018 C 
ATOM     29  C   UNL     1       8.077 -12.646  -1.619  0.00  0.00    +0.018 C 
ATOM     30  C   UNL     1       8.478 -11.213  -2.061  0.00  0.00    +0.109 C 
ENDBRANCH  23  26
ENDBRANCH  20  23
ENDBRANCH  16  17
ENDBRANCH   1  16
TORSDOF 6
