REMARK  Name = ZINC16955253
REMARK  8 active torsions:
REMARK  status: ('A' for Active; 'I' for Inactive)
REMARK    1  A    between atoms: C_2  and  C_10
REMARK    2  A    between atoms: C_3  and  O_9
REMARK    3  A    between atoms: N_11  and  C_12
REMARK    4  A    between atoms: C_12  and  C_13
REMARK    5  A    between atoms: C_16  and  C_19
REMARK    6  A    between atoms: C_19  and  N_20
REMARK    7  A    between atoms: C_21  and  C_22
REMARK    8  A    between atoms: C_23  and  O_30
REMARK                            x       y       z     vdW  Elec       q    Type
REMARK                         _______ _______ _______ _____ _____    ______ ____
ROOT
ATOM      1  C   UNL     1       2.809   5.963   1.958  0.00  0.00    +0.008 C 
ATOM      2  C   UNL     1       1.707   5.531   2.928  0.00  0.00    +0.005 C 
ATOM      3  C   UNL     1       2.085   5.953   4.350  0.00  0.00    +0.005 C 
ATOM      4  C   UNL     1       2.246   7.473   4.405  0.00  0.00    +0.008 C 
ATOM      5  C   UNL     1       3.348   7.904   3.435  0.00  0.00    +0.005 C 
ATOM      6  C   UNL     1       2.971   7.483   2.014  0.00  0.00    +0.005 C 
ENDROOT
BRANCH   1   7
ATOM      7  C   UNL     1       2.431   5.541   0.537  0.00  0.00    +0.115 C 
BRANCH   7   9
ATOM      8  C   UNL     1       1.274   3.473   0.219  0.00  0.00    +0.090 C 
ATOM      9  N   UNL     1       2.393   4.079   0.455  0.00  0.00    -0.389 N 
ATOM     10  H   UNL     1       3.207   3.565   0.577  0.00  0.00    +0.159 HD
BRANCH   8  12
ATOM     11  C   UNL     1       0.047   1.342  -0.162  0.00  0.00    +0.033 A 
ATOM     12  C   UNL     1       1.221   2.000   0.210  0.00  0.00    +0.035 A 
ATOM     13  C   UNL     1       2.349   1.252   0.575  0.00  0.00    +0.144 A 
ATOM     14  C   UNL     1       2.289  -0.133   0.562  0.00  0.00    +0.084 A 
ATOM     15  C   UNL     1       1.121  -0.773   0.192  0.00  0.00    +0.043 A 
ATOM     16  C   UNL     1       0.004  -0.037  -0.169  0.00  0.00    +0.043 A 
ATOM     17 CL   UNL     1      -1.457  -0.854  -0.632  0.00  0.00    -0.083 Cl
ATOM     18 CL   UNL     1       3.683  -1.065   1.012  0.00  0.00    -0.080 Cl
BRANCH  13  19
ATOM     19  O   UNL     1       3.496   1.882   0.938  0.00  0.00    -0.505 OA
ATOM     20  H   UNL     1       3.559   2.069   1.884  0.00  0.00    +0.292 HD
ENDBRANCH  13  19
ENDBRANCH   8  12
ENDBRANCH   7   9
ENDBRANCH   1   7
BRANCH   4  21
ATOM     21  C   UNL     1       0.928   8.141   4.008  0.00  0.00    +0.115 C 
BRANCH  21  22
ATOM     22  N   UNL     1       1.046   9.592   4.176  0.00  0.00    -0.389 N 
ATOM     23  C   UNL     1       0.982  10.370   3.143  0.00  0.00    +0.090 C 
ATOM     24  H   UNL     1       1.172   9.969   5.060  0.00  0.00    +0.159 HD
BRANCH  23  25
ATOM     25  C   UNL     1       1.161  11.823   3.304  0.00  0.00    +0.035 A 
ATOM     26  C   UNL     1       1.506  12.357   4.553  0.00  0.00    +0.144 A 
ATOM     27  C   UNL     1       1.673  13.727   4.693  0.00  0.00    +0.084 A 
ATOM     28  C   UNL     1       1.500  14.561   3.605  0.00  0.00    +0.043 A 
ATOM     29  C   UNL     1       1.160  14.037   2.368  0.00  0.00    +0.043 A 
ATOM     30  C   UNL     1       0.995  12.677   2.210  0.00  0.00    +0.033 A 
ATOM     31 CL   UNL     1       0.946  15.097   1.009  0.00  0.00    -0.083 Cl
ATOM     32 CL   UNL     1       2.099  14.395   6.238  0.00  0.00    -0.080 Cl
BRANCH  26  33
ATOM     33  O   UNL     1       1.674  11.537   5.621  0.00  0.00    -0.505 OA
ATOM     34  H   UNL     1       2.580  11.215   5.731  0.00  0.00    +0.292 HD
ENDBRANCH  26  33
ENDBRANCH  23  25
ENDBRANCH  21  22
ENDBRANCH   4  21
TORSDOF 8
