REMARK  Name = ZINC35375494
REMARK  8 active torsions:
REMARK  status: ('A' for Active; 'I' for Inactive)
REMARK    1  A    between atoms: C_1  and  C_2
REMARK    2  A    between atoms: C_2  and  C_3
REMARK    3  A    between atoms: C_3  and  C_5
REMARK    4  A    between atoms: C_3  and  N_6
REMARK    5  A    between atoms: C_11  and  C_29
REMARK    6  A    between atoms: C_29  and  C_30
REMARK    7  A    between atoms: C_30  and  S_31
REMARK    8  A    between atoms: S_31  and  C_32
REMARK                            x       y       z     vdW  Elec       q    Type
REMARK                         _______ _______ _______ _____ _____    ______ ____
ROOT
ATOM      1  N   UNL     1      -0.055  -0.114  -2.441  0.00  0.00    -0.239 N 
ATOM      2  C   UNL     1      -1.342  -0.513  -2.665  0.00  0.00    +0.227 C 
ATOM      3  O   UNL     1      -2.117  -0.976  -1.856  0.00  0.00    -0.275 OA
ATOM      4  C   UNL     1      -1.599  -0.259  -4.125  0.00  0.00    +0.107 C 
ATOM      5  C   UNL     1      -2.935   0.361  -4.554  0.00  0.00    +0.068 C 
ATOM      6  N   UNL     1      -2.543   1.218  -5.722  0.00  0.00    -0.295 NA
ATOM      7  C   UNL     1      -1.113   1.612  -5.524  0.00  0.00    +0.136 C 
ATOM      8  C   UNL     1      -0.728   1.059  -4.215  0.00  0.00    +0.122 C 
ATOM      9  C   UNL     1       0.434   0.690  -3.440  0.00  0.00    +0.228 C 
ATOM     10  O   UNL     1       1.586   1.016  -3.632  0.00  0.00    -0.275 OA
ATOM     11  C   UNL     1      -0.284   1.079  -6.663  0.00  0.00    +0.005 A 
ATOM     12  C   UNL     1       0.008  -0.194  -7.102  0.00  0.00    +0.008 A 
ATOM     13  C   UNL     1       0.822  -0.376  -8.206  0.00  0.00    +0.002 A 
ATOM     14  C   UNL     1       1.341   0.723  -8.867  0.00  0.00    +0.022 A 
ATOM     15  C   UNL     1       1.050   2.000  -8.431  0.00  0.00    +0.062 A 
ATOM     16  C   UNL     1       0.230   2.191  -7.320  0.00  0.00    +0.057 A 
ATOM     17  N   UNL     1      -0.203   3.363  -6.697  0.00  0.00    -0.282 N 
ATOM     18  C   UNL     1      -0.994   3.113  -5.638  0.00  0.00    +0.243 C 
ATOM     19  O   UNL     1      -1.512   3.935  -4.913  0.00  0.00    -0.273 OA
ATOM     20 CL   UNL     1       1.707   3.371  -9.269  0.00  0.00    -0.082 Cl
ATOM     21  H   UNL     1      -2.664   0.721  -6.592  0.00  0.00    +0.123 HD
ATOM     22  H   UNL     1       0.038   4.255  -6.993  0.00  0.00    +0.155 HD
ENDROOT
BRANCH   1  23
ATOM     23  C   UNL     1       0.718  -0.497  -1.257  0.00  0.00    +0.081 C 
ATOM     24  C   UNL     1       0.849  -2.021  -1.205  0.00  0.00    +0.028 C 
BRANCH  23  26
ATOM     25  C   UNL     1      -0.019   1.526   0.010  0.00  0.00    +0.006 C 
ATOM     26  C   UNL     1       0.002  -0.004   0.002  0.00  0.00    +0.019 C 
ENDBRANCH  23  26
ENDBRANCH   1  23
BRANCH   5  27
ATOM     27  C   UNL     1      -3.924  -0.725  -4.982  0.00  0.00    +0.030 C 
BRANCH  27  28
ATOM     28  C   UNL     1      -5.282  -0.088  -5.283  0.00  0.00    +0.070 C 
BRANCH  28  29
ATOM     29  S   UNL     1      -6.455  -1.376  -5.790  0.00  0.00    -0.164 S 
ATOM     30  C   UNL     1      -7.994  -0.469  -6.106  0.00  0.00    +0.084 C 
ENDBRANCH  28  29
ENDBRANCH  27  28
ENDBRANCH   5  27
TORSDOF 5
