REMARK  Name = ZINC59484511
REMARK  3 active torsions:
REMARK  status: ('A' for Active; 'I' for Inactive)
REMARK    1  A    between atoms: C_14  and  C_31
REMARK    2  A    between atoms: N_21  and  C_24
REMARK    3  A    between atoms: C_27  and  O_30
REMARK                            x       y       z     vdW  Elec       q    Type
REMARK                         _______ _______ _______ _____ _____    ______ ____
ROOT
ATOM      1  C   UNL     1      -0.247   1.042  -0.760  0.00  0.00    +0.000 A 
ATOM      2  C   UNL     1       0.847   1.881  -0.866  0.00  0.00    +0.000 A 
ATOM      3  C   UNL     1       2.132   1.390  -0.676  0.00  0.00    +0.005 A 
ATOM      4  C   UNL     1       2.293   0.066  -0.383  0.00  0.00    -0.026 A 
ATOM      5  C   UNL     1       1.191  -0.780  -0.276  0.00  0.00    -0.035 A 
ATOM      6  C   UNL     1      -0.075  -0.303  -0.462  0.00  0.00    +0.004 A 
ATOM      7  C   UNL     1       1.536  -2.223   0.054  0.00  0.00    +0.062 C 
ATOM      8  C   UNL     1       2.400  -2.155   1.303  0.00  0.00    -0.035 A 
ATOM      9  C   UNL     1       2.160  -2.845   2.457  0.00  0.00    +0.004 A 
ATOM     10  C   UNL     1       3.034  -2.688   3.525  0.00  0.00    +0.000 A 
ATOM     11  C   UNL     1       4.126  -1.847   3.419  0.00  0.00    +0.000 A 
ATOM     12  C   UNL     1       4.365  -1.150   2.242  0.00  0.00    +0.005 A 
ATOM     13  C   UNL     1       3.502  -1.309   1.196  0.00  0.00    -0.026 A 
ATOM     14  C   UNL     1       3.633  -0.616  -0.151  0.00  0.00    +0.088 C 
ATOM     15  C   UNL     1       3.700  -1.753  -1.194  0.00  0.00    +0.110 C 
ATOM     16  C   UNL     1       2.482  -2.686  -1.076  0.00  0.00    +0.101 C 
ATOM     17  C   UNL     1       3.087  -4.017  -0.687  0.00  0.00    +0.231 C 
ATOM     18  O   UNL     1       2.468  -5.041  -0.492  0.00  0.00    -0.274 OA
ATOM     19  N   UNL     1       4.416  -3.884  -0.593  0.00  0.00    -0.210 N 
ATOM     20  C   UNL     1       4.870  -2.652  -0.856  0.00  0.00    +0.232 C 
ATOM     21  O   UNL     1       6.033  -2.311  -0.827  0.00  0.00    -0.274 OA
ENDROOT
BRANCH  19  22
ATOM     22  C   UNL     1       5.264  -4.948  -0.247  0.00  0.00    +0.044 A 
ATOM     23  C   UNL     1       5.446  -6.005  -1.128  0.00  0.00    +0.027 A 
ATOM     24  C   UNL     1       6.280  -7.051  -0.788  0.00  0.00    +0.047 A 
ATOM     25  C   UNL     1       6.936  -7.046   0.435  0.00  0.00    +0.117 A 
ATOM     26  C   UNL     1       6.754  -5.991   1.316  0.00  0.00    +0.047 A 
ATOM     27  C   UNL     1       5.924  -4.941   0.974  0.00  0.00    +0.027 A 
BRANCH  25  28
ATOM     28  O   UNL     1       7.757  -8.077   0.769  0.00  0.00    -0.507 OA
ATOM     29  H   UNL     1       8.677  -7.951   0.499  0.00  0.00    +0.292 HD
ENDBRANCH  25  28
ENDBRANCH  19  22
BRANCH  14  30
ATOM     30  C   UNL     1       4.798   0.337  -0.214  0.00  0.00    +0.240 C 
ATOM     31  O   UNL     1       5.595   0.258  -1.118  0.00  0.00    -0.300 OA
ENDBRANCH  14  30
TORSDOF 3
