REMARK  Name = ZINC04915496
REMARK  5 active torsions:
REMARK  status: ('A' for Active; 'I' for Inactive)
REMARK    1  A    between atoms: C_1  and  C_2
REMARK    2  A    between atoms: C_6  and  C_8
REMARK    3  A    between atoms: N_22  and  C_23
REMARK    4  A    between atoms: C_24  and  C_30
REMARK    5  A    between atoms: C_28  and  C_29
REMARK                            x       y       z     vdW  Elec       q    Type
REMARK                         _______ _______ _______ _____ _____    ______ ____
ROOT
ATOM      1  C   UNL     1       1.988   7.622   1.419  0.00  0.00    +0.248 C 
ATOM      2  O   UNL     1       0.820   7.762   1.726  0.00  0.00    -0.270 OA
ATOM      3  N   UNL     1       2.558   8.463   0.533  0.00  0.00    -0.282 N 
ATOM      4  C   UNL     1       3.995   8.448   0.262  0.00  0.00    +0.120 C 
ATOM      5  C   UNL     1       4.281   8.857  -1.216  0.00  0.00    +0.090 C 
ATOM      6  S   UNL     1       2.996  10.178  -1.383  0.00  0.00    -0.133 S 
ATOM      7  C   UNL     1       1.774   9.453  -0.216  0.00  0.00    +0.087 C 
ATOM      8  C   UNL     1       1.240  10.541   0.704  0.00  0.00    +0.056 C 
ATOM      9  C   UNL     1       0.236   9.930   1.689  0.00  0.00    +0.112 C 
ATOM     10  N   UNL     1      -0.785   9.198   0.927  0.00  0.00    -0.285 N 
ATOM     11  C   UNL     1      -0.354   8.166  -0.026  0.00  0.00    +0.112 C 
ATOM     12  C   UNL     1       0.653   8.787  -1.001  0.00  0.00    +0.056 C 
ATOM     13  C   UNL     1      -2.094   9.468   1.099  0.00  0.00    +0.306 C 
ATOM     14  O   UNL     1      -2.933   8.793   0.536  0.00  0.00    -0.252 OA
ATOM     15  N   UNL     1      -2.472  10.487   1.897  0.00  0.00    -0.269 N 
ATOM     16  H   UNL     1      -1.805  10.996   2.383  0.00  0.00    +0.156 HD
ENDROOT
BRANCH  15  17
ATOM     17  C   UNL     1      -3.828  10.811   2.022  0.00  0.00    +0.041 A 
ATOM     18  C   UNL     1      -4.374  11.043   3.277  0.00  0.00    -0.029 A 
ATOM     19  C   UNL     1      -5.712  11.368   3.397  0.00  0.00    +0.005 A 
ATOM     20  C   UNL     1      -6.508  11.451   2.270  0.00  0.00    +0.001 A 
ATOM     21  C   UNL     1      -5.968  11.215   1.019  0.00  0.00    +0.005 A 
ATOM     22  C   UNL     1      -4.630  10.896   0.892  0.00  0.00    -0.029 A 
ATOM     23  C   UNL     1      -4.042  10.639  -0.472  0.00  0.00    +0.045 C 
ATOM     24  C   UNL     1      -3.508  10.947   4.507  0.00  0.00    +0.045 C 
ENDBRANCH  15  17
BRANCH   1  30
ATOM     25  C   UNL     1       2.240   3.045   3.391  0.00  0.00    +0.044 C 
ATOM     26  C   UNL     1       2.910   4.327   2.969  0.00  0.00    -0.050 A 
ATOM     27  C   UNL     1       4.274   4.484   3.142  0.00  0.00    +0.003 A 
ATOM     28  C   UNL     1       4.897   5.656   2.752  0.00  0.00    +0.001 A 
ATOM     29  C   UNL     1       4.160   6.679   2.192  0.00  0.00    +0.013 A 
ATOM     30  C   UNL     1       2.784   6.530   2.019  0.00  0.00    +0.037 A 
ATOM     31  C   UNL     1       2.161   5.345   2.415  0.00  0.00    +0.016 A 
ENDBRANCH   1  30
TORSDOF 2
