REMARK  Name = ZINC63472935
REMARK  4 active torsions:
REMARK  status: ('A' for Active; 'I' for Inactive)
REMARK    1  A    between atoms: C_6  and  C_11
REMARK    2  A    between atoms: C_11  and  C_12
REMARK    3  A    between atoms: C_12  and  N_13
REMARK    4  A    between atoms: C_14  and  N_22
REMARK                            x       y       z     vdW  Elec       q    Type
REMARK                         _______ _______ _______ _____ _____    ______ ____
ROOT
ATOM      1  C   UNL     1       4.508  -2.214  -1.492  0.00  0.00    +0.112 C 
ENDROOT
BRANCH   1   2
ATOM      2  N   UNL     1       5.001  -3.593  -1.505  0.00  0.00    -0.298 N 
ATOM      3  C   UNL     1       6.439  -3.855  -1.404  0.00  0.00    +0.026 C 
ATOM      4  C   UNL     1       6.662  -5.131  -0.589  0.00  0.00    +0.100 C 
ATOM      5  C   UNL     1       5.722  -6.203  -1.076  0.00  0.00    +0.240 C 
ATOM      6  O   UNL     1       6.105  -7.490  -1.044  0.00  0.00    -0.274 OA
ATOM      7  N   UNL     1       4.540  -5.892  -1.527  0.00  0.00    -0.128 NA
ATOM      8  C   UNL     1       4.131  -4.614  -1.604  0.00  0.00    +0.327 C 
ATOM      9  O   UNL     1       2.950  -4.375  -1.770  0.00  0.00    -0.250 OA
BRANCH   3  10
ATOM     10  N   UNL     1       7.098  -2.723  -0.738  0.00  0.00    +0.391 N 
ATOM     11  H   UNL     1       6.713  -2.607   0.187  0.00  0.00    -0.087 HD
ATOM     12  H   UNL     1       8.089  -2.904  -0.669  0.00  0.00    -0.087 HD
ATOM     13  H   UNL     1       6.947  -1.882  -1.274  0.00  0.00    -0.087 HD
ENDBRANCH   3  10
ENDBRANCH   1   2
BRANCH   1  14
ATOM     14  C   UNL     1       4.232  -1.784  -0.050  0.00  0.00    +0.052 C 
BRANCH  14  20
ATOM     15  C   UNL     1      -0.017   1.400   0.010  0.00  0.00    +0.040 A 
ATOM     16  C   UNL     1       1.109   2.144   0.003  0.00  0.00    +0.029 A 
ATOM     17  C   UNL     1       2.386   1.516  -0.013  0.00  0.00    +0.043 A 
ATOM     18  N   UNL     1       3.600   2.010  -0.023  0.00  0.00    -0.380 N 
ATOM     19  C   UNL     1       4.557   0.898  -0.038  0.00  0.00    +0.144 C 
ATOM     20  C   UNL     1       3.725  -0.365  -0.037  0.00  0.00    -0.040 C 
ATOM     21  C   UNL     1       2.434   0.037  -0.021  0.00  0.00    +0.002 A 
ATOM     22  C   UNL     1       1.164  -0.699  -0.013  0.00  0.00    +0.048 A 
ATOM     23  C   UNL     1       0.002  -0.004   0.002  0.00  0.00    +0.124 A 
ATOM     24  F   UNL     1      -1.169  -0.678   0.010  0.00  0.00    -0.205 F 
ATOM     25  H   UNL     1       3.828   2.953  -0.020  0.00  0.00    +0.160 HD
ENDBRANCH  14  20
ENDBRANCH   1  14
TORSDOF 4
