REMARK  Name = ZINC37409474
REMARK  5 active torsions:
REMARK  status: ('A' for Active; 'I' for Inactive)
REMARK    1  A    between atoms: C_1  and  C_2
REMARK    2  A    between atoms: C_2  and  C_3
REMARK    3  A    between atoms: C_7  and  C_20
REMARK    4  A    between atoms: C_11  and  C_13
REMARK    5  A    between atoms: C_18  and  N_19
REMARK                            x       y       z     vdW  Elec       q    Type
REMARK                         _______ _______ _______ _____ _____    ______ ____
ROOT
ATOM      1  C   UNL     1      -1.405  -0.497   0.011  0.00  0.00    +0.102 C 
ATOM      2  C   UNL     1      -1.359  -2.025   0.118  0.00  0.00    +0.182 C 
ATOM      3  O   UNL     1      -0.806  -2.565  -1.085  0.00  0.00    -0.373 OA
ATOM      4  C   UNL     1      -1.579  -2.294  -2.257  0.00  0.00    +0.133 C 
ATOM      5  C   UNL     1      -1.636  -0.779  -2.485  0.00  0.00    +0.139 C 
ATOM      6  N   UNL     1      -2.091  -0.138  -1.240  0.00  0.00    -0.290 N 
ATOM      7  C   UNL     1      -3.105   0.749  -1.246  0.00  0.00    +0.249 C 
ATOM      8  O   UNL     1      -3.536   1.187  -0.196  0.00  0.00    -0.270 OA
ATOM      9  C   UNL     1      -0.928  -2.970  -3.465  0.00  0.00    +0.039 C 
ENDROOT
BRANCH   7  10
ATOM     10  C   UNL     1      -3.693   1.189  -2.525  0.00  0.00    +0.057 A 
ATOM     11  C   UNL     1      -2.876   1.710  -3.531  0.00  0.00    +0.015 A 
ATOM     12  C   UNL     1      -3.430   2.119  -4.724  0.00  0.00    +0.001 A 
ATOM     13  C   UNL     1      -4.797   2.018  -4.932  0.00  0.00    +0.002 A 
ATOM     14  C   UNL     1      -5.617   1.506  -3.948  0.00  0.00    +0.023 A 
ATOM     15  C   UNL     1      -5.075   1.082  -2.741  0.00  0.00    +0.037 A 
BRANCH  15  16
ATOM     16  N   UNL     1      -5.898   0.561  -1.751  0.00  0.00    -0.357 N 
ATOM     17  H   UNL     1      -5.530   0.337  -0.882  0.00  0.00    +0.142 HD
ATOM     18  H   UNL     1      -6.841   0.421  -1.928  0.00  0.00    +0.142 HD
ENDBRANCH  15  16
ENDBRANCH   7  10
BRANCH   1  20
ATOM     19  C   UNL     1      -0.032   1.591   0.003  0.00  0.00    +0.006 C 
ATOM     20  C   UNL     1       0.019   0.062  -0.003  0.00  0.00    +0.021 C 
ENDBRANCH   1  20
TORSDOF 3
