REMARK  Name = ZINC11812977
REMARK  7 active torsions:
REMARK  status: ('A' for Active; 'I' for Inactive)
REMARK    1  A    between atoms: C_6  and  C_7
REMARK    2  A    between atoms: C_7  and  N_8
REMARK    3  A    between atoms: C_9  and  C_11
REMARK    4  A    between atoms: C_15  and  C_20
REMARK    5  A    between atoms: C_20  and  O_33
REMARK    6  A    between atoms: C_25  and  C_26
REMARK    7  A    between atoms: C_25  and  N_68
REMARK                            x       y       z     vdW  Elec       q    Type
REMARK                         _______ _______ _______ _____ _____    ______ ____
ROOT
ATOM      1  C   UNL     1     -12.228  -2.754  -2.708  0.00  0.00    +0.190 A 
ATOM      2  C   UNL     1     -11.015  -3.060  -3.236  0.00  0.00    +0.063 A 
ATOM      3  C   UNL     1     -10.142  -1.927  -2.931  0.00  0.00    +0.021 A 
ATOM      4  C   UNL     1      -8.802  -1.632  -3.194  0.00  0.00    +0.018 A 
ATOM      5  C   UNL     1      -8.271  -0.451  -2.759  0.00  0.00    -0.015 A 
ATOM      6  C   UNL     1      -9.052   0.454  -2.054  0.00  0.00    +0.010 A 
ATOM      7  C   UNL     1     -10.377   0.184  -1.789  0.00  0.00    +0.047 A 
ATOM      8  C   UNL     1     -10.940  -1.011  -2.222  0.00  0.00    +0.136 A 
ATOM      9  O   UNL     1     -12.172  -1.544  -2.112  0.00  0.00    -0.450 OA
ENDROOT
BRANCH   5  10
ATOM     10  C   UNL     1      -6.825  -0.131  -3.041  0.00  0.00    +0.088 C 
ATOM     11  C   UNL     1      -6.652   1.385  -3.165  0.00  0.00    +0.021 C 
ATOM     12  C   UNL     1      -5.173   1.707  -3.391  0.00  0.00    -0.076 C 
ATOM     13  C   UNL     1      -4.495  -0.263  -2.154  0.00  0.00    -0.076 C 
ATOM     14  C   UNL     1      -5.954  -0.644  -1.891  0.00  0.00    +0.021 C 
ATOM     15  N   UNL     1      -4.392   1.209  -2.239  0.00  0.00    +0.380 N 
ATOM     16  H   UNL     1      -4.771   1.620  -1.377  0.00  0.00    -0.082 HD
BRANCH  10  17
ATOM     17  O   UNL     1      -6.426  -0.759  -4.261  0.00  0.00    -0.384 OA
ATOM     18  H   UNL     1      -6.511  -1.723  -4.253  0.00  0.00    +0.211 HD
ENDBRANCH  10  17
BRANCH  15  19
ATOM     19  C   UNL     1      -2.976   1.608  -2.378  0.00  0.00    -0.075 C 
BRANCH  19  20
ATOM     20  C   UNL     1      -2.241   1.278  -1.078  0.00  0.00    -0.024 C 
ATOM     21  C   UNL     1      -0.747   1.590  -1.236  0.00  0.00    +0.006 C 
ATOM     22  C   UNL     1      -0.013   1.086   0.008  0.00  0.00    +0.027 C 
ATOM     23  C   UNL     1      -0.710   1.567   1.247  0.00  0.00    -0.031 C 
ATOM     24  C   UNL     1      -1.919   2.020   1.272  0.00  0.00    -0.031 C 
ATOM     25  C   UNL     1      -2.797   2.136   0.060  0.00  0.00    +0.028 C 
ENDBRANCH  19  20
ENDBRANCH  15  19
ENDBRANCH   5  10
BRANCH   1  27
ATOM     26  N   UNL     1     -14.575  -3.201  -2.213  0.00  0.00    -0.305 N 
ATOM     27  C   UNL     1     -13.420  -3.610  -2.775  0.00  0.00    +0.280 C 
ATOM     28  O   UNL     1     -13.365  -4.687  -3.337  0.00  0.00    -0.267 OA
ATOM     29  H   UNL     1     -14.620  -2.342  -1.765  0.00  0.00    +0.149 HD
BRANCH  26  30
ATOM     30  C   UNL     1     -15.764  -4.055  -2.280  0.00  0.00    +0.140 C 
BRANCH  30  36
ATOM     31  C   UNL     1     -17.125  -3.586  -0.233  0.00  0.00    +0.009 A 
ATOM     32  C   UNL     1     -18.174  -2.958   0.413  0.00  0.00    +0.050 A 
ATOM     33  C   UNL     1     -19.022  -2.122  -0.294  0.00  0.00    +0.166 A 
ATOM     34  C   UNL     1     -18.811  -1.911  -1.655  0.00  0.00    +0.167 A 
ATOM     35  C   UNL     1     -17.755  -2.538  -2.294  0.00  0.00    +0.054 A 
ATOM     36  C   UNL     1     -16.913  -3.372  -1.582  0.00  0.00    -0.027 A 
ATOM     37  O   UNL     1     -19.770  -1.056  -2.117  0.00  0.00    -0.453 OA
ATOM     38  C   UNL     1     -20.809  -1.069  -1.121  0.00  0.00    +0.466 C 
ATOM     39  O   UNL     1     -20.113  -1.400   0.096  0.00  0.00    -0.453 OA
ENDBRANCH  30  36
ENDBRANCH  26  30
ENDBRANCH   1  27
TORSDOF 7
