REMARK  Name = ZINC03831036
REMARK  7 active torsions:
REMARK  status: ('A' for Active; 'I' for Inactive)
REMARK    1  A    between atoms: C_1  and  C_2
REMARK    2  A    between atoms: C_17  and  C_31
REMARK    3  A    between atoms: C_23  and  C_30
REMARK    4  A    between atoms: C_24  and  C_25
REMARK    5  A    between atoms: C_24  and  O_29
REMARK    6  A    between atoms: C_25  and  C_27
REMARK    7  A    between atoms: C_27  and  O_28
REMARK                            x       y       z     vdW  Elec       q    Type
REMARK                         _______ _______ _______ _____ _____    ______ ____
ROOT
ATOM      1  C   UNL     1      -0.588  -3.368  -1.814  0.00  0.00    +0.011 C 
ATOM      2  C   UNL     1      -1.808  -2.527  -1.436  0.00  0.00    +0.026 C 
ATOM      3  C   UNL     1      -3.085  -3.403  -1.464  0.00  0.00    +0.011 C 
ATOM      4  C   UNL     1      -3.372  -3.696   0.017  0.00  0.00    +0.003 C 
ATOM      5  C   UNL     1      -4.763  -4.165   0.317  0.00  0.00    +0.004 C 
ATOM      6  C   UNL     1      -5.105  -5.501  -0.332  0.00  0.00    +0.009 C 
ATOM      7  C   UNL     1      -5.187  -5.395  -1.843  0.00  0.00    +0.032 C 
ATOM      8  C   UNL     1      -5.698  -4.058  -2.310  0.00  0.00    -0.056 C 
ATOM      9  C   UNL     1      -5.632  -3.836  -3.637  0.00  0.00    +0.051 C 
ATOM     10  C   UNL     1      -6.068  -2.531  -4.176  0.00  0.00    +0.179 C 
ATOM     11  O   UNL     1      -6.336  -2.396  -5.368  0.00  0.00    -0.288 OA
ATOM     12  C   UNL     1      -6.173  -1.390  -3.241  0.00  0.00    +0.047 C 
ATOM     13  C   UNL     1      -6.171  -1.626  -1.922  0.00  0.00    -0.012 C 
ATOM     14  C   UNL     1      -6.244  -3.024  -1.397  0.00  0.00    +0.017 C 
ATOM     15  C   UNL     1      -5.850  -3.142   0.050  0.00  0.00    +0.072 C 
ATOM     16  C   UNL     1      -5.429  -1.813   0.630  0.00  0.00    +0.138 C 
ATOM     17  O   UNL     1      -6.193  -1.165   1.312  0.00  0.00    -0.297 OA
ATOM     18  C   UNL     1      -4.036  -1.298   0.350  0.00  0.00    +0.084 C 
ATOM     19  C   UNL     1      -3.001  -2.365   0.711  0.00  0.00    +0.014 C 
ATOM     20  C   UNL     1      -1.666  -2.007   0.007  0.00  0.00    +0.134 C 
ATOM     21  C   UNL     1      -2.834  -2.529   2.221  0.00  0.00    +0.015 C 
ATOM     22  C   UNL     1      -7.755  -3.319  -1.374  0.00  0.00    +0.021 C 
ENDROOT
BRANCH  20  23
ATOM     23  C   UNL     1      -1.412  -0.526   0.013  0.00  0.00    +0.190 C 
ATOM     24  O   UNL     1      -1.815   0.160  -0.896  0.00  0.00    -0.292 OA
BRANCH  23  25
ATOM     25  C   UNL     1      -0.653   0.104   1.153  0.00  0.00    +0.233 C 
BRANCH  25  26
ATOM     26  O   UNL     1      -0.542   1.511   0.930  0.00  0.00    -0.387 OA
ATOM     27  H   UNL     1      -0.064   1.983   1.626  0.00  0.00    +0.210 HD
ENDBRANCH  25  26
ENDBRANCH  23  25
ENDBRANCH  20  23
BRANCH  20  28
ATOM     28  O   UNL     1      -0.582  -2.684   0.656  0.00  0.00    -0.380 OA
ATOM     29  H   UNL     1       0.279  -2.534   0.242  0.00  0.00    +0.211 HD
ENDBRANCH  20  28
TORSDOF 4
