REMARK  Name = ZINC46996652
REMARK  7 active torsions:
REMARK  status: ('A' for Active; 'I' for Inactive)
REMARK    1  A    between atoms: C_3  and  S_8
REMARK    2  A    between atoms: S_8  and  C_9
REMARK    3  A    between atoms: C_9  and  C_10
REMARK    4  A    between atoms: C_10  and  C_11
REMARK    5  A    between atoms: N_13  and  N_14
REMARK    6  A    between atoms: N_17  and  C_18
REMARK    7  A    between atoms: C_18  and  C_19
REMARK                            x       y       z     vdW  Elec       q    Type
REMARK                         _______ _______ _______ _____ _____    ______ ____
ROOT
ATOM      1  C   UNL     1       7.617   0.604  -0.068  0.00  0.00    +0.230 C 
ATOM      2  O   UNL     1       7.297  -0.566  -0.071  0.00  0.00    -0.274 OA
ATOM      3  N   UNL     1       8.920   0.946  -0.079  0.00  0.00    -0.233 N 
ATOM      4  H   UNL     1       9.176   1.882  -0.077  0.00  0.00    +0.173 HD
ENDROOT
BRANCH   3   5
ATOM      5  N   UNL     1       9.906  -0.049  -0.093  0.00  0.00    -0.218 N 
ATOM      6  C   UNL     1      11.209   0.293  -0.104  0.00  0.00    +0.316 C 
ATOM      7  O   UNL     1      12.065  -0.571  -0.117  0.00  0.00    -0.251 OA
ATOM      8  N   UNL     1      11.565   1.593  -0.101  0.00  0.00    -0.294 N 
ATOM      9  H   UNL     1       9.650  -0.985  -0.096  0.00  0.00    +0.174 HD
ATOM     10  H   UNL     1      10.882   2.283  -0.091  0.00  0.00    +0.151 HD
BRANCH   8  11
ATOM     11  C   UNL     1      12.981   1.966  -0.113  0.00  0.00    +0.148 C 
BRANCH  11  12
ATOM     12  C   UNL     1      13.106   3.468  -0.107  0.00  0.00    +0.008 A 
ATOM     13  C   UNL     1      13.193   4.312   0.949  0.00  0.00    +0.014 A 
ATOM     14  C   UNL     1      13.302   5.670   0.715  0.00  0.00    +0.028 A 
ATOM     15  C   UNL     1      13.319   6.117  -0.566  0.00  0.00    +0.078 A 
ATOM     16  S   UNL     1      13.186   4.595  -1.489  0.00  0.00    -0.080 S 
ATOM     17 CL   UNL     1      13.444   7.745  -1.155  0.00  0.00    -0.076 Cl
ENDBRANCH  11  12
ENDBRANCH   8  11
ENDBRANCH   3   5
BRANCH   1  18
ATOM     18  C   UNL     1       6.556   1.674  -0.052  0.00  0.00    +0.108 C 
BRANCH  18  19
ATOM     19  C   UNL     1       5.173   1.022  -0.042  0.00  0.00    +0.083 C 
BRANCH  19  20
ATOM     20  S   UNL     1       3.896   2.310  -0.023  0.00  0.00    -0.125 S 
BRANCH  20  23
ATOM     21  C   UNL     1      -0.017   1.381   0.010  0.00  0.00    +0.039 A 
ATOM     22  C   UNL     1       1.169   2.088   0.002  0.00  0.00    +0.017 A 
ATOM     23  C   UNL     1       2.382   1.410  -0.013  0.00  0.00    +0.008 A 
ATOM     24  C   UNL     1       2.398   0.021  -0.021  0.00  0.00    +0.017 A 
ATOM     25  C   UNL     1       1.209  -0.682  -0.013  0.00  0.00    +0.039 A 
ATOM     26  C   UNL     1       0.002  -0.004   0.002  0.00  0.00    +0.123 A 
ATOM     27  F   UNL     1      -1.159  -0.694   0.009  0.00  0.00    -0.205 F 
ENDBRANCH  20  23
ENDBRANCH  19  20
ENDBRANCH  18  19
ENDBRANCH   1  18
TORSDOF 7
