REMARK  Name = ZINC37192762
REMARK  7 active torsions:
REMARK  status: ('A' for Active; 'I' for Inactive)
REMARK    1  A    between atoms: C_1  and  C_2
REMARK    2  A    between atoms: C_5  and  S_9
REMARK    3  A    between atoms: C_6  and  N_8
REMARK    4  A    between atoms: S_9  and  C_10
REMARK    5  A    between atoms: C_10  and  C_11
REMARK    6  A    between atoms: C_15  and  C_22
REMARK    7  A    between atoms: C_18  and  C_21
REMARK                            x       y       z     vdW  Elec       q    Type
REMARK                         _______ _______ _______ _____ _____    ______ ____
ROOT
ATOM      1  S   UNL     1       0.062  -4.537  -0.037  0.00  0.00    -0.114 S 
ENDROOT
BRANCH   1   6
ATOM      2  C   UNL     1      -0.018   1.503   0.010  0.00  0.00    +0.044 C 
ATOM      3  C   UNL     1       0.002  -0.004   0.002  0.00  0.00    -0.049 A 
ATOM      4  C   UNL     1       0.006  -0.687  -1.200  0.00  0.00    +0.004 A 
ATOM      5  C   UNL     1       0.024  -2.069  -1.215  0.00  0.00    +0.017 A 
ATOM      6  C   UNL     1       0.039  -2.775  -0.021  0.00  0.00    +0.029 A 
ATOM      7  C   UNL     1       0.036  -2.086   1.192  0.00  0.00    +0.038 A 
ATOM      8  C   UNL     1       0.023  -0.700   1.197  0.00  0.00    +0.027 A 
BRANCH   7   9
ATOM      9  N   UNL     1       0.051  -2.792   2.401  0.00  0.00    -0.357 N 
ATOM     10  H   UNL     1       0.063  -3.762   2.395  0.00  0.00    +0.142 HD
ATOM     11  H   UNL     1       0.049  -2.312   3.243  0.00  0.00    +0.142 HD
ENDBRANCH   7   9
ENDBRANCH   1   6
BRANCH   1  12
ATOM     12  C   UNL     1       0.058  -4.960  -1.801  0.00  0.00    +0.170 C 
BRANCH  12  13
ATOM     13  C   UNL     1       0.077  -6.459  -1.958  0.00  0.00    +0.226 C 
ATOM     14  O   UNL     1       0.091  -7.171  -0.976  0.00  0.00    -0.275 OA
ATOM     15  N   UNL     1       0.078  -7.008  -3.189  0.00  0.00    -0.296 N 
ATOM     16  C   UNL     1       0.067  -6.164  -4.394  0.00  0.00    +0.139 C 
ATOM     17  C   UNL     1      -1.055  -6.654  -5.317  0.00  0.00    +0.133 C 
ATOM     18  O   UNL     1      -0.910  -8.060  -5.528  0.00  0.00    -0.371 OA
ATOM     19  C   UNL     1      -1.033  -8.846  -4.340  0.00  0.00    +0.133 C 
ATOM     20  C   UNL     1       0.096  -8.468  -3.367  0.00  0.00    +0.139 C 
ATOM     21  C   UNL     1      -0.924 -10.330  -4.696  0.00  0.00    +0.039 C 
ATOM     22  C   UNL     1      -0.968  -5.923  -6.659  0.00  0.00    +0.039 C 
ENDBRANCH  12  13
ENDBRANCH   1  12
TORSDOF 4
