REMARK  Name = ZINC59941799
REMARK  7 active torsions:
REMARK  status: ('A' for Active; 'I' for Inactive)
REMARK    1  A    between atoms: C_4  and  N_7
REMARK    2  A    between atoms: C_8  and  N_30
REMARK    3  A    between atoms: C_13  and  S_14
REMARK    4  A    between atoms: S_14  and  C_15
REMARK    5  A    between atoms: C_15  and  C_16
REMARK    6  A    between atoms: N_18  and  C_19
REMARK    7  A    between atoms: C_24  and  C_25
REMARK                            x       y       z     vdW  Elec       q    Type
REMARK                         _______ _______ _______ _____ _____    ______ ____
ROOT
ATOM      1  S   UNL     1       4.716   1.573  -0.039  0.00  0.00    -0.078 S 
ENDROOT
BRANCH   1   8
ATOM      2  N   UNL     1       3.761  -0.953   0.145  0.00  0.00    -0.277 N 
ATOM      3  C   UNL     1       3.866  -2.322   0.157  0.00  0.00    +0.108 A 
ATOM      4  C   UNL     1       5.097  -2.893   0.008  0.00  0.00    +0.114 A 
ATOM      5  C   UNL     1       6.221  -2.058  -0.153  0.00  0.00    +0.276 A 
ATOM      6  O   UNL     1       7.333  -2.547  -0.289  0.00  0.00    -0.266 OA
ATOM      7  N   UNL     1       6.066  -0.725  -0.158  0.00  0.00    -0.185 NA
ATOM      8  C   UNL     1       4.875  -0.181  -0.019  0.00  0.00    +0.179 A 
BRANCH   2  12
ATOM      9  C   UNL     1       0.029   0.848   0.593  0.00  0.00    +0.000 A 
ATOM     10  C   UNL     1       0.570   0.685  -0.669  0.00  0.00    +0.002 A 
ATOM     11  C   UNL     1       1.806   0.088  -0.821  0.00  0.00    +0.026 A 
ATOM     12  C   UNL     1       2.507  -0.348   0.295  0.00  0.00    +0.050 A 
ATOM     13  C   UNL     1       1.962  -0.182   1.562  0.00  0.00    +0.026 A 
ATOM     14  C   UNL     1       0.725   0.414   1.707  0.00  0.00    +0.002 A 
ENDBRANCH   2  12
BRANCH   3  15
ATOM     15  N   UNL     1       2.747  -3.106   0.317  0.00  0.00    -0.344 N 
ATOM     16  H   UNL     1       1.867  -2.699   0.329  0.00  0.00    +0.144 HD
ATOM     17  H   UNL     1       2.839  -4.067   0.418  0.00  0.00    +0.144 HD
ENDBRANCH   3  15
ENDBRANCH   1   8
BRANCH   1  18
ATOM     18  C   UNL     1       6.415   2.164  -0.276  0.00  0.00    +0.173 C 
BRANCH  18  19
ATOM     19  C   UNL     1       6.422   3.671  -0.312  0.00  0.00    +0.227 C 
ATOM     20  O   UNL     1       5.383   4.285  -0.190  0.00  0.00    -0.275 OA
ATOM     21  N   UNL     1       7.582   4.336  -0.479  0.00  0.00    -0.284 N 
ATOM     22  H   UNL     1       8.404   3.845  -0.637  0.00  0.00    +0.155 HD
BRANCH  21  23
ATOM     23  C   UNL     1       7.602   5.735  -0.427  0.00  0.00    +0.045 A 
ATOM     24  C   UNL     1       6.579   6.421   0.215  0.00  0.00    +0.026 A 
ATOM     25  C   UNL     1       6.600   7.801   0.266  0.00  0.00    +0.040 A 
ATOM     26  C   UNL     1       7.640   8.500  -0.323  0.00  0.00    +0.124 A 
ATOM     27  C   UNL     1       8.661   7.818  -0.963  0.00  0.00    +0.052 A 
ATOM     28  C   UNL     1       8.647   6.438  -1.011  0.00  0.00    +0.079 A 
ATOM     29  F   UNL     1       7.658   9.850  -0.273  0.00  0.00    -0.205 F 
BRANCH  28  30
ATOM     30  C   UNL     1       9.761   5.696  -1.703  0.00  0.00    +0.419 C 
ATOM     31  F   UNL     1      10.689   6.613  -2.208  0.00  0.00    -0.166 F 
ATOM     32  F   UNL     1      10.395   4.848  -0.788  0.00  0.00    -0.166 F 
ATOM     33  F   UNL     1       9.235   4.938  -2.754  0.00  0.00    -0.166 F 
ENDBRANCH  28  30
ENDBRANCH  21  23
ENDBRANCH  18  19
ENDBRANCH   1  18
TORSDOF 7
