REMARK  Name = ZINC38719986
REMARK  8 active torsions:
REMARK  status: ('A' for Active; 'I' for Inactive)
REMARK    1  A    between atoms: C_1  and  C_2
REMARK    2  A    between atoms: C_2  and  C_3
REMARK    3  A    between atoms: C_3  and  N_4
REMARK    4  A    between atoms: C_5  and  S_11
REMARK    5  A    between atoms: S_11  and  C_12
REMARK    6  A    between atoms: C_12  and  C_13
REMARK    7  A    between atoms: N_15  and  C_16
REMARK    8  A    between atoms: C_17  and  C_21
REMARK                            x       y       z     vdW  Elec       q    Type
REMARK                         _______ _______ _______ _____ _____    ______ ____
ROOT
ATOM      1  C   UNL     1       5.299  -3.352   1.320  0.00  0.00    +0.228 C 
ATOM      2  O   UNL     1       5.591  -2.190   1.502  0.00  0.00    -0.275 OA
ATOM      3  N   UNL     1       6.111  -4.329   1.771  0.00  0.00    -0.279 N 
ATOM      4  H   UNL     1       5.877  -5.260   1.626  0.00  0.00    +0.155 HD
ENDROOT
BRANCH   3   5
ATOM      5  C   UNL     1       7.273  -4.007   2.439  0.00  0.00    +0.076 C 
ATOM      6  C   UNL     1       8.198  -4.869   2.949  0.00  0.00    +0.042 C 
ATOM      7  C   UNL     1       9.387  -4.309   3.660  0.00  0.00    +0.054 C 
ATOM      8  C   UNL     1       9.604  -2.819   3.294  0.00  0.00    +0.080 C 
ATOM      9  S   UNL     1       7.887  -2.373   2.809  0.00  0.00    -0.109 S 
BRANCH   6  10
ATOM     10  C   UNL     1       8.035  -6.257   2.810  0.00  0.00    +0.240 C 
ATOM     11  O   UNL     1       7.061  -6.701   2.228  0.00  0.00    -0.271 OA
ATOM     12  N   UNL     1       8.957  -7.098   3.320  0.00  0.00    -0.326 N 
ATOM     13  H   UNL     1       9.732  -6.745   3.783  0.00  0.00    +0.145 HD
ATOM     14  H   UNL     1       8.845  -8.057   3.224  0.00  0.00    +0.145 HD
ENDBRANCH   6  10
ENDBRANCH   3   5
BRANCH   1  15
ATOM     15  C   UNL     1       4.028  -3.705   0.591  0.00  0.00    +0.173 C 
BRANCH  15  16
ATOM     16  S   UNL     1       3.162  -2.184   0.116  0.00  0.00    -0.077 S 
BRANCH  16  18
ATOM     17  N   UNL     1       0.738  -1.962  -1.265  0.00  0.00    -0.271 N 
ATOM     18  C   UNL     1       1.718  -2.758  -0.716  0.00  0.00    +0.192 A 
ATOM     19  H   UNL     1      -0.294  -4.834  -1.891  0.00  0.00    +0.194 HD
ATOM     20  N   UNL     1       1.401  -4.005  -0.913  0.00  0.00    -0.145 NA
ATOM     21  N   UNL     1       0.184  -4.038  -1.608  0.00  0.00    -0.226 N 
ATOM     22  C   UNL     1      -0.203  -2.761  -1.806  0.00  0.00    +0.345 A 
ATOM     23  O   UNL     1      -1.217  -2.396  -2.374  0.00  0.00    -0.245 OA
BRANCH  17  24
ATOM     24  C   UNL     1       0.718  -0.497  -1.257  0.00  0.00    +0.129 C 
BRANCH  24  26
ATOM     25  C   UNL     1      -0.019   1.526   0.010  0.00  0.00    +0.005 C 
ATOM     26  C   UNL     1       0.002  -0.004   0.002  0.00  0.00    +0.018 C 
ENDBRANCH  24  26
ENDBRANCH  17  24
ENDBRANCH  16  18
ENDBRANCH  15  16
ENDBRANCH   1  15
TORSDOF 7
