REMARK  Name = ZINC66599465
REMARK  9 active torsions:
REMARK  status: ('A' for Active; 'I' for Inactive)
REMARK    1  A    between atoms: C_1  and  C_2
REMARK    2  A    between atoms: C_2  and  C_3
REMARK    3  A    between atoms: C_3  and  C_4
REMARK    4  A    between atoms: C_4  and  N_5
REMARK    5  A    between atoms: C_10  and  C_12
REMARK    6  A    between atoms: C_12  and  N_13
REMARK    7  A    between atoms: N_16  and  C_17
REMARK    8  A    between atoms: C_17  and  C_19
REMARK    9  A    between atoms: C_17  and  C_25
REMARK                            x       y       z     vdW  Elec       q    Type
REMARK                         _______ _______ _______ _____ _____    ______ ____
ROOT
ATOM      1  N   UNL     1      -0.762  -4.013  -3.531  0.00  0.00    -0.301 N 
ATOM      2  C   UNL     1      -2.083  -4.270  -3.607  0.00  0.00    +0.300 C 
ATOM      3  O   UNL     1      -2.631  -4.903  -2.726  0.00  0.00    -0.253 OA
ATOM      4  N   UNL     1      -2.797  -3.825  -4.661  0.00  0.00    -0.284 N 
ATOM      5  H   UNL     1      -0.325  -3.508  -4.234  0.00  0.00    +0.150 HD
ATOM      6  H   UNL     1      -2.359  -3.320  -5.364  0.00  0.00    +0.151 HD
ENDROOT
BRANCH   1   7
ATOM      7  C   UNL     1       0.013  -4.497  -2.386  0.00  0.00    +0.090 C 
BRANCH   7  13
ATOM      8  N   UNL     1       1.419  -2.506  -2.604  0.00  0.00    +0.383 N 
ATOM      9  C   UNL     1       2.790  -1.982  -2.618  0.00  0.00    -0.078 C 
ATOM     10  C   UNL     1       3.530  -2.513  -3.848  0.00  0.00    -0.019 C 
ATOM     11  C   UNL     1       3.567  -4.043  -3.794  0.00  0.00    -0.003 C 
ATOM     12  C   UNL     1       2.134  -4.575  -3.705  0.00  0.00    -0.014 C 
ATOM     13  C   UNL     1       1.446  -3.968  -2.480  0.00  0.00    -0.051 C 
ATOM     14  H   UNL     1       0.955  -2.250  -3.463  0.00  0.00    -0.081 HD
BRANCH   8  15
ATOM     15  C   UNL     1       0.690  -1.933  -1.465  0.00  0.00    -0.078 C 
BRANCH  15  16
ATOM     16  C   UNL     1       0.543  -0.422  -1.661  0.00  0.00    -0.019 C 
BRANCH  16  18
ATOM     17  C   UNL     1      -0.364   1.685  -0.672  0.00  0.00    +0.004 C 
ATOM     18  C   UNL     1      -0.217   0.175  -0.475  0.00  0.00    -0.005 C 
ENDBRANCH  16  18
ENDBRANCH  15  16
ENDBRANCH   8  15
ENDBRANCH   7  13
ENDBRANCH   1   7
BRANCH   4  19
ATOM     19  C   UNL     1      -4.232  -4.104  -4.744  0.00  0.00    +0.190 C 
BRANCH  19  20
ATOM     20  C   UNL     1      -4.899  -3.057  -5.598  0.00  0.00    -0.018 A 
ATOM     21  C   UNL     1      -4.278  -2.603  -6.746  0.00  0.00    +0.006 A 
ATOM     22  C   UNL     1      -4.889  -1.642  -7.529  0.00  0.00    +0.000 A 
ATOM     23  C   UNL     1      -6.123  -1.136  -7.165  0.00  0.00    +0.000 A 
ATOM     24  C   UNL     1      -6.745  -1.591  -6.017  0.00  0.00    +0.000 A 
ATOM     25  C   UNL     1      -6.135  -2.554  -5.236  0.00  0.00    +0.006 A 
ENDBRANCH  19  20
BRANCH  19  26
ATOM     26  C   UNL     1      -4.445  -5.464  -5.358  0.00  0.00    +0.235 C 
ATOM     27  O   UNL     1      -3.491  -6.133  -5.694  0.00  0.00    -0.274 OA
ATOM     28  N   UNL     1      -5.695  -5.935  -5.535  0.00  0.00    -0.328 N 
ATOM     29  H   UNL     1      -6.458  -5.399  -5.266  0.00  0.00    +0.145 HD
ATOM     30  H   UNL     1      -5.832  -6.810  -5.930  0.00  0.00    +0.145 HD
ENDBRANCH  19  26
ENDBRANCH   4  19
TORSDOF 8
