REMARK  Name = ZINC67467615
REMARK  12 active torsions:
REMARK  status: ('A' for Active; 'I' for Inactive)
REMARK    1  A    between atoms: C_1  and  C_2
REMARK    2  A    between atoms: C_2  and  N_3
REMARK    3  A    between atoms: C_4  and  C_27
REMARK    4  A    between atoms: C_5  and  C_9
REMARK    5  A    between atoms: C_6  and  C_8
REMARK    6  A    between atoms: C_9  and  N_10
REMARK    7  A    between atoms: N_13  and  N_14
REMARK    8  A    between atoms: C_15  and  C_17
REMARK    9  A    between atoms: C_17  and  O_18
REMARK   10  A    between atoms: O_18  and  C_19
REMARK   11  A    between atoms: C_21  and  C_26
REMARK   12  A    between atoms: C_23  and  C_25
REMARK                            x       y       z     vdW  Elec       q    Type
REMARK                         _______ _______ _______ _____ _____    ______ ____
ROOT
ATOM      1  N   UNL     1      -5.307  -0.498   1.874  0.00  0.00    -0.294 N 
ATOM      2  C   UNL     1      -6.396  -0.641   2.655  0.00  0.00    +0.316 C 
ATOM      3  O   UNL     1      -6.674  -1.731   3.117  0.00  0.00    -0.251 OA
ATOM      4  N   UNL     1      -7.176   0.424   2.925  0.00  0.00    -0.218 N 
ATOM      5  H   UNL     1      -5.085   0.371   1.506  0.00  0.00    +0.151 HD
ATOM      6  H   UNL     1      -7.960   0.322   3.487  0.00  0.00    +0.174 HD
ENDROOT
BRANCH   4   7
ATOM      7  N   UNL     1      -6.855   1.680   2.393  0.00  0.00    -0.230 N 
ATOM      8  C   UNL     1      -7.636   2.745   2.663  0.00  0.00    +0.267 C 
ATOM      9  O   UNL     1      -8.616   2.617   3.366  0.00  0.00    -0.271 OA
ATOM     10  H   UNL     1      -6.072   1.783   1.831  0.00  0.00    +0.173 HD
BRANCH   8  11
ATOM     11  C   UNL     1      -7.290   4.096   2.091  0.00  0.00    +0.326 C 
BRANCH  11  12
ATOM     12  O   UNL     1      -8.260   5.056   2.516  0.00  0.00    -0.483 OA
BRANCH  12  13
ATOM     13  C   UNL     1      -8.094   6.334   2.085  0.00  0.00    +0.122 A 
ATOM     14  C   UNL     1      -7.024   6.656   1.264  0.00  0.00    +0.049 A 
ATOM     15  C   UNL     1      -6.857   7.956   0.827  0.00  0.00    -0.047 A 
ATOM     16  C   UNL     1      -7.757   8.935   1.206  0.00  0.00    +0.007 A 
ATOM     17  C   UNL     1      -8.825   8.616   2.025  0.00  0.00    -0.047 A 
ATOM     18  C   UNL     1      -8.999   7.316   2.460  0.00  0.00    +0.049 A 
ATOM     19  C   UNL     1      -9.803   9.685   2.437  0.00  0.00    +0.044 C 
ATOM     20  C   UNL     1      -5.694   8.308  -0.065  0.00  0.00    +0.044 C 
ENDBRANCH  12  13
ENDBRANCH  11  12
ENDBRANCH   8  11
ENDBRANCH   4   7
BRANCH   1  21
ATOM     21  C   UNL     1      -4.459  -1.656   1.581  0.00  0.00    +0.144 C 
BRANCH  21  24
ATOM     22  N   UNL     1      -1.372  -0.511   0.012  0.00  0.00    -0.268 N 
ATOM     23  C   UNL     1      -2.109  -0.787   1.109  0.00  0.00    +0.041 A 
ATOM     24  C   UNL     1      -3.317  -1.231   0.694  0.00  0.00    +0.013 A 
ATOM     25  C   UNL     1      -3.320  -1.227  -0.705  0.00  0.00    +0.065 A 
ATOM     26  N   UNL     1      -2.156  -0.790  -1.114  0.00  0.00    -0.176 NA
ATOM     27  C   UNL     1      -4.467  -1.647  -1.588  0.00  0.00    +0.068 C 
ATOM     28  C   UNL     1      -1.664  -0.628   2.541  0.00  0.00    +0.065 C 
BRANCH  22  30
ATOM     29  C   UNL     1      -0.019   1.526   0.010  0.00  0.00    +0.029 C 
ATOM     30  C   UNL     1       0.002  -0.004   0.002  0.00  0.00    +0.140 C 
ENDBRANCH  22  30
ENDBRANCH  21  24
ENDBRANCH   1  21
TORSDOF 7
