REMARK  Name = ZINC40901110
REMARK  7 active torsions:
REMARK  status: ('A' for Active; 'I' for Inactive)
REMARK    1  A    between atoms: C_1  and  C_2
REMARK    2  A    between atoms: C_2  and  C_3
REMARK    3  A    between atoms: C_5  and  C_8
REMARK    4  A    between atoms: C_11  and  N_15
REMARK    5  A    between atoms: C_18  and  C_21
REMARK    6  A    between atoms: C_26  and  C_29
REMARK    7  A    between atoms: C_26  and  N_32
REMARK                            x       y       z     vdW  Elec       q    Type
REMARK                         _______ _______ _______ _____ _____    ______ ____
ROOT
ATOM      1  N   UNL     1      -0.455  -2.335   9.122  0.00  0.00    -0.328 N 
ATOM      2  C   UNL     1      -1.173  -2.909  10.268  0.00  0.00    +0.106 C 
ATOM      3  C   UNL     1      -0.151  -3.337  11.325  0.00  0.00    +0.031 C 
ATOM      4  C   UNL     1       0.872  -4.281  10.688  0.00  0.00    +0.078 C 
ATOM      5  C   UNL     1       1.614  -3.549   9.567  0.00  0.00    +0.031 C 
ATOM      6  C   UNL     1       0.608  -3.125   8.486  0.00  0.00    +0.106 C 
ENDROOT
BRANCH   4   7
ATOM      7  C   UNL     1       1.859  -4.731  11.733  0.00  0.00    +0.219 C 
ATOM      8  O   UNL     1       2.932  -4.175  11.834  0.00  0.00    -0.275 OA
ATOM      9  N   UNL     1       1.551  -5.753  12.556  0.00  0.00    -0.301 N 
ATOM     10  C   UNL     1       0.303  -6.508  12.376  0.00  0.00    +0.107 C 
ATOM     11  C   UNL     1      -0.463  -6.517  13.703  0.00  0.00    +0.016 C 
ATOM     12  C   UNL     1       0.446  -7.059  14.808  0.00  0.00    +0.015 C 
ATOM     13  C   UNL     1       1.665  -6.147  14.961  0.00  0.00    +0.016 C 
ATOM     14  C   UNL     1       2.458  -6.138  13.645  0.00  0.00    +0.107 C 
BRANCH  12  15
ATOM     15  N   UNL     1      -0.296  -7.100  16.076  0.00  0.00    +0.389 N 
ATOM     16  C   UNL     1      -1.475  -7.961  15.923  0.00  0.00    -0.077 C 
ATOM     17  C   UNL     1      -2.295  -7.943  17.215  0.00  0.00    -0.019 C 
ATOM     18  C   UNL     1      -1.431  -8.458  18.369  0.00  0.00    -0.004 C 
ATOM     19  C   UNL     1      -0.168  -7.597  18.471  0.00  0.00    -0.019 C 
ATOM     20  C   UNL     1       0.573  -7.628  17.133  0.00  0.00    -0.077 C 
ATOM     21  H   UNL     1      -0.593  -6.167  16.321  0.00  0.00    -0.080 HD
ENDBRANCH  12  15
BRANCH  12  22
ATOM     22  C   UNL     1       0.900  -8.449  14.448  0.00  0.00    +0.200 C 
ATOM     23  O   UNL     1       0.319  -9.073  13.586  0.00  0.00    -0.278 OA
ATOM     24  N   UNL     1       1.954  -9.000  15.084  0.00  0.00    -0.330 N 
ATOM     25  H   UNL     1       2.374  -8.531  15.822  0.00  0.00    +0.145 HD
ATOM     26  H   UNL     1       2.291  -9.865  14.804  0.00  0.00    +0.145 HD
ENDBRANCH  12  22
ENDBRANCH   4   7
BRANCH   1  30
ATOM     27  C   UNL     1      -1.430   1.456   7.689  0.00  0.00    +0.025 A 
ATOM     28  C   UNL     1      -2.077   0.330   7.183  0.00  0.00    +0.013 A 
ATOM     29  C   UNL     1      -1.753  -0.923   7.658  0.00  0.00    +0.027 A 
ATOM     30  C   UNL     1      -0.781  -1.065   8.642  0.00  0.00    +0.065 A 
ATOM     31  C   UNL     1      -0.133   0.058   9.149  0.00  0.00    +0.145 A 
ATOM     32  C   UNL     1      -0.451   1.313   8.672  0.00  0.00    +0.052 A 
ATOM     33  F   UNL     1       0.810  -0.082  10.106  0.00  0.00    -0.204 F 
BRANCH  27  36
ATOM     34  C   UNL     1      -2.757   4.356   6.021  0.00  0.00    +0.227 A 
ATOM     35  N   UNL     1      -2.700   3.073   6.237  0.00  0.00    -0.191 NA
ATOM     36  C   UNL     1      -1.778   2.804   7.179  0.00  0.00    +0.202 A 
ATOM     37  N   UNL     1      -1.239   3.933   7.571  0.00  0.00    -0.056 NA
ATOM     38  O   UNL     1      -1.865   4.960   6.818  0.00  0.00    -0.338 OA
BRANCH  34  40
ATOM     39  C   UNL     1      -4.982   5.410   5.730  0.00  0.00    +0.014 C 
ATOM     40  C   UNL     1      -3.667   5.045   5.038  0.00  0.00    +0.095 C 
ENDBRANCH  34  40
ENDBRANCH  27  36
ENDBRANCH   1  30
TORSDOF 6
