REMARK  Name = ZINC08579006
REMARK  5 active torsions:
REMARK  status: ('A' for Active; 'I' for Inactive)
REMARK    1  A    between atoms: C_3  and  C_12
REMARK    2  A    between atoms: C_5  and  C_6
REMARK    3  A    between atoms: N_7  and  N_8
REMARK    4  A    between atoms: N_8  and  C_9
REMARK    5  A    between atoms: C_9  and  N_11
REMARK                            x       y       z     vdW  Elec       q    Type
REMARK                         _______ _______ _______ _____ _____    ______ ____
ROOT
ATOM      1  C   UNL     1      -0.017   1.373   0.010  0.00  0.00    +0.051 A 
ATOM      2  C   UNL     1       1.319   1.796  -0.001  0.00  0.00    +0.050 A 
ATOM      3  C   UNL     1       2.094   0.674  -0.014  0.00  0.00    +0.136 A 
ATOM      4  O   UNL     1       1.289  -0.406  -0.012  0.00  0.00    -0.454 OA
ATOM      5  C   UNL     1       0.002  -0.004   0.002  0.00  0.00    +0.148 A 
ENDROOT
BRANCH   3   6
ATOM      6  C   UNL     1       3.570   0.647  -0.029  0.00  0.00    +0.020 A 
ATOM      7  C   UNL     1       4.293   1.842  -0.024  0.00  0.00    +0.031 A 
ATOM      8  C   UNL     1       5.673   1.810  -0.037  0.00  0.00    +0.043 A 
ATOM      9  C   UNL     1       6.341   0.597  -0.056  0.00  0.00    +0.040 A 
ATOM     10  C   UNL     1       5.630  -0.591  -0.061  0.00  0.00    +0.043 A 
ATOM     11  C   UNL     1       4.249  -0.573  -0.042  0.00  0.00    +0.031 A 
ATOM     12 CL   UNL     1       6.476  -2.107  -0.085  0.00  0.00    -0.083 Cl
ATOM     13 CL   UNL     1       6.574   3.295  -0.032  0.00  0.00    -0.083 Cl
ENDBRANCH   3   6
BRANCH   5  14
ATOM     14  C   UNL     1      -1.172  -0.880   0.009  0.00  0.00    +0.176 C 
ATOM     15  N   UNL     1      -1.019  -2.172   0.001  0.00  0.00    -0.185 NA
BRANCH  15  16
ATOM     16  N   UNL     1      -2.142  -3.010   0.008  0.00  0.00    -0.218 N 
ATOM     17  H   UNL     1      -3.033  -2.627   0.019  0.00  0.00    +0.176 HD
BRANCH  16  18
ATOM     18  C   UNL     1      -1.984  -4.349  -0.001  0.00  0.00    +0.147 C 
ATOM     19  S   UNL     1      -3.357  -5.372   0.007  0.00  0.00    -0.017 S 
BRANCH  18  20
ATOM     20  N   UNL     1      -0.747  -4.881  -0.017  0.00  0.00    -0.339 N 
ATOM     21  H   UNL     1       0.031  -4.301  -0.021  0.00  0.00    +0.144 HD
ATOM     22  H   UNL     1      -0.633  -5.845  -0.023  0.00  0.00    +0.144 HD
ENDBRANCH  18  20
ENDBRANCH  16  18
ENDBRANCH  15  16
ENDBRANCH   5  14
TORSDOF 5
