REMARK  Name = ZINC05478046
REMARK  4 active torsions:
REMARK  status: ('A' for Active; 'I' for Inactive)
REMARK    1  A    between atoms: C_4  and  O_27
REMARK    2  A    between atoms: C_5  and  N_7
REMARK    3  A    between atoms: C_21  and  O_26
REMARK    4  A    between atoms: C_23  and  O_25
REMARK                            x       y       z     vdW  Elec       q    Type
REMARK                         _______ _______ _______ _____ _____    ______ ____
ROOT
ATOM      1  N   UNL     1      -0.079   5.249   0.029  0.00  0.00    -0.206 N 
ATOM      2  C   UNL     1      -0.081   6.009   1.185  0.00  0.00    +0.230 C 
ATOM      3  O   UNL     1       0.196   5.674   2.316  0.00  0.00    -0.274 OA
ATOM      4  C   UNL     1      -0.495   7.299   0.702  0.00  0.00    +0.094 C 
ATOM      5  C   UNL     1      -0.840   8.689   1.118  0.00  0.00    +0.033 C 
ATOM      6  C   UNL     1      -0.102   9.581   0.030  0.00  0.00    +0.013 C 
ATOM      7  C   UNL     1      -0.443   8.635  -1.194  0.00  0.00    +0.033 C 
ATOM      8  C   UNL     1       0.288   7.400  -0.666  0.00  0.00    +0.094 C 
ATOM      9  C   UNL     1      -0.097   6.014  -1.109  0.00  0.00    +0.230 C 
ATOM     10  O   UNL     1      -0.367   5.652  -2.234  0.00  0.00    -0.274 OA
ATOM     11  C   UNL     1      -1.969   8.532  -1.036  0.00  0.00    +0.147 C 
ATOM     12  C   UNL     1      -2.282   8.792   0.463  0.00  0.00    +0.147 C 
ENDROOT
BRANCH   1  17
ATOM     13  C   UNL     1      -1.220   1.749   0.017  0.00  0.00    +0.002 A 
ATOM     14  C   UNL     1      -0.013   1.076   0.008  0.00  0.00    +0.004 A 
ATOM     15  C   UNL     1       1.176   1.781   0.000  0.00  0.00    +0.047 A 
ATOM     16  C   UNL     1       1.159   3.167   0.007  0.00  0.00    +0.139 A 
ATOM     17  C   UNL     1      -0.057   3.845   0.022  0.00  0.00    +0.085 A 
ATOM     18  C   UNL     1      -1.245   3.131   0.030  0.00  0.00    +0.027 A 
BRANCH  16  19
ATOM     19  O   UNL     1       2.328   3.862  -0.000  0.00  0.00    -0.505 OA
ATOM     20  H   UNL     1       2.658   4.068  -0.886  0.00  0.00    +0.292 HD
ENDBRANCH  16  19
ENDBRANCH   1  17
BRANCH  12  21
ATOM     21  O   UNL     1      -3.154   7.788   0.985  0.00  0.00    -0.389 OA
ATOM     22  H   UNL     1      -4.047   7.812   0.615  0.00  0.00    +0.210 HD
ENDBRANCH  12  21
BRANCH  11  23
ATOM     23  O   UNL     1      -2.612   9.517  -1.848  0.00  0.00    -0.389 OA
ATOM     24  H   UNL     1      -3.578   9.503  -1.792  0.00  0.00    +0.210 HD
ENDBRANCH  11  23
TORSDOF 4
