REMARK  Name = ZINC39523056
REMARK  5 active torsions:
REMARK  status: ('A' for Active; 'I' for Inactive)
REMARK    1  A    between atoms: C_1  and  S_2
REMARK    2  A    between atoms: S_2  and  C_3
REMARK    3  A    between atoms: N_9  and  O_10
REMARK    4  A    between atoms: C_14  and  C_17
REMARK    5  A    between atoms: C_22  and  O_23
REMARK                            x       y       z     vdW  Elec       q    Type
REMARK                         _______ _______ _______ _____ _____    ______ ____
ROOT
ATOM      1  C   UNL     1      -1.752  -0.467   0.016  0.00  0.00    +0.141 C 
ATOM      2  C   UNL     1      -2.327  -0.243   1.417  0.00  0.00    +0.032 C 
ATOM      3  C   UNL     1      -3.802  -0.653   1.429  0.00  0.00    +0.004 C 
ATOM      4  C   UNL     1      -3.919  -2.118   0.998  0.00  0.00    +0.025 C 
ATOM      5  C   UNL     1      -3.298  -2.288  -0.390  0.00  0.00    +0.049 C 
ATOM      6  N   UNL     1      -1.887  -1.883  -0.349  0.00  0.00    -0.172 NA
ATOM      7  C   UNL     1      -3.395  -3.755  -0.814  0.00  0.00    +0.025 C 
ATOM      8  C   UNL     1      -4.865  -4.178  -0.854  0.00  0.00    +0.002 C 
ATOM      9  C   UNL     1      -5.619  -3.306  -1.859  0.00  0.00    +0.008 C 
ATOM     10  C   UNL     1      -5.522  -1.839  -1.436  0.00  0.00    +0.024 C 
ATOM     11  C   UNL     1      -4.052  -1.416  -1.396  0.00  0.00    +0.033 C 
ENDROOT
BRANCH  10  12
ATOM     12  C   UNL     1      -6.264  -0.980  -2.427  0.00  0.00    -0.003 A 
ATOM     13  C   UNL     1      -5.888  -0.975  -3.756  0.00  0.00    +0.007 A 
ATOM     14  C   UNL     1      -6.568  -0.187  -4.665  0.00  0.00    +0.001 A 
ATOM     15  C   UNL     1      -7.628   0.598  -4.247  0.00  0.00    +0.004 A 
ATOM     16  C   UNL     1      -8.009   0.595  -2.920  0.00  0.00    +0.046 A 
ATOM     17  C   UNL     1      -7.331  -0.199  -2.006  0.00  0.00    +0.120 A 
BRANCH  17  18
ATOM     18  O   UNL     1      -7.707  -0.207  -0.700  0.00  0.00    -0.506 OA
ATOM     19  H   UNL     1      -7.262   0.458  -0.158  0.00  0.00    +0.292 HD
ENDBRANCH  17  18
ENDBRANCH  10  12
BRANCH   1  21
ATOM     20  C   UNL     1      -0.022   1.810   0.012  0.00  0.00    +0.086 C 
ATOM     21  S   UNL     1       0.002  -0.004   0.002  0.00  0.00    -0.143 S 
ENDBRANCH   1  21
BRANCH   6  22
ATOM     22  O   UNL     1      -1.225  -2.161  -1.623  0.00  0.00    -0.311 OA
ATOM     23  H   UNL     1      -0.290  -1.914  -1.643  0.00  0.00    +0.237 HD
ENDBRANCH   6  22
TORSDOF 4
