REMARK  Name = ZINC55678860
REMARK  5 active torsions:
REMARK  status: ('A' for Active; 'I' for Inactive)
REMARK    1  A    between atoms: C_3  and  S_8
REMARK    2  A    between atoms: S_8  and  N_11
REMARK    3  A    between atoms: N_11  and  C_12
REMARK    4  A    between atoms: C_16  and  S_18
REMARK    5  A    between atoms: S_18  and  N_21
REMARK                            x       y       z     vdW  Elec       q    Type
REMARK                         _______ _______ _______ _____ _____    ______ ____
ROOT
ATOM      1  C   UNL     1       5.499   3.253   1.859  0.00  0.00    +0.079 A 
ATOM      2  C   UNL     1       6.297   3.748   0.836  0.00  0.00    +0.065 A 
ATOM      3  C   UNL     1       7.457   4.437   1.139  0.00  0.00    +0.127 A 
ATOM      4  C   UNL     1       7.822   4.634   2.461  0.00  0.00    +0.067 A 
ATOM      5  C   UNL     1       7.028   4.142   3.479  0.00  0.00    +0.110 A 
ATOM      6  C   UNL     1       5.865   3.457   3.183  0.00  0.00    +0.055 A 
ATOM      7  F   UNL     1       8.236   4.919   0.145  0.00  0.00    -0.205 F 
ENDROOT
BRANCH   5   8
ATOM      8  S   UNL     1       7.496   4.393   5.159  0.00  0.00    +0.056 S 
ATOM      9  O   UNL     1       6.871   3.365   5.914  0.00  0.00    -0.153 OA
ATOM     10  O   UNL     1       8.903   4.593   5.163  0.00  0.00    -0.153 OA
BRANCH   8  11
ATOM     11  N   UNL     1       6.814   5.821   5.649  0.00  0.00    -0.204 NA
ATOM     12  H   UNL     1       6.274   6.337   5.031  0.00  0.00    +0.144 HD
ATOM     13  H   UNL     1       6.956   6.140   6.554  0.00  0.00    +0.144 HD
ENDBRANCH   8  11
ENDBRANCH   5   8
BRANCH   1  14
ATOM     14  N   UNL     1       4.326   2.557   1.557  0.00  0.00    -0.098 NA
BRANCH  14  15
ATOM     15  S   UNL     1       3.891   2.314  -0.023  0.00  0.00    +0.092 S 
ATOM     16  O   UNL     1       4.872   1.456  -0.587  0.00  0.00    -0.148 OA
ATOM     17  O   UNL     1       3.596   3.595  -0.564  0.00  0.00    -0.148 OA
BRANCH  15  20
ATOM     18  C   UNL     1      -0.017   1.378   0.010  0.00  0.00    +0.003 A 
ATOM     19  C   UNL     1       1.171   2.086   0.002  0.00  0.00    +0.029 A 
ATOM     20  C   UNL     1       2.378   1.412  -0.013  0.00  0.00    +0.112 A 
ATOM     21  C   UNL     1       2.398   0.029  -0.021  0.00  0.00    +0.048 A 
ATOM     22  C   UNL     1       1.210  -0.679  -0.013  0.00  0.00    +0.043 A 
ATOM     23  C   UNL     1       0.002  -0.004   0.002  0.00  0.00    +0.020 A 
ATOM     24 CL   UNL     1       1.234  -2.415  -0.024  0.00  0.00    -0.083 Cl
ENDBRANCH  15  20
ENDBRANCH  14  15
ENDBRANCH   1  14
TORSDOF 5
