REMARK  Name = ZINC40061461
REMARK  7 active torsions:
REMARK  status: ('A' for Active; 'I' for Inactive)
REMARK    1  A    between atoms: C_7  and  C_10
REMARK    2  A    between atoms: C_13  and  S_23
REMARK    3  A    between atoms: N_15  and  C_16
REMARK    4  A    between atoms: C_16  and  C_17
REMARK    5  A    between atoms: S_23  and  C_24
REMARK    6  A    between atoms: C_24  and  C_25
REMARK    7  A    between atoms: N_27  and  C_28
REMARK                            x       y       z     vdW  Elec       q    Type
REMARK                         _______ _______ _______ _____ _____    ______ ____
ROOT
ATOM      1  C   UNL     1       0.531  -3.080  -0.036  0.00  0.00    +0.147 C 
ATOM      2  N   UNL     1      -0.765  -3.071   0.128  0.00  0.00    -0.169 NA
ATOM      3  N   UNL     1      -1.288  -4.370   0.124  0.00  0.00    -0.237 N 
ATOM      4  C   UNL     1      -0.146  -5.279  -0.070  0.00  0.00    +0.237 C 
ATOM      5  N   UNL     1       1.018  -4.383  -0.175  0.00  0.00    -0.283 N 
ATOM      6  H   UNL     1      -2.219  -4.621   0.228  0.00  0.00    +0.171 HD
ENDROOT
BRANCH   1  13
ATOM      7  C   UNL     1      -0.418   1.300   0.670  0.00  0.00    +0.001 A 
ATOM      8  C   UNL     1       0.688   2.141   0.530  0.00  0.00    +0.002 A 
ATOM      9  C   UNL     1       1.916   1.661   0.212  0.00  0.00    +0.026 A 
ATOM     10  C   UNL     1       2.099   0.268   0.013  0.00  0.00    +0.043 A 
ATOM     11  N   UNL     1       3.171  -0.435  -0.297  0.00  0.00    -0.380 N 
ATOM     12  C   UNL     1       2.811  -1.853  -0.383  0.00  0.00    +0.152 C 
ATOM     13  C   UNL     1       1.332  -1.929  -0.075  0.00  0.00    +0.022 C 
ATOM     14  C   UNL     1       0.930  -0.614   0.162  0.00  0.00    +0.006 A 
ATOM     15  C   UNL     1      -0.317  -0.043   0.494  0.00  0.00    +0.010 A 
ATOM     16  H   UNL     1       4.058  -0.070  -0.446  0.00  0.00    +0.160 HD
ENDBRANCH   1  13
BRANCH   5  17
ATOM     17  C   UNL     1       2.413  -4.780  -0.381  0.00  0.00    +0.140 C 
BRANCH  17  18
ATOM     18  C   UNL     1       3.045  -5.140   0.965  0.00  0.00    +0.136 C 
ATOM     19  C   UNL     1       4.550  -5.461   0.784  0.00  0.00    +0.035 C 
ATOM     20  C   UNL     1       5.090  -5.151   2.207  0.00  0.00    +0.031 C 
ATOM     21  C   UNL     1       4.197  -3.972   2.647  0.00  0.00    +0.160 C 
ATOM     22  O   UNL     1       3.004  -4.011   1.853  0.00  0.00    -0.375 OA
ENDBRANCH  17  18
ENDBRANCH   5  17
BRANCH   4  23
ATOM     23  S   UNL     1      -0.348  -6.234  -1.599  0.00  0.00    -0.109 S 
BRANCH  23  24
ATOM     24  C   UNL     1      -0.471  -4.969  -2.893  0.00  0.00    +0.168 C 
BRANCH  24  25
ATOM     25  C   UNL     1      -0.644  -5.636  -4.234  0.00  0.00    +0.227 C 
ATOM     26  O   UNL     1      -0.680  -6.846  -4.308  0.00  0.00    -0.275 OA
ATOM     27  N   UNL     1      -0.759  -4.888  -5.349  0.00  0.00    -0.285 N 
ATOM     28  H   UNL     1      -0.796  -3.921  -5.283  0.00  0.00    +0.155 HD
BRANCH  27  29
ATOM     29  C   UNL     1      -0.823  -5.508  -6.604  0.00  0.00    +0.037 A 
ATOM     30  C   UNL     1      -0.217  -4.914  -7.703  0.00  0.00    +0.027 A 
ATOM     31  C   UNL     1      -0.281  -5.524  -8.941  0.00  0.00    +0.051 A 
ATOM     32  C   UNL     1      -0.949  -6.731  -9.090  0.00  0.00    +0.162 A 
ATOM     33  C   UNL     1      -1.555  -7.328  -7.991  0.00  0.00    +0.164 A 
ATOM     34  C   UNL     1      -1.488  -6.717  -6.748  0.00  0.00    +0.072 A 
ATOM     35  O   UNL     1      -2.209  -8.515  -8.116  0.00  0.00    -0.485 OA
ATOM     36  C   UNL     1      -2.571  -8.915  -9.442  0.00  0.00    +0.270 C 
ATOM     37  C   UNL     1      -1.357  -8.702 -10.356  0.00  0.00    +0.270 C 
ATOM     38  O   UNL     1      -1.005  -7.315 -10.319  0.00  0.00    -0.485 OA
ENDBRANCH  27  29
ENDBRANCH  24  25
ENDBRANCH  23  24
ENDBRANCH   4  23
TORSDOF 7
