REMARK  Name = ZINC21002833
REMARK  6 active torsions:
REMARK  status: ('A' for Active; 'I' for Inactive)
REMARK    1  A    between atoms: C_1  and  C_2
REMARK    2  A    between atoms: C_7  and  C_8
REMARK    3  A    between atoms: N_10  and  C_11
REMARK    4  A    between atoms: C_14  and  N_18
REMARK    5  A    between atoms: C_16  and  O_17
REMARK    6  A    between atoms: C_19  and  C_21
REMARK                            x       y       z     vdW  Elec       q    Type
REMARK                         _______ _______ _______ _____ _____    ______ ____
ROOT
ATOM      1  C   UNL     1       3.607   8.764  -1.225  0.00  0.00    +0.076 A 
ATOM      2  C   UNL     1       4.281   7.552  -1.274  0.00  0.00    +0.029 A 
ATOM      3  C   UNL     1       3.577   6.376  -1.446  0.00  0.00    +0.025 A 
ATOM      4  C   UNL     1       2.195   6.405  -1.583  0.00  0.00    +0.037 A 
ATOM      5  C   UNL     1       1.517   7.615  -1.535  0.00  0.00    +0.070 A 
ATOM      6  C   UNL     1       2.220   8.795  -1.356  0.00  0.00    +0.140 A 
ENDROOT
BRANCH   1   9
ATOM      7  C   UNL     1       5.538   9.933  -0.466  0.00  0.00    +0.249 C 
ATOM      8  O   UNL     1       5.968   8.896   0.002  0.00  0.00    -0.270 OA
ATOM      9  N   UNL     1       4.321   9.957  -1.045  0.00  0.00    -0.279 N 
ATOM     10  H   UNL     1       3.888  10.912  -1.375  0.00  0.00    +0.155 HD
BRANCH   7  17
ATOM     11  C   UNL     1       8.194   9.839   0.679  0.00  0.00    +0.044 C 
ATOM     12  C   UNL     1       7.633  11.133   0.149  0.00  0.00    -0.038 A 
ATOM     13  C   UNL     1       8.385  12.288   0.206  0.00  0.00    +0.004 A 
ATOM     14  C   UNL     1       7.872  13.477  -0.280  0.00  0.00    +0.000 A 
ATOM     15  C   UNL     1       6.602  13.516  -0.828  0.00  0.00    +0.001 A 
ATOM     16  C   UNL     1       5.841  12.368  -0.896  0.00  0.00    +0.013 A 
ATOM     17  C   UNL     1       6.350  11.166  -0.402  0.00  0.00    +0.040 A 
ENDBRANCH   7  17
ENDBRANCH   1   9
BRANCH   4  18
ATOM     18  N   UNL     1       1.486   5.212  -1.764  0.00  0.00    -0.279 N 
ATOM     19  C   UNL     1       0.395   5.190  -2.555  0.00  0.00    +0.284 C 
ATOM     20  O   UNL     1      -0.021   6.223  -3.047  0.00  0.00    -0.266 OA
ATOM     21  H   UNL     1       1.818   4.292  -1.260  0.00  0.00    +0.155 HD
BRANCH  19  22
ATOM     22  C   UNL     1      -0.291   3.923  -2.822  0.00  0.00    +0.191 A 
ATOM     23  C   UNL     1      -1.401   3.760  -3.602  0.00  0.00    +0.056 A 
ATOM     24  C   UNL     1      -1.714   2.393  -3.579  0.00  0.00    +0.058 A 
ATOM     25  C   UNL     1      -0.795   1.788  -2.791  0.00  0.00    +0.171 A 
ATOM     26  O   UNL     1       0.063   2.713  -2.342  0.00  0.00    -0.444 OA
ATOM     27 BR   UNL     1      -0.731  -0.060  -2.393  0.00  0.00    -0.008 Br
ENDBRANCH  19  22
ENDBRANCH   4  18
BRANCH   6  28
ATOM     28  O   UNL     1       1.558   9.982  -1.309  0.00  0.00    -0.505 OA
ATOM     29  H   UNL     1       0.463  10.005  -1.413  0.00  0.00    +0.292 HD
ENDBRANCH   6  28
TORSDOF 5
