REMARK  Name = ZINC48560789
REMARK  7 active torsions:
REMARK  status: ('A' for Active; 'I' for Inactive)
REMARK    1  A    between atoms: C_1  and  C_2
REMARK    2  A    between atoms: C_7  and  S_18
REMARK    3  A    between atoms: N_11  and  C_12
REMARK    4  A    between atoms: C_12  and  C_13
REMARK    5  A    between atoms: C_13  and  S_14
REMARK    6  A    between atoms: S_14  and  C_17
REMARK    7  A    between atoms: S_18  and  N_21
REMARK                            x       y       z     vdW  Elec       q    Type
REMARK                         _______ _______ _______ _____ _____    ______ ____
ROOT
ATOM      1  C   UNL     1      -0.019   1.526   0.010  0.00  0.00    +0.028 C 
ATOM      2  C   UNL     1       0.002  -0.004   0.002  0.00  0.00    +0.075 C 
ATOM      3  C   UNL     1      -1.430  -0.557   0.082  0.00  0.00    +0.059 C 
ATOM      4  C   UNL     1      -1.455  -1.361   1.363  0.00  0.00    -0.023 A 
ATOM      5  C   UNL     1      -2.470  -2.086   1.958  0.00  0.00    +0.034 A 
ATOM      6  C   UNL     1      -2.244  -2.746   3.152  0.00  0.00    +0.105 A 
ATOM      7  C   UNL     1      -0.999  -2.679   3.750  0.00  0.00    +0.030 A 
ATOM      8  C   UNL     1       0.017  -1.957   3.160  0.00  0.00    +0.025 A 
ATOM      9  C   UNL     1      -0.204  -1.287   1.954  0.00  0.00    +0.033 A 
ATOM     10  N   UNL     1       0.679  -0.510   1.199  0.00  0.00    -0.325 N 
ENDROOT
BRANCH   6  11
ATOM     11  S   UNL     1      -3.539  -3.670   3.909  0.00  0.00    +0.056 S 
ATOM     12  O   UNL     1      -3.229  -3.743   5.294  0.00  0.00    -0.153 OA
ATOM     13  O   UNL     1      -4.761  -3.125   3.430  0.00  0.00    -0.153 OA
BRANCH  11  14
ATOM     14  N   UNL     1      -3.447  -5.215   3.321  0.00  0.00    -0.204 NA
ATOM     15  H   UNL     1      -2.759  -5.449   2.679  0.00  0.00    +0.144 HD
ATOM     16  H   UNL     1      -4.081  -5.886   3.620  0.00  0.00    +0.144 HD
ENDBRANCH  11  14
ENDBRANCH   6  11
BRANCH  10  17
ATOM     17  C   UNL     1       2.075  -0.239   1.552  0.00  0.00    +0.128 C 
BRANCH  17  18
ATOM     18  C   UNL     1       2.149   1.029   2.403  0.00  0.00    +0.184 C 
BRANCH  18  19
ATOM     19  S   UNL     1       3.878   1.364   2.840  0.00  0.00    -0.032 S 
ATOM     20  O   UNL     1       4.341   0.315   3.679  0.00  0.00    -0.175 OA
ATOM     21  O   UNL     1       4.592   1.663   1.648  0.00  0.00    -0.175 OA
ATOM     22  C   UNL     1       3.755   2.879   3.830  0.00  0.00    +0.194 C 
ENDBRANCH  18  19
ENDBRANCH  17  18
ENDBRANCH  10  17
TORSDOF 5
