REMARK  Name = ZINC61951975
REMARK  5 active torsions:
REMARK  status: ('A' for Active; 'I' for Inactive)
REMARK    1  A    between atoms: C_1  and  N_2
REMARK    2  A    between atoms: N_2  and  C_3
REMARK    3  A    between atoms: C_6  and  C_9
REMARK    4  A    between atoms: N_10  and  O_11
REMARK    5  A    between atoms: C_13  and  C_15
REMARK                            x       y       z     vdW  Elec       q    Type
REMARK                         _______ _______ _______ _____ _____    ______ ____
ROOT
ATOM      1  C   UNL     1      -0.100  -0.745   1.180  0.00  0.00    +0.036 A 
ATOM      2  C   UNL     1       0.291  -2.078   1.119  0.00  0.00    +0.024 A 
ATOM      3  C   UNL     1       0.436  -2.809   2.278  0.00  0.00    +0.013 A 
ATOM      4  C   UNL     1       0.189  -2.210   3.514  0.00  0.00    +0.018 A 
ATOM      5  C   UNL     1      -0.204  -0.872   3.573  0.00  0.00    +0.013 A 
ATOM      6  C   UNL     1      -0.341  -0.144   2.411  0.00  0.00    +0.024 A 
ENDROOT
BRANCH   4   7
ATOM      7  C   UNL     1       0.343  -2.992   4.760  0.00  0.00    +0.162 C 
ATOM      8  N   UNL     1       0.709  -4.239   4.705  0.00  0.00    -0.072 NA
ATOM      9  N   UNL     1       0.098  -2.397   5.986  0.00  0.00    -0.340 N 
ATOM     10  H   UNL     1      -0.175  -1.466   6.028  0.00  0.00    +0.144 HD
ATOM     11  H   UNL     1       0.199  -2.909   6.803  0.00  0.00    +0.144 HD
BRANCH   8  12
ATOM     12  O   UNL     1       0.857  -4.988   5.897  0.00  0.00    -0.408 OA
ATOM     13  H   UNL     1       1.131  -5.904   5.755  0.00  0.00    +0.328 HD
ENDBRANCH   8  12
ENDBRANCH   4   7
BRANCH   1  15
ATOM     14  C   UNL     1      -0.404   1.448   0.068  0.00  0.00    +0.138 C 
ATOM     15  N   UNL     1      -0.246  -0.007   0.004  0.00  0.00    -0.270 N 
ATOM     16  C   UNL     1      -0.242  -0.633  -1.189  0.00  0.00    +0.257 C 
ATOM     17  O   UNL     1      -0.221  -1.849  -1.238  0.00  0.00    -0.269 OA
BRANCH  16  18
ATOM     18  C   UNL     1      -0.262   0.149  -2.427  0.00  0.00    +0.075 A 
ATOM     19  C   UNL     1      -0.396  -0.289  -3.736  0.00  0.00    +0.022 A 
ATOM     20  C   UNL     1      -0.378   0.692  -4.698  0.00  0.00    +0.024 A 
ATOM     21  C   UNL     1      -0.236   1.987  -4.317  0.00  0.00    +0.056 A 
ATOM     22  S   UNL     1      -0.129   1.914  -2.642  0.00  0.00    -0.077 S 
ATOM     23 BR   UNL     1      -0.178   3.522  -5.420  0.00  0.00    -0.043 Br
ENDBRANCH  16  18
ENDBRANCH   1  15
TORSDOF 4
