REMARK  Name = ZINC05727822
REMARK  7 active torsions:
REMARK  status: ('A' for Active; 'I' for Inactive)
REMARK    1  A    between atoms: C_1  and  C_2
REMARK    2  A    between atoms: C_14  and  C_20
REMARK    3  A    between atoms: C_16  and  C_18
REMARK    4  A    between atoms: C_16  and  C_19
REMARK    5  A    between atoms: C_20  and  C_22
REMARK    6  A    between atoms: C_22  and  O_23
REMARK    7  A    between atoms: C_33  and  C_34
REMARK                            x       y       z     vdW  Elec       q    Type
REMARK                         _______ _______ _______ _____ _____    ______ ____
ROOT
ATOM      1  C   UNL     1      -0.132   1.766  -0.091  0.00  0.00    +0.015 C 
ATOM      2  C   UNL     1      -0.159   0.242  -0.034  0.00  0.00    +0.010 C 
ATOM      3  C   UNL     1      -1.572  -0.240  -0.182  0.00  0.00    +0.010 C 
ATOM      4  C   UNL     1      -2.308  -0.228   1.167  0.00  0.00    +0.005 C 
ATOM      5  C   UNL     1      -1.680   0.746   2.161  0.00  0.00    +0.006 C 
ATOM      6  C   UNL     1      -0.255   0.352   2.527  0.00  0.00    +0.000 C 
ATOM      7  C   UNL     1       0.419  -0.258   1.314  0.00  0.00    +0.004 C 
ATOM      8  C   UNL     1       1.940   0.029   1.147  0.00  0.00    +0.039 C 
ATOM      9  C   UNL     1       2.104  -0.690  -0.197  0.00  0.00    +0.162 C 
ATOM     10  C   UNL     1       0.884  -0.120  -1.011  0.00  0.00    +0.164 C 
ATOM     11  O   UNL     1       1.049  -0.669  -2.255  0.00  0.00    -0.332 OA
ATOM     12  C   UNL     1       2.492  -0.878  -2.377  0.00  0.00    +0.166 C 
ATOM     13  O   UNL     1       3.107  -0.384  -1.146  0.00  0.00    -0.343 OA
ATOM     14  C   UNL     1       3.056  -0.138  -3.589  0.00  0.00    +0.074 C 
ATOM     15  C   UNL     1       2.787  -2.374  -2.528  0.00  0.00    +0.074 C 
ATOM     16  C   UNL     1      -0.218  -0.770   3.579  0.00  0.00    +0.045 C 
ATOM     17  C   UNL     1      -0.995  -0.405   4.836  0.00  0.00    +0.193 C 
ATOM     18  C   UNL     1      -2.417  -0.101   4.402  0.00  0.00    -0.023 C 
ATOM     19  C   UNL     1      -3.416  -0.777   4.950  0.00  0.00    +0.053 C 
ATOM     20  C   UNL     1      -4.805  -0.526   4.528  0.00  0.00    +0.179 C 
ATOM     21  O   UNL     1      -5.738  -1.070   5.089  0.00  0.00    -0.288 OA
ATOM     22  C   UNL     1      -5.028   0.394   3.401  0.00  0.00    +0.047 C 
ATOM     23  C   UNL     1      -4.015   1.059   2.880  0.00  0.00    -0.012 C 
ATOM     24  C   UNL     1      -2.597   0.974   3.372  0.00  0.00    +0.013 C 
ATOM     25  C   UNL     1      -2.234   2.328   4.004  0.00  0.00    +0.020 C 
ATOM     26  F   UNL     1      -0.993  -1.486   5.727  0.00  0.00    -0.241 F 
ENDROOT
BRANCH  10  27
ATOM     27  C   UNL     1       1.332   1.292  -1.310  0.00  0.00    +0.193 C 
ATOM     28  O   UNL     1       2.107   1.849  -0.570  0.00  0.00    -0.292 OA
BRANCH  27  29
ATOM     29  C   UNL     1       0.811   2.005  -2.531  0.00  0.00    +0.233 C 
BRANCH  29  30
ATOM     30  O   UNL     1       1.242   3.367  -2.506  0.00  0.00    -0.387 OA
ATOM     31  H   UNL     1       0.943   3.888  -3.264  0.00  0.00    +0.210 HD
ENDBRANCH  29  30
ENDBRANCH  27  29
ENDBRANCH  10  27
TORSDOF 3
