REMARK  Name = ZINC49397355
REMARK  6 active torsions:
REMARK  status: ('A' for Active; 'I' for Inactive)
REMARK    1  A    between atoms: C_1  and  C_2
REMARK    2  A    between atoms: C_2  and  C_4
REMARK    3  A    between atoms: C_2  and  N_11
REMARK    4  A    between atoms: N_14  and  C_15
REMARK    5  A    between atoms: C_15  and  C_16
REMARK    6  A    between atoms: N_18  and  C_19
REMARK                            x       y       z     vdW  Elec       q    Type
REMARK                         _______ _______ _______ _____ _____    ______ ____
ROOT
ATOM      1  N   UNL     1       0.711  -0.489   1.189  0.00  0.00    -0.293 N 
ATOM      2  C   UNL     1       0.051  -0.633   2.355  0.00  0.00    +0.300 C 
ATOM      3  O   UNL     1      -1.132  -0.361   2.423  0.00  0.00    -0.253 OA
ATOM      4  N   UNL     1       0.703  -1.080   3.447  0.00  0.00    -0.291 N 
ATOM      5  H   UNL     1       1.654  -0.707   1.135  0.00  0.00    +0.151 HD
ATOM      6  H   UNL     1       1.647  -1.298   3.394  0.00  0.00    +0.151 HD
ENDROOT
BRANCH   1   8
ATOM      7  C   UNL     1      -0.019   1.526   0.010  0.00  0.00    +0.033 C 
ATOM      8  C   UNL     1       0.002  -0.004   0.002  0.00  0.00    +0.102 C 
BRANCH   8   9
ATOM      9  C   UNL     1       0.707  -0.490  -1.238  0.00  0.00    -0.027 A 
ATOM     10  C   UNL     1       2.089  -0.511  -1.284  0.00  0.00    +0.006 A 
ATOM     11  C   UNL     1       2.736  -0.957  -2.421  0.00  0.00    +0.015 A 
ATOM     12  C   UNL     1       2.002  -1.383  -3.512  0.00  0.00    +0.018 A 
ATOM     13  C   UNL     1       0.619  -1.362  -3.466  0.00  0.00    +0.015 A 
ATOM     14  C   UNL     1      -0.027  -0.920  -2.327  0.00  0.00    +0.006 A 
ATOM     15 BR   UNL     1       2.887  -1.992  -5.068  0.00  0.00    -0.050 Br
ENDBRANCH   8   9
ENDBRANCH   1   8
BRANCH   4  16
ATOM     16  C   UNL     1      -0.014  -1.237   4.715  0.00  0.00    +0.201 C 
BRANCH  16  17
ATOM     17  C   UNL     1       0.935  -1.746   5.769  0.00  0.00    +0.230 C 
ATOM     18  O   UNL     1       2.096  -1.958   5.489  0.00  0.00    -0.274 OA
ATOM     19  N   UNL     1       0.494  -1.967   7.024  0.00  0.00    -0.317 N 
ATOM     20  C   UNL     1       1.417  -2.462   8.048  0.00  0.00    +0.128 C 
ATOM     21  H   UNL     1      -0.434  -1.798   7.248  0.00  0.00    +0.148 HD
ENDBRANCH  16  17
ENDBRANCH   4  16
TORSDOF 4
