REMARK  Name = ZINC40668485
REMARK  4 active torsions:
REMARK  status: ('A' for Active; 'I' for Inactive)
REMARK    1  A    between atoms: C_5  and  N_7
REMARK    2  A    between atoms: C_8  and  C_10
REMARK    3  A    between atoms: C_10  and  C_12
REMARK    4  A    between atoms: C_10  and  C_19
REMARK                            x       y       z     vdW  Elec       q    Type
REMARK                         _______ _______ _______ _____ _____    ______ ____
ROOT
ATOM      1  N   UNL     1       1.230  -2.087  -0.022  0.00  0.00    -0.282 N 
ATOM      2  C   UNL     1       0.077  -2.776   0.088  0.00  0.00    +0.225 C 
ATOM      3  O   UNL     1      -0.983  -2.187   0.102  0.00  0.00    -0.275 OA
ATOM      4  H   UNL     1       2.071  -2.561  -0.114  0.00  0.00    +0.155 HD
ENDROOT
BRANCH   1   9
ATOM      5  C   UNL     1       0.154   1.372   0.639  0.00  0.00    +0.004 A 
ATOM      6  C   UNL     1       1.173   2.091   0.040  0.00  0.00    +0.027 A 
ATOM      7  C   UNL     1       2.216   1.424  -0.583  0.00  0.00    +0.078 A 
ATOM      8  C   UNL     1       2.239   0.032  -0.606  0.00  0.00    +0.163 A 
ATOM      9  C   UNL     1       1.213  -0.686  -0.002  0.00  0.00    +0.077 A 
ATOM     10  C   UNL     1       0.172  -0.010   0.620  0.00  0.00    +0.027 A 
ATOM     11  O   UNL     1       3.267  -0.612  -1.222  0.00  0.00    -0.479 OA
ATOM     12  C   UNL     1       3.838   0.035  -2.362  0.00  0.00    +0.325 C 
ATOM     13  C   UNL     1       4.078   1.490  -2.051  0.00  0.00    +0.255 C 
ATOM     14  O   UNL     1       5.004   2.079  -2.569  0.00  0.00    -0.272 OA
ATOM     15  N   UNL     1       3.258   2.136  -1.194  0.00  0.00    -0.280 N 
ATOM     16  H   UNL     1       3.388   3.079  -1.004  0.00  0.00    +0.155 HD
ENDBRANCH   1   9
BRANCH   2  17
ATOM     17  C   UNL     1       0.104  -4.279   0.193  0.00  0.00    +0.108 C 
BRANCH  17  18
ATOM     18  C   UNL     1      -1.305  -4.801   0.304  0.00  0.00    -0.035 A 
ATOM     19  C   UNL     1      -2.108  -4.403   1.357  0.00  0.00    +0.006 A 
ATOM     20  C   UNL     1      -3.401  -4.881   1.459  0.00  0.00    +0.020 A 
ATOM     21  C   UNL     1      -3.891  -5.758   0.509  0.00  0.00    +0.041 A 
ATOM     22  C   UNL     1      -3.087  -6.157  -0.544  0.00  0.00    +0.020 A 
ATOM     23  C   UNL     1      -1.796  -5.673  -0.649  0.00  0.00    +0.006 A 
ATOM     24 CL   UNL     1      -5.514  -6.360   0.637  0.00  0.00    -0.084 Cl
ENDBRANCH  17  18
BRANCH  17  25
ATOM     25  C   UNL     1       0.900  -4.689   1.434  0.00  0.00    +0.005 C 
ATOM     26  C   UNL     1       2.245  -5.384   1.213  0.00  0.00    +0.005 C 
ATOM     27  C   UNL     1       1.044  -6.186   1.718  0.00  0.00    +0.005 C 
ENDBRANCH  17  25
ENDBRANCH   2  17
TORSDOF 4
