REMARK  Name = ZINC04275596
REMARK  7 active torsions:
REMARK  status: ('A' for Active; 'I' for Inactive)
REMARK    1  A    between atoms: C_1  and  C_2
REMARK    2  A    between atoms: C_6  and  O_8
REMARK    3  A    between atoms: O_8  and  C_9
REMARK    4  A    between atoms: C_11  and  N_31
REMARK    5  A    between atoms: C_13  and  O_30
REMARK    6  A    between atoms: C_22  and  C_25
REMARK    7  A    between atoms: C_32  and  C_34
REMARK                            x       y       z     vdW  Elec       q    Type
REMARK                         _______ _______ _______ _____ _____    ______ ____
ROOT
ATOM      1  C   UNL     1       0.069  -4.202   2.274  0.00  0.00    +0.331 C 
ATOM      2  C   UNL     1      -0.173  -4.796   3.663  0.00  0.00    +0.173 C 
ATOM      3  C   UNL     1      -0.066  -6.325   3.596  0.00  0.00    +0.172 C 
ATOM      4  C   UNL     1       1.304  -6.689   3.025  0.00  0.00    +0.183 C 
ATOM      5  C   UNL     1       1.444  -6.047   1.638  0.00  0.00    +0.179 C 
ATOM      6  O   UNL     1       1.339  -4.631   1.774  0.00  0.00    -0.332 OA
ATOM      7  C   UNL     1       2.798  -6.449   1.053  0.00  0.00    +0.197 C 
ATOM      8  O   UNL     1       2.879  -7.880   1.044  0.00  0.00    -0.342 OA
ATOM      9  C   UNL     1       2.706  -8.488   2.325  0.00  0.00    +0.319 C 
ATOM     10  O   UNL     1       1.447  -8.102   2.888  0.00  0.00    -0.336 OA
ENDROOT
BRANCH   9  11
ATOM     11  C   UNL     1       2.746  -9.987   2.176  0.00  0.00    +0.161 A 
ATOM     12  C   UNL     1       3.780 -10.702   1.698  0.00  0.00    +0.050 A 
ATOM     13  C   UNL     1       3.390 -12.060   1.734  0.00  0.00    +0.041 A 
ATOM     14  C   UNL     1       2.141 -12.094   2.233  0.00  0.00    +0.195 A 
ATOM     15  O   UNL     1       1.759 -10.835   2.504  0.00  0.00    -0.463 OA
ENDBRANCH   9  11
BRANCH   2  16
ATOM     16  N   UNL     1      -1.512  -4.422   4.127  0.00  0.00    -0.304 N 
ATOM     17  C   UNL     1      -1.705  -3.238   4.741  0.00  0.00    +0.210 C 
ATOM     18  O   UNL     1      -0.772  -2.482   4.909  0.00  0.00    -0.276 OA
ATOM     19  C   UNL     1      -3.082  -2.853   5.218  0.00  0.00    +0.109 C 
ATOM     20  H   UNL     1      -2.258  -5.026   3.992  0.00  0.00    +0.149 HD
ENDBRANCH   2  16
BRANCH   3  21
ATOM     21  O   UNL     1      -0.205  -6.873   4.908  0.00  0.00    -0.387 OA
ATOM     22  H   UNL     1      -1.048  -6.666   5.334  0.00  0.00    +0.210 HD
ENDBRANCH   3  21
BRANCH   1  23
ATOM     23  O   UNL     1       0.050  -2.776   2.358  0.00  0.00    -0.462 OA
BRANCH  23  29
ATOM     24  C   UNL     1      -0.018   1.503   0.010  0.00  0.00    +0.044 C 
ATOM     25  C   UNL     1       0.002  -0.004   0.002  0.00  0.00    -0.047 A 
ATOM     26  C   UNL     1       0.006  -0.688  -1.200  0.00  0.00    +0.003 A 
ATOM     27  C   UNL     1       0.024  -2.071  -1.211  0.00  0.00    +0.004 A 
ATOM     28  C   UNL     1       0.039  -2.772  -0.020  0.00  0.00    +0.046 A 
ATOM     29  C   UNL     1       0.035  -2.088   1.186  0.00  0.00    +0.124 A 
ATOM     30  C   UNL     1       0.023  -0.700   1.195  0.00  0.00    +0.049 A 
ENDBRANCH  23  29
ENDBRANCH   1  23
TORSDOF 5
