REMARK  Name = ZINC24641708
REMARK  7 active torsions:
REMARK  status: ('A' for Active; 'I' for Inactive)
REMARK    1  A    between atoms: C_1  and  C_2
REMARK    2  A    between atoms: C_2  and  C_3
REMARK    3  A    between atoms: C_3  and  C_28
REMARK    4  A    between atoms: N_6  and  N_10
REMARK    5  A    between atoms: C_11  and  C_13
REMARK    6  A    between atoms: C_13  and  C_14
REMARK    7  A    between atoms: C_14  and  N_15
REMARK                            x       y       z     vdW  Elec       q    Type
REMARK                         _______ _______ _______ _____ _____    ______ ____
ROOT
ATOM      1  N   UNL     1      -4.688   0.068   2.636  0.00  0.00    -0.224 N 
ATOM      2  C   UNL     1      -4.127   0.439   1.468  0.00  0.00    +0.231 C 
ATOM      3  O   UNL     1      -4.642   0.116   0.419  0.00  0.00    -0.274 OA
ATOM      4  H   UNL     1      -4.221   0.361   3.588  0.00  0.00    +0.174 HD
ENDROOT
BRANCH   1   8
ATOM      5  C   UNL     1      -7.377  -2.396   2.802  0.00  0.00    +0.139 C 
ATOM      6  C   UNL     1      -5.916  -2.008   2.921  0.00  0.00    +0.268 C 
ATOM      7  O   UNL     1      -4.987  -2.732   3.209  0.00  0.00    -0.271 OA
ATOM      8  N   UNL     1      -5.865  -0.691   2.639  0.00  0.00    -0.137 N 
ATOM      9  C   UNL     1      -7.078  -0.197   2.366  0.00  0.00    +0.327 C 
ATOM     10  O   UNL     1      -7.287   0.967   2.087  0.00  0.00    -0.251 OA
ATOM     11  N   UNL     1      -8.041  -1.134   2.433  0.00  0.00    -0.280 N 
ATOM     12  H   UNL     1      -9.129  -1.112   2.273  0.00  0.00    +0.152 HD
BRANCH   5  13
ATOM     13  C   UNL     1      -7.565  -3.430   1.723  0.00  0.00    -0.015 A 
ATOM     14  C   UNL     1      -7.494  -4.775   2.034  0.00  0.00    +0.006 A 
ATOM     15  C   UNL     1      -7.670  -5.724   1.045  0.00  0.00    +0.000 A 
ATOM     16  C   UNL     1      -7.909  -5.328  -0.258  0.00  0.00    +0.000 A 
ATOM     17  C   UNL     1      -7.975  -3.983  -0.570  0.00  0.00    +0.000 A 
ATOM     18  C   UNL     1      -7.803  -3.034   0.420  0.00  0.00    +0.006 A 
ENDBRANCH   5  13
BRANCH   5  20
ATOM     19  C   UNL     1      -7.867  -1.789   5.176  0.00  0.00    +0.007 C 
ATOM     20  C   UNL     1      -7.906  -2.915   4.141  0.00  0.00    +0.037 C 
ENDBRANCH   5  20
ENDBRANCH   1   8
BRANCH   2  21
ATOM     21  C   UNL     1      -2.861   1.256   1.466  0.00  0.00    +0.119 C 
BRANCH  21  22
ATOM     22  C   UNL     1      -2.439   1.540   0.023  0.00  0.00    +0.136 C 
BRANCH  22  23
ATOM     23  N   UNL     1      -1.208   2.334   0.021  0.00  0.00    -0.288 N 
ATOM     24  C   UNL     1      -1.290   3.682   0.033  0.00  0.00    +0.262 A 
ATOM     25  O   UNL     1      -2.369   4.242   0.046  0.00  0.00    -0.267 OA
ATOM     26  C   UNL     1      -0.036   4.457   0.025  0.00  0.00    +0.063 A 
ATOM     27  C   UNL     1      -0.035   5.850   0.032  0.00  0.00    +0.015 A 
ATOM     28  C   UNL     1       1.165   6.529   0.024  0.00  0.00    +0.001 A 
ATOM     29  C   UNL     1       2.365   5.834   0.009  0.00  0.00    +0.002 A 
ATOM     30  C   UNL     1       2.378   4.454   0.002  0.00  0.00    +0.026 A 
ATOM     31  C   UNL     1       1.181   3.754   0.010  0.00  0.00    +0.053 A 
ATOM     32  N   UNL     1       1.150   2.367   0.004  0.00  0.00    -0.335 N 
ATOM     33  H   UNL     1       2.090   1.796  -0.007  0.00  0.00    +0.168 HD
ATOM     34  C   UNL     1      -0.021   1.708   0.011  0.00  0.00    +0.161 A 
ATOM     35  S   UNL     1       0.002  -0.004   0.002  0.00  0.00    -0.013 S 
ENDBRANCH  22  23
ENDBRANCH  21  22
ENDBRANCH   2  21
TORSDOF 6
