REMARK  Name = ZINC39610409
REMARK  7 active torsions:
REMARK  status: ('A' for Active; 'I' for Inactive)
REMARK    1  A    between atoms: C_1  and  O_2
REMARK    2  A    between atoms: O_2  and  C_3
REMARK    3  A    between atoms: C_3  and  C_4
REMARK    4  A    between atoms: C_4  and  C_5
REMARK    5  A    between atoms: C_9  and  C_18
REMARK    6  A    between atoms: N_20  and  C_21
REMARK    7  A    between atoms: C_21  and  C_22
REMARK                            x       y       z     vdW  Elec       q    Type
REMARK                         _______ _______ _______ _____ _____    ______ ____
ROOT
ATOM      1  C   UNL     1      -2.228  -2.764  -0.104  0.00  0.00    +0.218 C 
ATOM      2  O   UNL     1      -3.159  -1.987  -0.126  0.00  0.00    -0.276 OA
ATOM      3  N   UNL     1      -2.460  -4.091  -0.069  0.00  0.00    -0.300 N 
ATOM      4  C   UNL     1      -1.462  -5.187  -0.032  0.00  0.00    +0.121 C 
ATOM      5  C   UNL     1      -2.061  -6.228   0.940  0.00  0.00    +0.100 C 
ATOM      6  C   UNL     1      -3.576  -5.961   0.916  0.00  0.00    -0.004 C 
ATOM      7  C   UNL     1      -3.770  -4.785  -0.052  0.00  0.00    +0.115 C 
ATOM      8  C   UNL     1      -4.066  -5.575   2.309  0.00  0.00    -0.010 C 
ATOM      9  C   UNL     1      -5.583  -5.370   2.272  0.00  0.00    -0.082 C 
ATOM     10  N   UNL     1      -6.235  -6.608   1.827  0.00  0.00    +0.379 N 
ATOM     11  C   UNL     1      -5.829  -6.921   0.452  0.00  0.00    -0.082 C 
ATOM     12  C   UNL     1      -4.322  -7.192   0.411  0.00  0.00    -0.010 C 
ATOM     13  H   UNL     1      -5.967  -7.366   2.437  0.00  0.00    -0.086 HD
ATOM     14  H   UNL     1      -7.237  -6.490   1.862  0.00  0.00    -0.086 HD
ENDROOT
BRANCH   5  15
ATOM     15  C   UNL     1      -1.512  -6.026   2.329  0.00  0.00    +0.218 C 
ATOM     16  O   UNL     1      -1.188  -4.917   2.697  0.00  0.00    -0.275 OA
ATOM     17  N   UNL     1      -1.381  -7.078   3.161  0.00  0.00    -0.311 N 
ATOM     18  H   UNL     1      -1.641  -7.965   2.866  0.00  0.00    +0.149 HD
BRANCH  17  19
ATOM     19  C   UNL     1      -0.848  -6.882   4.511  0.00  0.00    +0.139 C 
BRANCH  19  20
ATOM     20  C   UNL     1      -0.804  -8.206   5.231  0.00  0.00    -0.027 A 
ATOM     21  C   UNL     1      -1.896  -8.626   5.968  0.00  0.00    +0.009 A 
ATOM     22  C   UNL     1      -1.862  -9.839   6.629  0.00  0.00    +0.050 A 
ATOM     23  C   UNL     1      -0.731 -10.637   6.556  0.00  0.00    +0.166 A 
ATOM     24  C   UNL     1       0.369 -10.213   5.814  0.00  0.00    +0.167 A 
ATOM     25  C   UNL     1       0.325  -8.999   5.149  0.00  0.00    +0.054 A 
ATOM     26  O   UNL     1       1.344 -11.165   5.899  0.00  0.00    -0.453 OA
ATOM     27  C   UNL     1       0.987 -11.982   7.029  0.00  0.00    +0.466 C 
ATOM     28  O   UNL     1      -0.445 -11.853   7.105  0.00  0.00    -0.453 OA
ENDBRANCH  19  20
ENDBRANCH  17  19
ENDBRANCH   5  15
BRANCH   1  29
ATOM     29  C   UNL     1      -0.814  -2.246  -0.116  0.00  0.00    +0.124 C 
BRANCH  29  30
ATOM     30  C   UNL     1      -0.831  -0.717  -0.156  0.00  0.00    +0.168 C 
BRANCH  30  32
ATOM     31  C   UNL     1       0.608   1.200  -0.205  0.00  0.00    +0.194 C 
ATOM     32  O   UNL     1       0.511  -0.225  -0.167  0.00  0.00    -0.382 OA
ENDBRANCH  30  32
ENDBRANCH  29  30
ENDBRANCH   1  29
TORSDOF 6
