REMARK  Name = ZINC39559627
REMARK  5 active torsions:
REMARK  status: ('A' for Active; 'I' for Inactive)
REMARK    1  A    between atoms: C_6  and  N_7
REMARK    2  A    between atoms: C_8  and  C_10
REMARK    3  A    between atoms: C_10  and  N_11
REMARK    4  A    between atoms: C_12  and  C_14
REMARK    5  A    between atoms: C_20  and  C_22
REMARK                            x       y       z     vdW  Elec       q    Type
REMARK                         _______ _______ _______ _____ _____    ______ ____
ROOT
ATOM      1  N   UNL     1      -4.902   0.311   0.222  0.00  0.00    -0.305 N 
ATOM      2  C   UNL     1      -6.145  -0.188   0.375  0.00  0.00    +0.234 C 
ATOM      3  O   UNL     1      -6.340  -1.379   0.250  0.00  0.00    -0.274 OA
ATOM      4  H   UNL     1      -4.746   1.263   0.322  0.00  0.00    +0.149 HD
ENDROOT
BRANCH   2   5
ATOM      5  C   UNL     1      -7.292   0.733   0.702  0.00  0.00    +0.162 C 
ATOM      6  C   UNL     1      -7.482   1.758  -0.436  0.00  0.00    +0.033 C 
ATOM      7  C   UNL     1      -8.619   1.129  -1.284  0.00  0.00    +0.021 C 
ATOM      8  C   UNL     1      -9.497   0.473  -0.189  0.00  0.00    +0.108 C 
ATOM      9  N   UNL     1      -8.538  -0.039   0.811  0.00  0.00    -0.289 N 
ATOM     10  C   UNL     1      -8.765  -1.046   1.677  0.00  0.00    +0.222 C 
ATOM     11  O   UNL     1      -7.932  -1.326   2.513  0.00  0.00    -0.275 OA
BRANCH  10  12
ATOM     12  C   UNL     1     -10.053  -1.825   1.607  0.00  0.00    +0.048 C 
ATOM     13  C   UNL     1     -11.237  -0.864   1.732  0.00  0.00    +0.019 C 
ATOM     14  C   UNL     1     -12.545  -1.655   1.661  0.00  0.00    -0.009 C 
ATOM     15  C   UNL     1     -12.590  -2.671   2.804  0.00  0.00    +0.007 C 
ATOM     16  C   UNL     1     -11.406  -3.632   2.679  0.00  0.00    -0.009 C 
ATOM     17  C   UNL     1     -10.098  -2.841   2.750  0.00  0.00    +0.019 C 
ATOM     18  C   UNL     1     -11.485  -4.367   1.339  0.00  0.00    +0.007 C 
ATOM     19  C   UNL     1     -11.441  -3.351   0.197  0.00  0.00    -0.009 C 
ATOM     20  C   UNL     1     -12.625  -2.390   0.322  0.00  0.00    +0.007 C 
ATOM     21  C   UNL     1     -10.133  -2.560   0.268  0.00  0.00    +0.019 C 
ENDBRANCH  10  12
ENDBRANCH   2   5
BRANCH   1  22
ATOM     22  C   UNL     1      -3.787  -0.585  -0.096  0.00  0.00    +0.200 C 
BRANCH  22  24
ATOM     23  N   UNL     1      -1.354  -0.401  -0.501  0.00  0.00    -0.284 N 
ATOM     24  C   UNL     1      -2.517   0.217  -0.213  0.00  0.00    +0.234 C 
ATOM     25  O   UNL     1      -2.540   1.418  -0.048  0.00  0.00    -0.274 OA
ATOM     26  H   UNL     1      -1.346  -1.351  -0.699  0.00  0.00    +0.155 HD
BRANCH  23  32
ATOM     27  C   UNL     1       1.022  -0.267  -0.087  0.00  0.00    +0.025 A 
ATOM     28  C   UNL     1       2.204   0.447  -0.099  0.00  0.00    +0.029 A 
ATOM     29  C   UNL     1       2.215   1.761  -0.541  0.00  0.00    +0.067 A 
ATOM     30  C   UNL     1       1.030   2.361  -0.973  0.00  0.00    +0.069 A 
ATOM     31  C   UNL     1      -0.155   1.643  -0.959  0.00  0.00    +0.051 A 
ATOM     32  C   UNL     1      -0.158   0.328  -0.516  0.00  0.00    +0.036 A 
ATOM     33  N   UNL     1       1.353   3.663  -1.351  0.00  0.00    -0.306 N 
ATOM     34  H   UNL     1       0.732   4.325  -1.694  0.00  0.00    +0.170 HD
ATOM     35  C   UNL     1       2.672   3.847  -1.157  0.00  0.00    +0.325 A 
ATOM     36  O   UNL     1       3.278   4.877  -1.388  0.00  0.00    -0.247 OA
ATOM     37  N   UNL     1       3.221   2.718  -0.670  0.00  0.00    -0.306 N 
ATOM     38  H   UNL     1       4.156   2.592  -0.446  0.00  0.00    +0.170 HD
ENDBRANCH  23  32
ENDBRANCH  22  24
ENDBRANCH   1  22
TORSDOF 5
