REMARK  Name = ZINC35465837
REMARK  16 active torsions:
REMARK  status: ('A' for Active; 'I' for Inactive)
REMARK    1  A    between atoms: C_1  and  C_2
REMARK    2  A    between atoms: C_2  and  C_3
REMARK    3  A    between atoms: C_2  and  C_4
REMARK    4  A    between atoms: C_2  and  O_39
REMARK    5  A    between atoms: C_4  and  C_6
REMARK    6  A    between atoms: C_4  and  O_38
REMARK    7  A    between atoms: C_6  and  C_8
REMARK    8  A    between atoms: C_6  and  O_21
REMARK    9  A    between atoms: C_18  and  O_19
REMARK   10  A    between atoms: O_19  and  C_20
REMARK   11  A    between atoms: O_21  and  C_22
REMARK   12  A    between atoms: C_24  and  O_37
REMARK   13  A    between atoms: C_26  and  O_36
REMARK   14  A    between atoms: C_28  and  O_35
REMARK   15  A    between atoms: C_30  and  C_33
REMARK   16  A    between atoms: C_33  and  O_34
REMARK                            x       y       z     vdW  Elec       q    Type
REMARK                         _______ _______ _______ _____ _____    ______ ____
ROOT
ATOM      1  C   UNL     1      -1.483  -2.688   0.319  0.00  0.00    +0.186 C 
ENDROOT
BRANCH   1   2
ATOM      2  C   UNL     1      -2.751  -3.501   0.300  0.00  0.00    +0.026 A 
ATOM      3  C   UNL     1      -3.207  -4.018  -0.879  0.00  0.00    +0.021 A 
ATOM      4  C   UNL     1      -4.385  -4.773  -0.897  0.00  0.00    +0.018 A 
ATOM      5  C   UNL     1      -4.897  -5.340  -2.146  0.00  0.00    +0.018 A 
ATOM      6  C   UNL     1      -6.046  -6.064  -2.099  0.00  0.00    +0.092 A 
ATOM      7  C   UNL     1      -6.707  -6.250  -0.867  0.00  0.00    +0.337 A 
ATOM      8  O   UNL     1      -7.736  -6.902  -0.839  0.00  0.00    -0.245 OA
ATOM      9  O   UNL     1      -6.232  -5.728   0.274  0.00  0.00    -0.422 OA
ATOM     10  C   UNL     1      -5.096  -4.998   0.296  0.00  0.00    +0.143 A 
ATOM     11  C   UNL     1      -4.619  -4.466   1.484  0.00  0.00    +0.093 A 
ATOM     12  C   UNL     1      -3.448  -3.725   1.485  0.00  0.00    +0.129 A 
BRANCH  12  13
ATOM     13  O   UNL     1      -2.979  -3.209   2.650  0.00  0.00    -0.495 OA
ATOM     14  C   UNL     1      -3.739  -3.475   3.830  0.00  0.00    +0.277 C 
ENDBRANCH  12  13
ENDBRANCH   1   2
BRANCH   1  15
ATOM     15  C   UNL     1      -1.829  -1.200   0.228  0.00  0.00    +0.179 C 
BRANCH  15  17
ATOM     16  C   UNL     1      -0.886   1.109   0.097  0.00  0.00    +0.044 C 
ATOM     17  C   UNL     1      -0.540  -0.377   0.214  0.00  0.00    +0.089 C 
ATOM     18  C   UNL     1       0.235  -0.620   1.510  0.00  0.00    +0.044 C 
BRANCH  17  19
ATOM     19  O   UNL     1       0.263  -0.767  -0.902  0.00  0.00    -0.386 OA
ATOM     20  H   UNL     1      -0.166  -0.640  -1.759  0.00  0.00    +0.210 HD
ENDBRANCH  17  19
ENDBRANCH  15  17
BRANCH  15  21
ATOM     21  O   UNL     1      -2.564  -0.956  -0.973  0.00  0.00    -0.386 OA
ATOM     22  H   UNL     1      -2.086  -1.188  -1.781  0.00  0.00    +0.210 HD
ENDBRANCH  15  21
ENDBRANCH   1  15
BRANCH   1  23
ATOM     23  O   UNL     1      -0.664  -3.055  -0.792  0.00  0.00    -0.338 OA
BRANCH  23  24
ATOM     24  C   UNL     1       0.214  -4.152  -0.530  0.00  0.00    +0.282 C 
ATOM     25  C   UNL     1       0.913  -4.568  -1.827  0.00  0.00    +0.201 C 
ATOM     26  C   UNL     1       1.897  -5.703  -1.527  0.00  0.00    +0.179 C 
ATOM     27  C   UNL     1       2.888  -5.235  -0.457  0.00  0.00    +0.177 C 
ATOM     28  C   UNL     1       2.113  -4.793   0.787  0.00  0.00    +0.178 C 
ATOM     29  O   UNL     1       1.194  -3.758   0.432  0.00  0.00    -0.341 OA
BRANCH  27  30
ATOM     30  O   UNL     1       3.766  -6.310  -0.117  0.00  0.00    -0.386 OA
ATOM     31  H   UNL     1       4.287  -6.643  -0.861  0.00  0.00    +0.210 HD
ENDBRANCH  27  30
BRANCH  26  32
ATOM     32  O   UNL     1       2.605  -6.050  -2.718  0.00  0.00    -0.386 OA
ATOM     33  H   UNL     1       2.037  -6.350  -3.441  0.00  0.00    +0.210 HD
ENDBRANCH  26  32
BRANCH  25  34
ATOM     34  O   UNL     1      -0.061  -5.016  -2.772  0.00  0.00    -0.384 OA
ATOM     35  H   UNL     1      -0.720  -4.348  -3.005  0.00  0.00    +0.210 HD
ENDBRANCH  25  34
BRANCH  28  36
ATOM     36  C   UNL     1       3.092  -4.268   1.839  0.00  0.00    +0.190 C 
BRANCH  36  37
ATOM     37  O   UNL     1       2.386  -3.987   3.049  0.00  0.00    -0.392 OA
ATOM     38  H   UNL     1       2.946  -3.649   3.762  0.00  0.00    +0.210 HD
ENDBRANCH  36  37
ENDBRANCH  28  36
ENDBRANCH  23  24
ENDBRANCH   1  23
TORSDOF 13
