REMARK  Name = ZINC06498551
REMARK  6 active torsions:
REMARK  status: ('A' for Active; 'I' for Inactive)
REMARK    1  A    between atoms: C_5  and  C_7
REMARK    2  A    between atoms: C_9  and  S_13
REMARK    3  A    between atoms: S_13  and  C_14
REMARK    4  A    between atoms: C_14  and  C_15
REMARK    5  A    between atoms: N_20  and  C_21
REMARK    6  A    between atoms: C_21  and  C_22
REMARK                            x       y       z     vdW  Elec       q    Type
REMARK                         _______ _______ _______ _____ _____    ______ ____
ROOT
ATOM      1  C   UNL     1      -2.179  -4.917  -0.020  0.00  0.00    +0.173 C 
ENDROOT
BRANCH   1   2
ATOM      2  C   UNL     1      -3.199  -6.027  -0.021  0.00  0.00    +0.231 C 
ATOM      3  O   UNL     1      -2.835  -7.183  -0.029  0.00  0.00    -0.274 OA
ATOM      4  N   UNL     1      -4.514  -5.734  -0.012  0.00  0.00    -0.239 N 
ATOM      5  C   UNL     1      -5.426  -6.726  -0.012  0.00  0.00    +0.306 C 
ATOM      6  O   UNL     1      -5.062  -7.886  -0.021  0.00  0.00    -0.252 OA
ATOM      7  N   UNL     1      -6.741  -6.433  -0.004  0.00  0.00    -0.292 N 
ATOM      8  H   UNL     1      -4.805  -4.808  -0.005  0.00  0.00    +0.159 HD
ATOM      9  H   UNL     1      -7.032  -5.508   0.003  0.00  0.00    +0.151 HD
BRANCH   7  10
ATOM     10  C   UNL     1      -7.732  -7.512  -0.004  0.00  0.00    +0.180 C 
BRANCH  10  11
ATOM     11  C   UNL     1      -9.118  -6.921   0.006  0.00  0.00    +0.122 A 
ATOM     12  C   UNL     1      -9.850  -6.612  -1.079  0.00  0.00    +0.046 A 
ATOM     13  C   UNL     1     -11.077  -6.088  -0.610  0.00  0.00    +0.041 A 
ATOM     14  C   UNL     1     -11.021  -6.109   0.734  0.00  0.00    +0.195 A 
ATOM     15  O   UNL     1      -9.835  -6.620   1.101  0.00  0.00    -0.466 OA
ENDBRANCH  10  11
ENDBRANCH   7  10
ENDBRANCH   1   2
BRANCH   1  16
ATOM     16  S   UNL     1      -0.511  -5.628  -0.033  0.00  0.00    -0.077 S 
BRANCH  16  19
ATOM     17  C   UNL     1       1.246  -2.166  -0.022  0.00  0.00    +0.183 A 
ATOM     18  N   UNL     1       0.169  -2.965  -0.021  0.00  0.00    -0.201 NA
ATOM     19  C   UNL     1       0.552  -4.222  -0.030  0.00  0.00    +0.185 A 
ATOM     20  N   UNL     1       1.903  -4.249  -0.038  0.00  0.00    -0.253 N 
ATOM     21  H   UNL     1       2.468  -5.037  -0.046  0.00  0.00    +0.191 HD
ATOM     22  N   UNL     1       2.328  -2.910  -0.037  0.00  0.00    -0.152 NA
BRANCH  17  27
ATOM     23  C   UNL     1      -0.017   1.376   0.010  0.00  0.00    +0.001 A 
ATOM     24  C   UNL     1       1.170   2.087   0.002  0.00  0.00    +0.001 A 
ATOM     25  C   UNL     1       2.382   1.420  -0.013  0.00  0.00    +0.016 A 
ATOM     26  C   UNL     1       2.413   0.039  -0.021  0.00  0.00    +0.029 A 
ATOM     27  C   UNL     1       1.220  -0.682  -0.013  0.00  0.00    +0.035 A 
ATOM     28  C   UNL     1       0.002  -0.004   0.002  0.00  0.00    +0.013 A 
ATOM     29 BR   UNL     1       4.070  -0.871  -0.043  0.00  0.00    -0.050 Br
ENDBRANCH  17  27
ENDBRANCH  16  19
ENDBRANCH   1  16
TORSDOF 6
