REMARK  Name = ZINC03107378
REMARK  18 active torsions:
REMARK  status: ('A' for Active; 'I' for Inactive)
REMARK    1  A    between atoms: C_1  and  C_2
REMARK    2  A    between atoms: C_2  and  C_3
REMARK    3  A    between atoms: C_2  and  C_4
REMARK    4  A    between atoms: C_2  and  C_5
REMARK    5  A    between atoms: C_7  and  C_15
REMARK    6  A    between atoms: C_9  and  C_11
REMARK    7  A    between atoms: C_11  and  C_12
REMARK    8  A    between atoms: C_11  and  C_13
REMARK    9  A    between atoms: C_11  and  C_14
REMARK   10  A    between atoms: C_17  and  C_21
REMARK   11  A    between atoms: C_23  and  C_31
REMARK   12  A    between atoms: C_25  and  C_27
REMARK   13  A    between atoms: C_27  and  C_28
REMARK   14  A    between atoms: C_27  and  C_29
REMARK   15  A    between atoms: C_27  and  C_30
REMARK   16  A    between atoms: C_31  and  C_32
REMARK   17  A    between atoms: C_31  and  C_33
REMARK   18  A    between atoms: C_31  and  C_34
REMARK                            x       y       z     vdW  Elec       q    Type
REMARK                         _______ _______ _______ _____ _____    ______ ____
ROOT
ATOM      1  C   UNL     1       2.261  -4.167  -0.041  0.00  0.00    +0.000 A 
ATOM      2  C   UNL     1       2.582  -2.790  -0.043  0.00  0.00    +0.036 A 
ATOM      3  C   UNL     1       1.407  -2.104  -0.022  0.00  0.00    +0.047 A 
ATOM      4  N   UNL     1       0.378  -3.015  -0.017  0.00  0.00    -0.360 N 
ATOM      5  H   UNL     1      -0.665  -2.667  -0.006  0.00  0.00    +0.165 HD
ATOM      6  C   UNL     1       0.899  -4.267  -0.028  0.00  0.00    +0.091 A 
ENDROOT
BRANCH   1   9
ATOM      7  C   UNL     1       3.786  -7.605  -0.071  0.00  0.00    +0.111 A 
ATOM      8  C   UNL     1       2.806  -6.636  -0.058  0.00  0.00    +0.051 A 
ATOM      9  C   UNL     1       3.224  -5.293  -0.055  0.00  0.00    -0.010 A 
ATOM     10  C   UNL     1       4.615  -5.088  -0.072  0.00  0.00    +0.051 A 
ATOM     11  C   UNL     1       5.421  -6.207  -0.079  0.00  0.00    +0.111 A 
ATOM     12  O   UNL     1       4.962  -7.325  -0.080  0.00  0.00    -0.463 OA
BRANCH   7  14
ATOM     13  C   UNL     1       2.537  -9.346  -1.319  0.00  0.00    +0.019 C 
ATOM     14  C   UNL     1       3.380  -9.056  -0.075  0.00  0.00    +0.020 C 
ATOM     15  C   UNL     1       4.631  -9.937  -0.091  0.00  0.00    +0.019 C 
ATOM     16  C   UNL     1       2.558  -9.359   1.179  0.00  0.00    +0.019 C 
ENDBRANCH   7  14
BRANCH  11  17
ATOM     17  C   UNL     1       6.918  -6.030  -0.092  0.00  0.00    +0.020 C 
ATOM     18  C   UNL     1       7.351  -5.261   1.157  0.00  0.00    +0.019 C 
ATOM     19  C   UNL     1       7.593  -7.403  -0.105  0.00  0.00    +0.019 C 
ATOM     20  C   UNL     1       7.328  -5.248  -1.341  0.00  0.00    +0.019 C 
ENDBRANCH  11  17
ENDBRANCH   1   9
BRANCH   3  21
ATOM     21  C   UNL     1       1.262  -0.634  -0.013  0.00  0.00    +0.005 A 
ATOM     22  C   UNL     1       0.002  -0.004   0.002  0.00  0.00    +0.052 A 
ATOM     23  C   UNL     1      -0.017   1.369   0.010  0.00  0.00    +0.111 A 
ATOM     24  O   UNL     1       1.000   2.023   0.003  0.00  0.00    -0.463 OA
ATOM     25  C   UNL     1       2.125   1.580  -0.010  0.00  0.00    +0.111 A 
ATOM     26  C   UNL     1       2.375   0.230  -0.019  0.00  0.00    +0.052 A 
BRANCH  25  27
ATOM     27  C   UNL     1       3.288   2.538  -0.016  0.00  0.00    +0.020 C 
ATOM     28  C   UNL     1       4.128   2.313  -1.275  0.00  0.00    +0.019 C 
ATOM     29  C   UNL     1       2.765   3.976  -0.003  0.00  0.00    +0.019 C 
ATOM     30  C   UNL     1       4.153   2.299   1.223  0.00  0.00    +0.019 C 
ENDBRANCH  25  27
BRANCH  23  31
ATOM     31  C   UNL     1      -1.344   2.082   0.020  0.00  0.00    +0.020 C 
ATOM     32  C   UNL     1      -2.129   1.681   1.270  0.00  0.00    +0.019 C 
ATOM     33  C   UNL     1      -1.111   3.594   0.027  0.00  0.00    +0.019 C 
ATOM     34  C   UNL     1      -2.140   1.695  -1.228  0.00  0.00    +0.019 C 
ENDBRANCH  23  31
ENDBRANCH   3  21
TORSDOF 6
