REMARK  Name = ZINC50350400
REMARK  4 active torsions:
REMARK  status: ('A' for Active; 'I' for Inactive)
REMARK    1  A    between atoms: C_1  and  C_2
REMARK    2  A    between atoms: C_2  and  C_4
REMARK    3  A    between atoms: C_2  and  S_14
REMARK    4  A    between atoms: S_14  and  N_17
REMARK                            x       y       z     vdW  Elec       q    Type
REMARK                         _______ _______ _______ _____ _____    ______ ____
ROOT
ATOM      1  C   UNL     1       0.742  -0.511   1.242  0.00  0.00    -0.005 C 
ATOM      2  C   UNL     1       0.026  -0.018   2.500  0.00  0.00    +0.012 C 
ATOM      3  C   UNL     1       0.766  -0.524   3.740  0.00  0.00    -0.010 C 
ATOM      4  C   UNL     1       2.201   0.005   3.729  0.00  0.00    +0.007 C 
ATOM      5  C   UNL     1       2.917  -0.488   2.470  0.00  0.00    -0.010 C 
ATOM      6  C   UNL     1       2.178   0.019   1.231  0.00  0.00    +0.012 C 
ATOM      7  C   UNL     1       2.938  -2.018   2.462  0.00  0.00    +0.007 C 
ATOM      8  C   UNL     1       1.503  -2.548   2.473  0.00  0.00    -0.010 C 
ATOM      9  C   UNL     1       0.787  -2.054   3.732  0.00  0.00    +0.007 C 
ATOM     10  C   UNL     1       0.763  -2.041   1.233  0.00  0.00    +0.012 C 
ENDROOT
BRANCH   1  12
ATOM     11  C   UNL     1      -0.019   1.526   0.010  0.00  0.00    +0.034 C 
ATOM     12  C   UNL     1       0.002  -0.004   0.002  0.00  0.00    +0.151 C 
BRANCH  12  13
ATOM     13  S   UNL     1      -1.700  -0.632   0.015  0.00  0.00    +0.030 S 
ATOM     14  O   UNL     1      -1.703  -2.041  -0.172  0.00  0.00    -0.158 OA
ATOM     15  O   UNL     1      -2.431  -0.041   1.080  0.00  0.00    -0.158 OA
BRANCH  13  16
ATOM     16  N   UNL     1      -2.389  -0.021  -1.361  0.00  0.00    -0.208 NA
ATOM     17  H   UNL     1      -3.093  -0.514  -1.811  0.00  0.00    +0.144 HD
ATOM     18  H   UNL     1      -2.089   0.830  -1.717  0.00  0.00    +0.144 HD
ENDBRANCH  13  16
ENDBRANCH  12  13
ENDBRANCH   1  12
TORSDOF 3
