REMARK  Name = ZINC42862449
REMARK  8 active torsions:
REMARK  status: ('A' for Active; 'I' for Inactive)
REMARK    1  A    between atoms: C_1  and  C_2
REMARK    2  A    between atoms: N_4  and  C_5
REMARK    3  A    between atoms: C_7  and  N_20
REMARK    4  A    between atoms: C_9  and  O_19
REMARK    5  A    between atoms: C_12  and  C_17
REMARK    6  A    between atoms: C_14  and  O_16
REMARK    7  A    between atoms: C_17  and  O_18
REMARK    8  A    between atoms: C_21  and  C_23
REMARK                            x       y       z     vdW  Elec       q    Type
REMARK                         _______ _______ _______ _____ _____    ______ ____
ROOT
ATOM      1  C   UNL     1      -1.136  -2.159   0.001  0.00  0.00    +0.129 C 
ATOM      2  C   UNL     1      -2.433  -2.692   0.617  0.00  0.00    +0.151 C 
ATOM      3  C   UNL     1      -2.438  -4.221   0.533  0.00  0.00    +0.270 C 
ATOM      4  O   UNL     1      -2.300  -4.622  -0.832  0.00  0.00    -0.341 OA
ATOM      5  C   UNL     1      -1.083  -4.191  -1.446  0.00  0.00    +0.177 C 
ATOM      6  C   UNL     1      -1.021  -2.662  -1.441  0.00  0.00    +0.168 C 
ENDROOT
BRANCH   1  10
ATOM      7  C   UNL     1      -0.018   1.503   0.010  0.00  0.00    +0.109 C 
ATOM      8  C   UNL     1       0.002  -0.004   0.002  0.00  0.00    +0.210 C 
ATOM      9  O   UNL     1       1.060  -0.596  -0.011  0.00  0.00    -0.276 OA
ATOM     10  N   UNL     1      -1.156  -0.694   0.009  0.00  0.00    -0.308 N 
ATOM     11  H   UNL     1      -2.002  -0.220   0.020  0.00  0.00    +0.149 HD
ENDBRANCH   1  10
BRANCH   2  12
ATOM     12  N   UNL     1      -2.516  -2.278   2.020  0.00  0.00    -0.306 N 
ATOM     13  C   UNL     1      -3.717  -2.171   2.621  0.00  0.00    +0.210 C 
ATOM     14  O   UNL     1      -4.730  -2.419   2.001  0.00  0.00    -0.276 OA
ATOM     15  C   UNL     1      -3.803  -1.745   4.064  0.00  0.00    +0.109 C 
ATOM     16  H   UNL     1      -1.706  -2.080   2.515  0.00  0.00    +0.149 HD
ENDBRANCH   2  12
BRANCH   6  17
ATOM     17  O   UNL     1       0.221  -2.230  -2.000  0.00  0.00    -0.387 OA
ATOM     18  H   UNL     1       0.361  -2.514  -2.914  0.00  0.00    +0.210 HD
ENDBRANCH   6  17
BRANCH   3  19
ATOM     19  O   UNL     1      -1.349  -4.744   1.296  0.00  0.00    -0.365 OA
ATOM     20  H   UNL     1      -1.290  -5.709   1.288  0.00  0.00    +0.213 HD
ENDBRANCH   3  19
BRANCH   5  21
ATOM     21  C   UNL     1      -1.032  -4.700  -2.888  0.00  0.00    +0.190 C 
BRANCH  21  22
ATOM     22  O   UNL     1      -0.971  -6.127  -2.888  0.00  0.00    -0.392 OA
ATOM     23  H   UNL     1      -0.936  -6.520  -3.771  0.00  0.00    +0.210 HD
ENDBRANCH  21  22
ENDBRANCH   5  21
TORSDOF 6
