REMARK  Name = ZINC13387883
REMARK  5 active torsions:
REMARK  status: ('A' for Active; 'I' for Inactive)
REMARK    1  A    between atoms: C_1  and  C_2
REMARK    2  A    between atoms: C_7  and  C_33
REMARK    3  A    between atoms: C_10  and  C_12
REMARK    4  A    between atoms: C_16  and  C_27
REMARK    5  A    between atoms: C_19  and  C_23
REMARK                            x       y       z     vdW  Elec       q    Type
REMARK                         _______ _______ _______ _____ _____    ______ ____
ROOT
ATOM      1  C   UNL     1       0.758  -1.616   3.381  0.00  0.00    +0.129 C 
ATOM      2  C   UNL     1       2.023  -1.263   3.720  0.00  0.00    +0.109 C 
ATOM      3  C   UNL     1       2.314  -1.879   5.015  0.00  0.00    +0.155 C 
ATOM      4  N   UNL     1       3.391  -1.820   5.745  0.00  0.00    -0.255 NA
ATOM      5  C   UNL     1       3.412  -2.509   7.041  0.00  0.00    +0.175 C 
ATOM      6  C   UNL     1       2.545  -3.767   6.996  0.00  0.00    +0.068 C 
ATOM      7  C   UNL     1       1.106  -3.391   6.608  0.00  0.00    +0.202 C 
ATOM      8  N   UNL     1       1.182  -2.600   5.375  0.00  0.00    -0.224 N 
ATOM      9  N   UNL     1       0.224  -2.414   4.384  0.00  0.00    -0.256 N 
ATOM     10 CL   UNL     1       3.098  -0.266   2.789  0.00  0.00    -0.078 Cl
ATOM     11  H   UNL     1      -0.672  -2.784   4.391  0.00  0.00    +0.170 HD
ENDROOT
BRANCH   1  19
ATOM     12  C   UNL     1       2.322  -2.867   0.142  0.00  0.00    +0.028 C 
ATOM     13  C   UNL     1       2.139  -1.554   0.905  0.00  0.00    +0.074 C 
ATOM     14  C   UNL     1       2.884  -0.429   0.179  0.00  0.00    +0.022 C 
ATOM     15  C   UNL     1       2.236  -0.194  -1.188  0.00  0.00    +0.004 C 
ATOM     16  C   UNL     1       0.780   0.236  -0.997  0.00  0.00    +0.022 C 
ATOM     17  C   UNL     1       0.011  -0.881  -0.284  0.00  0.00    +0.074 C 
ATOM     18  N   UNL     1       0.710  -1.216   0.968  0.00  0.00    -0.291 N 
ATOM     19  C   UNL     1       0.057  -1.210   2.146  0.00  0.00    +0.264 C 
ATOM     20  O   UNL     1      -1.110  -0.871   2.193  0.00  0.00    -0.268 OA
ATOM     21  C   UNL     1      -1.409  -0.406   0.031  0.00  0.00    +0.028 C 
ENDBRANCH   1  19
BRANCH   5  22
ATOM     22  C   UNL     1       4.830  -2.896   7.375  0.00  0.00    +0.129 A 
ATOM     23  C   UNL     1       5.398  -2.828   8.592  0.00  0.00    +0.047 A 
ATOM     24  C   UNL     1       6.729  -3.284   8.449  0.00  0.00    +0.041 A 
ATOM     25  C   UNL     1       6.894  -3.604   7.153  0.00  0.00    +0.195 A 
ATOM     26  O   UNL     1       5.739  -3.371   6.508  0.00  0.00    -0.466 OA
ENDBRANCH   5  22
BRANCH   7  27
ATOM     27  C   UNL     1       0.284  -4.659   6.366  0.00  0.00    +0.410 C 
ATOM     28  F   UNL     1       0.260  -5.429   7.533  0.00  0.00    -0.169 F 
ATOM     29  F   UNL     1      -1.024  -4.306   6.014  0.00  0.00    -0.169 F 
ATOM     30  F   UNL     1       0.862  -5.399   5.330  0.00  0.00    -0.169 F 
ENDBRANCH   7  27
TORSDOF 3
