REMARK  Name = ZINC39296309
REMARK  5 active torsions:
REMARK  status: ('A' for Active; 'I' for Inactive)
REMARK    1  A    between atoms: C_1  and  S_2
REMARK    2  A    between atoms: S_2  and  C_5
REMARK    3  A    between atoms: C_11  and  C_13
REMARK    4  A    between atoms: C_13  and  C_15
REMARK    5  A    between atoms: C_19  and  N_20
REMARK                            x       y       z     vdW  Elec       q    Type
REMARK                         _______ _______ _______ _____ _____    ______ ____
ROOT
ATOM      1  C   UNL     1       0.877  -0.385  -1.541  0.00  0.00    +0.141 C 
ATOM      2  C   UNL     1       0.173   0.307  -2.710  0.00  0.00    +0.027 C 
ATOM      3  C   UNL     1       0.912  -0.014  -4.011  0.00  0.00    +0.002 C 
ATOM      4  C   UNL     1       0.911  -1.527  -4.238  0.00  0.00    +0.001 C 
ATOM      5  C   UNL     1       1.615  -2.218  -3.069  0.00  0.00    +0.013 C 
ATOM      6  C   UNL     1       0.877  -1.898  -1.768  0.00  0.00    +0.084 C 
ENDROOT
BRANCH   1   8
ATOM      7  C   UNL     1      -0.022   1.810   0.012  0.00  0.00    +0.194 C 
ATOM      8  S   UNL     1       0.002  -0.004   0.002  0.00  0.00    -0.030 S 
ATOM      9  O   UNL     1       0.798  -0.449   1.092  0.00  0.00    -0.174 OA
ATOM     10  O   UNL     1      -1.335  -0.471  -0.113  0.00  0.00    -0.174 OA
ENDBRANCH   1   8
BRANCH   6  11
ATOM     11  C   UNL     1       1.570  -2.578  -0.616  0.00  0.00    +0.170 C 
ATOM     12  O   UNL     1       2.393  -1.973   0.042  0.00  0.00    -0.292 OA
BRANCH  11  13
ATOM     13  C   UNL     1       1.264  -3.919  -0.300  0.00  0.00    +0.046 A 
ATOM     14  C   UNL     1       0.294  -4.680  -1.061  0.00  0.00    +0.021 A 
ATOM     15  C   UNL     1       0.095  -5.946  -0.658  0.00  0.00    +0.048 A 
ATOM     16  S   UNL     1       1.196  -6.117   0.729  0.00  0.00    -0.082 S 
ATOM     17  C   UNL     1       1.881  -4.586   0.756  0.00  0.00    +0.073 A 
BRANCH  17  18
ATOM     18  N   UNL     1       2.834  -4.099   1.626  0.00  0.00    -0.352 N 
ATOM     19  H   UNL     1       3.150  -3.186   1.537  0.00  0.00    +0.143 HD
ATOM     20  H   UNL     1       3.189  -4.669   2.326  0.00  0.00    +0.143 HD
ENDBRANCH  17  18
ENDBRANCH  11  13
ENDBRANCH   6  11
TORSDOF 4
