REMARK  Name = ZINC39672927
REMARK  5 active torsions:
REMARK  status: ('A' for Active; 'I' for Inactive)
REMARK    1  A    between atoms: C_9  and  C_12
REMARK    2  A    between atoms: C_16  and  C_25
REMARK    3  A    between atoms: N_27  and  C_28
REMARK    4  A    between atoms: C_28  and  C_29
REMARK    5  A    between atoms: C_29  and  N_35
REMARK                            x       y       z     vdW  Elec       q    Type
REMARK                         _______ _______ _______ _____ _____    ______ ____
ROOT
ATOM      1  C   UNL     1       5.445  -2.822  -0.469  0.00  0.00    +0.260 C 
ATOM      2  O   UNL     1       6.315  -2.290  -1.125  0.00  0.00    -0.271 OA
ATOM      3  N   UNL     1       5.641  -4.057   0.034  0.00  0.00    -0.297 N 
ATOM      4  C   UNL     1       4.669  -4.906   0.762  0.00  0.00    +0.121 C 
ATOM      5  C   UNL     1       4.930  -6.336   0.238  0.00  0.00    +0.100 C 
ATOM      6  C   UNL     1       6.382  -6.309  -0.270  0.00  0.00    -0.004 C 
ATOM      7  C   UNL     1       6.876  -4.876  -0.023  0.00  0.00    +0.115 C 
ATOM      8  C   UNL     1       7.234  -7.305   0.511  0.00  0.00    -0.010 C 
ATOM      9  C   UNL     1       8.658  -7.301  -0.051  0.00  0.00    -0.082 C 
ATOM     10  N   UNL     1       8.626  -7.664  -1.472  0.00  0.00    +0.379 N 
ATOM     11  C   UNL     1       7.883  -6.651  -2.231  0.00  0.00    -0.082 C 
ATOM     12  C   UNL     1       6.425  -6.627  -1.761  0.00  0.00    -0.010 C 
ATOM     13  H   UNL     1       9.570  -7.720  -1.825  0.00  0.00    -0.086 HD
ATOM     14  H   UNL     1       8.176  -8.560  -1.580  0.00  0.00    -0.086 HD
ENDROOT
BRANCH   1  23
ATOM     15  C   UNL     1       0.819   1.504  -0.892  0.00  0.00    +0.004 A 
ATOM     16  C   UNL     1       2.040   2.135  -0.739  0.00  0.00    +0.004 A 
ATOM     17  C   UNL     1       3.197   1.389  -0.624  0.00  0.00    +0.049 A 
ATOM     18  C   UNL     1       3.137   0.004  -0.662  0.00  0.00    +0.163 A 
ATOM     19  C   UNL     1       1.909  -0.631  -0.813  0.00  0.00    +0.162 A 
ATOM     20  C   UNL     1       0.752   0.124  -0.929  0.00  0.00    +0.049 A 
ATOM     21  O   UNL     1       1.827  -1.989  -0.845  0.00  0.00    -0.484 OA
ATOM     22  C   UNL     1       3.042  -2.702  -1.100  0.00  0.00    +0.283 C 
ATOM     23  C   UNL     1       4.145  -2.103  -0.217  0.00  0.00    +0.296 C 
ATOM     24  O   UNL     1       4.285  -0.718  -0.552  0.00  0.00    -0.473 OA
ENDBRANCH   1  23
BRANCH   5  25
ATOM     25  C   UNL     1       4.781  -7.339   1.353  0.00  0.00    +0.218 C 
ATOM     26  O   UNL     1       4.960  -6.997   2.503  0.00  0.00    -0.275 OA
ATOM     27  N   UNL     1       4.448  -8.614   1.073  0.00  0.00    -0.313 N 
ATOM     28  H   UNL     1       4.305  -8.887   0.153  0.00  0.00    +0.149 HD
BRANCH  27  29
ATOM     29  C   UNL     1       4.303  -9.589   2.157  0.00  0.00    +0.126 C 
BRANCH  29  30
ATOM     30  C   UNL     1       3.807 -10.918   1.585  0.00  0.00    +0.038 C 
ATOM     31  C   UNL     1       3.536 -11.897   2.729  0.00  0.00    +0.024 C 
ATOM     32  C   UNL     1       4.827 -12.131   3.517  0.00  0.00    +0.002 C 
ATOM     33  C   UNL     1       5.892 -12.715   2.587  0.00  0.00    +0.000 C 
ATOM     34  C   UNL     1       6.163 -11.737   1.443  0.00  0.00    +0.002 C 
ATOM     35  C   UNL     1       4.872 -11.503   0.655  0.00  0.00    +0.024 C 
BRANCH  30  36
ATOM     36  N   UNL     1       2.567 -10.693   0.829  0.00  0.00    -0.291 NA
ATOM     37  C   UNL     1       1.569  -9.992   1.650  0.00  0.00    +0.113 C 
ATOM     38  C   UNL     1       0.319  -9.726   0.807  0.00  0.00    +0.175 C 
ATOM     39  O   UNL     1      -0.176 -10.966   0.294  0.00  0.00    -0.377 OA
ATOM     40  C   UNL     1       0.770 -11.675  -0.511  0.00  0.00    +0.175 C 
ATOM     41  C   UNL     1       2.025 -11.961   0.318  0.00  0.00    +0.113 C 
ENDBRANCH  30  36
ENDBRANCH  29  30
ENDBRANCH  27  29
ENDBRANCH   5  25
TORSDOF 5
