REMARK  Name = ZINC16286342
REMARK  5 active torsions:
REMARK  status: ('A' for Active; 'I' for Inactive)
REMARK    1  A    between atoms: C_4  and  N_26
REMARK    2  A    between atoms: C_5  and  N_7
REMARK    3  A    between atoms: C_8  and  C_10
REMARK    4  A    between atoms: C_11  and  C_16
REMARK    5  A    between atoms: N_18  and  C_19
REMARK                            x       y       z     vdW  Elec       q    Type
REMARK                         _______ _______ _______ _____ _____    ______ ____
ROOT
ATOM      1  C   UNL     1       1.651   1.938   0.305  0.00  0.00    +0.134 A 
ATOM      2  C   UNL     1       1.234   3.258   0.413  0.00  0.00    +0.156 A 
ATOM      3  N   UNL     1      -0.109   3.249   0.450  0.00  0.00    -0.231 NA
ATOM      4  C   UNL     1      -0.539   2.019   0.369  0.00  0.00    +0.197 A 
ATOM      5  N   UNL     1       0.509   1.177   0.283  0.00  0.00    -0.340 N 
ATOM      6  H   UNL     1       0.463   0.181   0.216  0.00  0.00    +0.167 HD
ENDROOT
BRANCH   1   8
ATOM      7  N   UNL     1       3.286   0.131   0.128  0.00  0.00    -0.278 N 
ATOM      8  C   UNL     1       3.039   1.452   0.231  0.00  0.00    +0.267 C 
ATOM      9  O   UNL     1       3.962   2.243   0.261  0.00  0.00    -0.268 OA
ATOM     10  H   UNL     1       2.553  -0.504   0.170  0.00  0.00    +0.155 HD
BRANCH   7  15
ATOM     11  C   UNL     1       6.941  -0.119   0.425  0.00  0.00    +0.002 A 
ATOM     12  C   UNL     1       7.192  -1.225  -0.366  0.00  0.00    +0.002 A 
ATOM     13  C   UNL     1       6.150  -1.882  -0.994  0.00  0.00    +0.034 A 
ATOM     14  C   UNL     1       4.853  -1.435  -0.832  0.00  0.00    +0.147 A 
ATOM     15  C   UNL     1       4.597  -0.325  -0.038  0.00  0.00    +0.064 A 
ATOM     16  C   UNL     1       5.647   0.336   0.587  0.00  0.00    +0.025 A 
BRANCH  14  17
ATOM     17  N   UNL     1       3.737  -2.137  -1.505  0.00  0.00    +0.058 N 
ATOM     18  O   UNL     1       3.949  -3.167  -2.121  0.00  0.00    -0.126 OA
ATOM     19  O   UNL     1       2.608  -1.686  -1.443  0.00  0.00    -0.126 OA
ENDBRANCH  14  17
ENDBRANCH   7  15
ENDBRANCH   1   8
BRANCH   2  20
ATOM     20  C   UNL     1       2.104   4.451   0.473  0.00  0.00    +0.269 C 
ATOM     21  O   UNL     1       3.313   4.324   0.429  0.00  0.00    -0.268 OA
ATOM     22  N   UNL     1       1.559   5.679   0.578  0.00  0.00    -0.280 N 
ATOM     23  H   UNL     1       0.595   5.785   0.547  0.00  0.00    +0.155 HD
BRANCH  22  24
ATOM     24  C   UNL     1       2.382   6.799   0.730  0.00  0.00    +0.034 A 
ATOM     25  C   UNL     1       1.966   7.867   1.514  0.00  0.00    +0.024 A 
ATOM     26  C   UNL     1       2.783   8.969   1.667  0.00  0.00    +0.017 A 
ATOM     27  C   UNL     1       4.011   9.016   1.031  0.00  0.00    +0.018 A 
ATOM     28  C   UNL     1       4.426   7.956   0.245  0.00  0.00    +0.017 A 
ATOM     29  C   UNL     1       3.615   6.848   0.092  0.00  0.00    +0.024 A 
ATOM     30 BR   UNL     1       5.124  10.530   1.238  0.00  0.00    -0.050 Br
ENDBRANCH  22  24
ENDBRANCH   2  20
TORSDOF 5
