REMARK  Name = ZINC12499739
REMARK  8 active torsions:
REMARK  status: ('A' for Active; 'I' for Inactive)
REMARK    1  A    between atoms: C_1  and  C_2
REMARK    2  A    between atoms: C_7  and  O_8
REMARK    3  A    between atoms: O_8  and  C_9
REMARK    4  A    between atoms: C_9  and  C_10
REMARK    5  A    between atoms: N_12  and  C_13
REMARK    6  A    between atoms: C_13  and  N_15
REMARK    7  A    between atoms: N_15  and  C_16
REMARK    8  A    between atoms: C_21  and  O_22
REMARK                            x       y       z     vdW  Elec       q    Type
REMARK                         _______ _______ _______ _____ _____    ______ ____
ROOT
ATOM      1  C   UNL     1      -0.238  -0.714   5.910  0.00  0.00    +0.256 C 
ATOM      2  O   UNL     1      -0.222  -1.927   5.904  0.00  0.00    -0.272 OA
ATOM      3  N   UNL     1      -0.157  -0.033   4.750  0.00  0.00    -0.265 N 
ATOM      4  H   UNL     1      -0.170   0.937   4.755  0.00  0.00    +0.157 HD
ENDROOT
BRANCH   3   5
ATOM      5  C   UNL     1      -0.057  -0.700   3.583  0.00  0.00    +0.141 C 
ATOM      6  S   UNL     1      -0.033  -2.411   3.574  0.00  0.00    -0.018 S 
BRANCH   5   7
ATOM      7  N   UNL     1       0.025  -0.018   2.423  0.00  0.00    -0.294 N 
ATOM      8  H   UNL     1       0.091   0.949   2.432  0.00  0.00    +0.154 HD
BRANCH   7   9
ATOM      9  C   UNL     1       0.013  -0.708   1.203  0.00  0.00    +0.075 A 
ATOM     10  C   UNL     1      -0.892  -1.739   0.996  0.00  0.00    +0.027 A 
ATOM     11  C   UNL     1      -0.901  -2.417  -0.208  0.00  0.00    +0.002 A 
ATOM     12  C   UNL     1      -0.011  -2.071  -1.208  0.00  0.00    +0.004 A 
ATOM     13  C   UNL     1       0.890  -1.042  -1.010  0.00  0.00    +0.047 A 
ATOM     14  C   UNL     1       0.910  -0.360   0.196  0.00  0.00    +0.138 A 
BRANCH  14  15
ATOM     15  O   UNL     1       1.800   0.649   0.394  0.00  0.00    -0.505 OA
ATOM     16  H   UNL     1       2.642   0.363   0.772  0.00  0.00    +0.292 HD
ENDBRANCH  14  15
ENDBRANCH   7   9
ENDBRANCH   5   7
ENDBRANCH   3   5
BRANCH   1  17
ATOM     17  C   UNL     1      -0.350   0.031   7.215  0.00  0.00    +0.325 C 
BRANCH  17  18
ATOM     18  O   UNL     1      -0.422  -0.904   8.293  0.00  0.00    -0.482 OA
BRANCH  18  25
ATOM     19  C   UNL     1      -0.577  -2.736  10.437  0.00  0.00    +0.047 C 
ATOM     20  C   UNL     1      -0.606  -1.244  10.640  0.00  0.00    -0.008 A 
ATOM     21  C   UNL     1      -0.708  -0.721  11.916  0.00  0.00    +0.022 A 
ATOM     22  C   UNL     1      -0.740   0.649  12.102  0.00  0.00    +0.018 A 
ATOM     23  C   UNL     1      -0.666   1.499  11.013  0.00  0.00    +0.019 A 
ATOM     24  C   UNL     1      -0.560   0.981   9.737  0.00  0.00    +0.047 A 
ATOM     25  C   UNL     1      -0.527  -0.393   9.548  0.00  0.00    +0.124 A 
ATOM     26 BR   UNL     1      -0.886   1.361  13.848  0.00  0.00    -0.050 Br
ENDBRANCH  18  25
ENDBRANCH  17  18
ENDBRANCH   1  17
TORSDOF 7
