REMARK  Name = ZINC64480007
REMARK  3 active torsions:
REMARK  status: ('A' for Active; 'I' for Inactive)
REMARK    1  A    between atoms: C_1  and  C_2
REMARK    2  A    between atoms: C_2  and  C_3
REMARK    3  A    between atoms: C_3  and  C_4
REMARK                            x       y       z     vdW  Elec       q    Type
REMARK                         _______ _______ _______ _____ _____    ______ ____
ROOT
ATOM      1  C   UNL     1       0.739  -2.004  -1.265  0.00  0.00    +0.217 C 
ATOM      2  O   UNL     1       0.277  -2.621  -0.328  0.00  0.00    -0.276 OA
ATOM      3  N   UNL     1       1.322  -2.665  -2.285  0.00  0.00    -0.281 N 
ATOM      4  C   UNL     1       1.841  -1.913  -3.433  0.00  0.00    +0.113 C 
ATOM      5  C   UNL     1       1.184  -2.431  -4.725  0.00  0.00    +0.052 C 
ATOM      6  C   UNL     1       1.231  -3.937  -4.667  0.00  0.00    -0.034 C 
ATOM      7  C   UNL     1       1.676  -4.838  -5.534  0.00  0.00    -0.001 A 
ATOM      8  C   UNL     1       2.174  -4.707  -6.913  0.00  0.00    +0.010 A 
ATOM      9  C   UNL     1       2.575  -5.857  -7.517  0.00  0.00    +0.001 A 
ATOM     10  C   UNL     1       2.533  -7.108  -6.894  0.00  0.00    +0.002 A 
ATOM     11  C   UNL     1       2.081  -7.322  -5.632  0.00  0.00    +0.026 A 
ATOM     12  C   UNL     1       1.622  -6.190  -4.899  0.00  0.00    +0.043 A 
ATOM     13  N   UNL     1       1.119  -6.110  -3.703  0.00  0.00    -0.375 N 
ATOM     14  C   UNL     1       0.734  -4.720  -3.456  0.00  0.00    +0.143 C 
ATOM     15  C   UNL     1       1.435  -4.125  -2.232  0.00  0.00    +0.165 C 
ATOM     16  C   UNL     1       0.865  -4.664  -0.960  0.00  0.00    +0.009 A 
ATOM     17  C   UNL     1      -0.407  -4.612  -0.432  0.00  0.00    +0.023 A 
ATOM     18  C   UNL     1      -0.606  -5.228   0.800  0.00  0.00    +0.018 A 
ATOM     19  C   UNL     1       0.428  -5.860   1.462  0.00  0.00    +0.017 A 
ATOM     20  C   UNL     1       1.709  -5.916   0.937  0.00  0.00    +0.025 A 
ATOM     21  C   UNL     1       1.921  -5.303  -0.299  0.00  0.00    +0.039 A 
ATOM     22  N   UNL     1       3.083  -5.210  -1.045  0.00  0.00    -0.283 N 
ATOM     23  C   UNL     1       2.890  -4.535  -2.199  0.00  0.00    +0.248 C 
ATOM     24  O   UNL     1       3.725  -4.302  -3.047  0.00  0.00    -0.273 OA
ATOM     25 BR   UNL     1      -2.327  -5.198   1.583  0.00  0.00    -0.050 Br
ATOM     26  H   UNL     1       3.935  -5.584  -0.772  0.00  0.00    +0.155 HD
ATOM     27  H   UNL     1       1.017  -6.846  -3.079  0.00  0.00    +0.160 HD
ENDROOT
BRANCH   1  28
ATOM     28  C   UNL     1       0.661  -0.499  -1.288  0.00  0.00    +0.096 C 
BRANCH  28  30
ATOM     29  C   UNL     1      -0.122   1.522  -0.046  0.00  0.00    +0.004 C 
ATOM     30  C   UNL     1      -0.043  -0.006  -0.023  0.00  0.00    +0.006 C 
ENDBRANCH  28  30
ENDBRANCH   1  28
TORSDOF 2
