REMARK  Name = ZINC37822163
REMARK  7 active torsions:
REMARK  status: ('A' for Active; 'I' for Inactive)
REMARK    1  A    between atoms: C_1  and  S_2
REMARK    2  A    between atoms: S_2  and  N_5
REMARK    3  A    between atoms: N_5  and  C_6
REMARK    4  A    between atoms: C_6  and  C_7
REMARK    5  A    between atoms: C_7  and  C_8
REMARK    6  A    between atoms: C_15  and  C_17
REMARK    7  A    between atoms: C_17  and  N_22
REMARK                            x       y       z     vdW  Elec       q    Type
REMARK                         _______ _______ _______ _____ _____    ______ ____
ROOT
ATOM      1  C   UNL     1       4.329  -0.198  -2.048  0.00  0.00    +0.077 C 
ATOM      2  C   UNL     1       5.626  -0.830  -2.562  0.00  0.00    +0.022 C 
ATOM      3  C   UNL     1       6.822  -0.054  -2.007  0.00  0.00    +0.003 C 
ATOM      4  C   UNL     1       6.763   1.395  -2.497  0.00  0.00    +0.019 C 
ATOM      5  C   UNL     1       5.479   2.053  -1.982  0.00  0.00    +0.108 C 
ATOM      6  N   UNL     1       4.329   1.232  -2.386  0.00  0.00    -0.300 N 
ATOM      7  C   UNL     1       3.297   1.779  -3.058  0.00  0.00    +0.204 C 
ATOM      8  O   UNL     1       2.312   1.114  -3.301  0.00  0.00    -0.277 OA
ENDROOT
BRANCH   7   9
ATOM      9  C   UNL     1       3.366   3.216  -3.506  0.00  0.00    +0.007 C 
ATOM     10  C   UNL     1       3.457   4.161  -2.283  0.00  0.00    -0.004 C 
ATOM     11  C   UNL     1       1.983   4.264  -1.819  0.00  0.00    -0.001 C 
ATOM     12  C   UNL     1       1.175   4.293  -3.133  0.00  0.00    -0.001 C 
ATOM     13  C   UNL     1       2.054   3.627  -4.205  0.00  0.00    -0.004 C 
BRANCH   9  14
ATOM     14  N   UNL     1       4.512   3.418  -4.403  0.00  0.00    +0.388 N 
ATOM     15  H   UNL     1       4.350   2.931  -5.271  0.00  0.00    -0.089 HD
ATOM     16  H   UNL     1       4.625   4.404  -4.586  0.00  0.00    -0.089 HD
ATOM     17  H   UNL     1       5.348   3.060  -3.966  0.00  0.00    -0.089 HD
ENDBRANCH   9  14
ENDBRANCH   7   9
BRANCH   1  18
ATOM     18  C   UNL     1       3.128  -0.881  -2.707  0.00  0.00    +0.039 C 
BRANCH  18  19
ATOM     19  C   UNL     1       3.180  -2.384  -2.427  0.00  0.00    +0.107 C 
BRANCH  19  20
ATOM     20  N   UNL     1       1.949  -3.014  -2.913  0.00  0.00    -0.195 NA
ATOM     21  H   UNL     1       1.179  -2.467  -3.133  0.00  0.00    +0.148 HD
BRANCH  20  23
ATOM     22  C   UNL     1       2.029  -5.313  -1.402  0.00  0.00    +0.214 C 
ATOM     23  S   UNL     1       1.873  -4.659  -3.086  0.00  0.00    +0.027 S 
ATOM     24  O   UNL     1       3.023  -4.996  -3.851  0.00  0.00    -0.158 OA
ATOM     25  O   UNL     1       0.569  -4.910  -3.591  0.00  0.00    -0.158 OA
ENDBRANCH  20  23
ENDBRANCH  19  20
ENDBRANCH  18  19
ENDBRANCH   1  18
TORSDOF 6
