REMARK  Name = ZINC38114458
REMARK  7 active torsions:
REMARK  status: ('A' for Active; 'I' for Inactive)
REMARK    1  A    between atoms: C_1  and  C_2
REMARK    2  A    between atoms: C_2  and  C_3
REMARK    3  A    between atoms: C_2  and  C_5
REMARK    4  A    between atoms: C_2  and  N_15
REMARK    5  A    between atoms: C_3  and  O_4
REMARK    6  A    between atoms: N_15  and  C_16
REMARK    7  A    between atoms: C_16  and  C_17
REMARK                            x       y       z     vdW  Elec       q    Type
REMARK                         _______ _______ _______ _____ _____    ______ ____
ROOT
ATOM      1  C   UNL     1      -0.019   1.526   0.010  0.00  0.00    +0.000 C 
ATOM      2  C   UNL     1       0.002  -0.004   0.002  0.00  0.00    +0.012 C 
ENDROOT
BRANCH   2   3
ATOM      3  C   UNL     1      -1.412  -0.526   0.013  0.00  0.00    +0.097 A 
ATOM      4  C   UNL     1      -2.314  -0.277   0.972  0.00  0.00    +0.052 A 
ATOM      5  C   UNL     1      -3.540  -0.978   0.572  0.00  0.00    +0.021 A 
ATOM      6  C   UNL     1      -4.811  -1.112   1.129  0.00  0.00    +0.027 A 
ATOM      7  C   UNL     1      -5.763  -1.866   0.477  0.00  0.00    +0.019 A 
ATOM      8  C   UNL     1      -5.460  -2.488  -0.727  0.00  0.00    +0.019 A 
ATOM      9  C   UNL     1      -4.207  -2.363  -1.286  0.00  0.00    +0.048 A 
ATOM     10  C   UNL     1      -3.232  -1.607  -0.646  0.00  0.00    +0.135 A 
ATOM     11  O   UNL     1      -1.952  -1.304  -0.941  0.00  0.00    -0.461 OA
ATOM     12 BR   UNL     1      -7.490  -2.053   1.225  0.00  0.00    -0.050 Br
ENDBRANCH   2   3
BRANCH   2  13
ATOM     13  N   UNL     1       0.690  -0.478  -1.207  0.00  0.00    +0.390 N 
ATOM     14  H   UNL     1       0.703  -1.487  -1.212  0.00  0.00    -0.084 HD
ATOM     15  H   UNL     1       0.202  -0.144  -2.024  0.00  0.00    -0.084 HD
BRANCH  13  16
ATOM     16  C   UNL     1       2.068   0.031  -1.217  0.00  0.00    -0.049 C 
BRANCH  16  17
ATOM     17  C   UNL     1       2.784  -0.463  -2.476  0.00  0.00    +0.101 C 
ATOM     18  C   UNL     1       4.252   0.034  -2.489  0.00  0.00    +0.032 C 
ATOM     19  C   UNL     1       4.917  -1.038  -3.394  0.00  0.00    +0.030 C 
ATOM     20  C   UNL     1       4.123  -2.311  -3.033  0.00  0.00    +0.160 C 
ATOM     21  O   UNL     1       2.871  -1.897  -2.470  0.00  0.00    -0.378 OA
ENDBRANCH  16  17
ENDBRANCH  13  16
ENDBRANCH   2  13
BRANCH   2  22
ATOM     22  C   UNL     1       0.742  -0.511   1.242  0.00  0.00    +0.151 C 
BRANCH  22  23
ATOM     23  O   UNL     1       0.863  -1.933   1.175  0.00  0.00    -0.396 OA
ATOM     24  H   UNL     1       1.323  -2.324   1.931  0.00  0.00    +0.209 HD
ENDBRANCH  22  23
ENDBRANCH   2  22
TORSDOF 6
