REMARK  Name = ZINC40371400
REMARK  6 active torsions:
REMARK  status: ('A' for Active; 'I' for Inactive)
REMARK    1  A    between atoms: C_1  and  C_2
REMARK    2  A    between atoms: C_5  and  C_7
REMARK    3  A    between atoms: N_9  and  C_10
REMARK    4  A    between atoms: C_10  and  C_17
REMARK    5  A    between atoms: N_13  and  C_16
REMARK    6  A    between atoms: N_18  and  O_19
REMARK                            x       y       z     vdW  Elec       q    Type
REMARK                         _______ _______ _______ _____ _____    ______ ____
ROOT
ATOM      1  C   UNL     1       0.090  -3.957   3.030  0.00  0.00    +0.089 C 
ATOM      2  C   UNL     1      -1.377  -3.650   3.345  0.00  0.00    +0.015 C 
ATOM      3  C   UNL     1      -1.451  -2.754   4.583  0.00  0.00    -0.077 C 
ATOM      4  N   UNL     1      -0.837  -3.441   5.726  0.00  0.00    +0.378 N 
ATOM      5  C   UNL     1       0.588  -3.674   5.460  0.00  0.00    -0.077 C 
ATOM      6  C   UNL     1       0.740  -4.606   4.255  0.00  0.00    +0.015 C 
ATOM      7  C   UNL     1      -0.979  -2.610   6.929  0.00  0.00    -0.096 C 
ATOM      8  H   UNL     1      -1.300  -4.325   5.873  0.00  0.00    -0.082 HD
ENDROOT
BRANCH   1   9
ATOM      9  C   UNL     1       0.169  -4.901   1.858  0.00  0.00    +0.155 C 
ATOM     10  N   UNL     1       0.634  -6.095   2.021  0.00  0.00    -0.075 NA
ATOM     11  N   UNL     1      -0.255  -4.491   0.614  0.00  0.00    -0.342 N 
ATOM     12  H   UNL     1      -0.671  -3.622   0.505  0.00  0.00    +0.144 HD
ATOM     13  H   UNL     1      -0.137  -5.072  -0.154  0.00  0.00    +0.144 HD
BRANCH  10  14
ATOM     14  O   UNL     1       0.708  -6.982   0.920  0.00  0.00    -0.408 OA
ATOM     15  H   UNL     1       1.069  -7.852   1.140  0.00  0.00    +0.328 HD
ENDBRANCH  10  14
ENDBRANCH   1   9
BRANCH   1  18
ATOM     16  C   UNL     1       2.075  -2.750   2.296  0.00  0.00    +0.217 C 
ATOM     17  O   UNL     1       2.678  -3.803   2.284  0.00  0.00    -0.275 OA
ATOM     18  N   UNL     1       0.792  -2.712   2.705  0.00  0.00    -0.303 N 
ATOM     19  H   UNL     1       0.332  -1.862   2.783  0.00  0.00    +0.150 HD
BRANCH  16  23
ATOM     20  C   UNL     1       4.677  -0.675   0.265  0.00  0.00    +0.008 C 
ATOM     21  C   UNL     1       4.220  -1.592   1.401  0.00  0.00    -0.002 C 
ATOM     22  C   UNL     1       3.883  -0.940   2.744  0.00  0.00    +0.017 C 
ATOM     23  C   UNL     1       2.763  -1.484   1.854  0.00  0.00    +0.078 C 
ENDBRANCH  16  23
ENDBRANCH   1  18
TORSDOF 4
