REMARK  Name = ZINC40144245
REMARK  6 active torsions:
REMARK  status: ('A' for Active; 'I' for Inactive)
REMARK    1  A    between atoms: C_8  and  C_10
REMARK    2  A    between atoms: C_10  and  C_12
REMARK    3  A    between atoms: C_10  and  C_14
REMARK    4  A    between atoms: C_14  and  C_16
REMARK    5  A    between atoms: C_14  and  N_23
REMARK    6  A    between atoms: C_24  and  N_25
REMARK                            x       y       z     vdW  Elec       q    Type
REMARK                         _______ _______ _______ _____ _____    ______ ____
ROOT
ATOM      1  C   UNL     1       3.898  -4.260  -1.308  0.00  0.00    +0.160 C 
ENDROOT
BRANCH   1   2
ATOM      2  C   UNL     1       4.462  -5.652  -1.182  0.00  0.00    -0.021 A 
ATOM      3  C   UNL     1       3.610  -6.731  -1.029  0.00  0.00    +0.007 A 
ATOM      4  C   UNL     1       4.126  -8.008  -0.913  0.00  0.00    +0.020 A 
ATOM      5  C   UNL     1       5.495  -8.207  -0.950  0.00  0.00    +0.041 A 
ATOM      6  C   UNL     1       6.346  -7.127  -1.104  0.00  0.00    +0.020 A 
ATOM      7  C   UNL     1       5.829  -5.851  -1.225  0.00  0.00    +0.007 A 
ATOM      8 CL   UNL     1       6.144  -9.810  -0.804  0.00  0.00    -0.084 Cl
ENDBRANCH   1   2
BRANCH   1   9
ATOM      9  N   UNL     1       2.802  -4.263  -2.281  0.00  0.00    -0.261 N 
ATOM     10  C   UNL     1       2.803  -3.632  -3.498  0.00  0.00    +0.117 A 
ATOM     11  C   UNL     1       1.601  -3.876  -4.100  0.00  0.00    +0.114 A 
ATOM     12  C   UNL     1       0.838  -4.676  -3.237  0.00  0.00    +0.266 A 
ATOM     13  O   UNL     1      -0.290  -5.086  -3.451  0.00  0.00    -0.266 OA
ATOM     14  N   UNL     1       1.571  -4.916  -2.133  0.00  0.00    -0.261 N 
ATOM     15  H   UNL     1       1.295  -5.446  -1.368  0.00  0.00    +0.190 HD
BRANCH  10  16
ATOM     16  N   UNL     1       3.829  -2.888  -4.020  0.00  0.00    -0.343 N 
ATOM     17  H   UNL     1       4.649  -2.772  -3.515  0.00  0.00    +0.144 HD
ATOM     18  H   UNL     1       3.736  -2.479  -4.894  0.00  0.00    +0.144 HD
ENDBRANCH  10  16
ENDBRANCH   1   9
BRANCH   1  19
ATOM     19  C   UNL     1       3.372  -3.797   0.052  0.00  0.00    +0.176 C 
BRANCH  19  27
ATOM     20  C   UNL     1      -0.228   1.203   0.009  0.00  0.00    +0.002 A 
ATOM     21  C   UNL     1       0.812   2.015  -0.421  0.00  0.00    +0.001 A 
ATOM     22  C   UNL     1       2.061   1.464  -0.638  0.00  0.00    +0.017 A 
ATOM     23  C   UNL     1       2.250   0.121  -0.424  0.00  0.00    +0.039 A 
ATOM     24  C   UNL     1       1.208  -0.728   0.014  0.00  0.00    +0.079 A 
ATOM     25  C   UNL     1      -0.051  -0.129   0.224  0.00  0.00    +0.029 A 
ATOM     26  N   UNL     1       1.592  -2.013   0.165  0.00  0.00    -0.243 NA
ATOM     27  C   UNL     1       2.809  -2.405  -0.075  0.00  0.00    +0.099 A 
ATOM     28  S   UNL     1       3.612  -1.007  -0.557  0.00  0.00    -0.071 S 
ENDBRANCH  19  27
BRANCH  19  29
ATOM     29  C   UNL     1       4.474  -3.794   1.028  0.00  0.00    +0.075 C 
ATOM     30  N   UNL     1       5.324  -3.792   1.782  0.00  0.00    -0.196 NA
ENDBRANCH  19  29
ENDBRANCH   1  19
TORSDOF 6
