REMARK  Name = ZINC45984281
REMARK  5 active torsions:
REMARK  status: ('A' for Active; 'I' for Inactive)
REMARK    1  A    between atoms: C_1  and  C_2
REMARK    2  A    between atoms: C_5  and  N_9
REMARK    3  A    between atoms: C_7  and  C_8
REMARK    4  A    between atoms: C_12  and  C_23
REMARK    5  A    between atoms: C_14  and  C_16
REMARK                            x       y       z     vdW  Elec       q    Type
REMARK                         _______ _______ _______ _____ _____    ______ ____
ROOT
ATOM      1  N   UNL     1       0.058  -4.172  -0.021  0.00  0.00    -0.245 N 
ATOM      2  C   UNL     1       0.069  -4.975  -1.148  0.00  0.00    +0.170 A 
ATOM      3  C   UNL     1       0.086  -6.306  -0.693  0.00  0.00    +0.117 A 
ATOM      4  C   UNL     1       0.100  -7.333  -1.637  0.00  0.00    +0.154 A 
ATOM      5  N   UNL     1       0.096  -7.011  -2.932  0.00  0.00    -0.220 NA
ATOM      6  C   UNL     1       0.079  -5.745  -3.317  0.00  0.00    +0.164 A 
ATOM      7  N   UNL     1       0.066  -4.740  -2.448  0.00  0.00    -0.208 NA
ATOM      8  N   UNL     1       0.086  -6.258   0.689  0.00  0.00    -0.303 N 
ATOM      9  H   UNL     1       0.096  -7.024   1.284  0.00  0.00    +0.171 HD
ATOM     10  C   UNL     1       0.074  -4.965   1.067  0.00  0.00    +0.333 A 
ATOM     11  O   UNL     1       0.075  -4.573   2.219  0.00  0.00    -0.246 OA
ENDROOT
BRANCH   1  16
ATOM     12  C   UNL     1      -0.018   1.503   0.010  0.00  0.00    +0.044 C 
ATOM     13  C   UNL     1       0.002  -0.004   0.002  0.00  0.00    -0.047 A 
ATOM     14  C   UNL     1       0.006  -0.688  -1.200  0.00  0.00    +0.005 A 
ATOM     15  C   UNL     1       0.024  -2.068  -1.211  0.00  0.00    +0.026 A 
ATOM     16  C   UNL     1       0.040  -2.771  -0.013  0.00  0.00    +0.053 A 
ATOM     17  C   UNL     1       0.036  -2.082   1.192  0.00  0.00    +0.030 A 
ATOM     18  C   UNL     1       0.023  -0.700   1.196  0.00  0.00    -0.046 A 
ATOM     19  C   UNL     1       0.026   0.048   2.504  0.00  0.00    +0.044 C 
ENDBRANCH   1  16
BRANCH   6  20
ATOM     20  C   UNL     1       0.075  -5.438  -4.768  0.00  0.00    +0.033 A 
ATOM     21  C   UNL     1       0.063  -4.114  -5.203  0.00  0.00    +0.013 A 
ATOM     22  C   UNL     1       0.059  -3.834  -6.554  0.00  0.00    +0.001 A 
ATOM     23  C   UNL     1       0.067  -4.865  -7.477  0.00  0.00    +0.001 A 
ATOM     24  C   UNL     1       0.079  -6.181  -7.053  0.00  0.00    +0.016 A 
ATOM     25  C   UNL     1       0.089  -6.473  -5.702  0.00  0.00    +0.029 A 
ATOM     26 BR   UNL     1       0.113  -8.273  -5.123  0.00  0.00    -0.050 Br
ENDBRANCH   6  20
BRANCH   4  27
ATOM     27  C   UNL     1       0.119  -8.752  -1.211  0.00  0.00    +0.262 C 
ATOM     28  O   UNL     1       0.123  -9.031  -0.029  0.00  0.00    -0.269 OA
ATOM     29  N   UNL     1       0.132  -9.733  -2.136  0.00  0.00    -0.324 N 
ATOM     30  H   UNL     1       0.129  -9.510  -3.080  0.00  0.00    +0.145 HD
ATOM     31  H   UNL     1       0.145 -10.662  -1.857  0.00  0.00    +0.145 HD
ENDBRANCH   4  27
TORSDOF 3
