REMARK  Name = ZINC08755441
REMARK  6 active torsions:
REMARK  status: ('A' for Active; 'I' for Inactive)
REMARK    1  A    between atoms: C_1  and  C_2
REMARK    2  A    between atoms: C_5  and  C_8
REMARK    3  A    between atoms: N_13  and  C_16
REMARK    4  A    between atoms: C_16  and  C_17
REMARK    5  A    between atoms: C_17  and  C_19
REMARK    6  A    between atoms: C_17  and  O_20
REMARK                            x       y       z     vdW  Elec       q    Type
REMARK                         _______ _______ _______ _____ _____    ______ ____
ROOT
ATOM      1  C   UNL     1      -0.873  -5.268  -2.278  0.00  0.00    +0.142 C 
ATOM      2  C   UNL     1      -0.099  -4.059  -1.795  0.00  0.00    +0.058 C 
ATOM      3  C   UNL     1       1.042  -4.278  -1.109  0.00  0.00    +0.039 C 
ATOM      4  C   UNL     1       1.598  -2.915  -0.762  0.00  0.00    +0.159 C 
ATOM      5  N   UNL     1       0.634  -1.958  -1.325  0.00  0.00    -0.290 N 
ATOM      6  C   UNL     1      -0.337  -2.675  -1.921  0.00  0.00    +0.247 C 
ATOM      7  O   UNL     1      -1.296  -2.191  -2.494  0.00  0.00    -0.270 OA
ATOM      8  N   UNL     1       1.484  -5.545  -0.858  0.00  0.00    -0.271 N 
ATOM      9  C   UNL     1       0.840  -6.648  -1.261  0.00  0.00    +0.304 C 
ATOM     10  O   UNL     1       1.311  -7.736  -0.991  0.00  0.00    -0.252 OA
ATOM     11  N   UNL     1      -0.313  -6.591  -1.956  0.00  0.00    -0.288 N 
ATOM     12  H   UNL     1       2.310  -5.652  -0.361  0.00  0.00    +0.156 HD
ATOM     13  H   UNL     1      -0.763  -7.403  -2.239  0.00  0.00    +0.151 HD
ENDROOT
BRANCH   1  18
ATOM     14  C   UNL     1      -1.365  -4.887  -8.024  0.00  0.00    +0.044 C 
ATOM     15  C   UNL     1      -1.237  -4.987  -6.525  0.00  0.00    -0.050 A 
ATOM     16  C   UNL     1      -2.293  -4.615  -5.715  0.00  0.00    +0.004 A 
ATOM     17  C   UNL     1      -2.176  -4.706  -4.341  0.00  0.00    +0.006 A 
ATOM     18  C   UNL     1      -1.002  -5.169  -3.777  0.00  0.00    -0.023 A 
ATOM     19  C   UNL     1       0.057  -5.536  -4.587  0.00  0.00    +0.006 A 
ATOM     20  C   UNL     1      -0.063  -5.450  -5.961  0.00  0.00    +0.004 A 
ENDBRANCH   1  18
BRANCH   5  21
ATOM     21  C   UNL     1       0.718  -0.497  -1.257  0.00  0.00    +0.139 C 
BRANCH  21  22
ATOM     22  C   UNL     1       0.002  -0.004   0.002  0.00  0.00    +0.129 C 
ATOM     23  C   UNL     1      -0.019   1.526   0.010  0.00  0.00    +0.039 C 
BRANCH  22  24
ATOM     24  O   UNL     1       0.693  -0.477   1.160  0.00  0.00    -0.391 OA
ATOM     25  H   UNL     1       1.611  -0.180   1.219  0.00  0.00    +0.210 HD
ENDBRANCH  22  24
ENDBRANCH  21  22
ENDBRANCH   5  21
TORSDOF 4
