REMARK  Name = ZINC15616976
REMARK  5 active torsions:
REMARK  status: ('A' for Active; 'I' for Inactive)
REMARK    1  A    between atoms: C_1  and  N_2
REMARK    2  A    between atoms: C_3  and  C_5
REMARK    3  A    between atoms: C_16  and  C_18
REMARK    4  A    between atoms: C_18  and  O_19
REMARK    5  A    between atoms: O_19  and  C_20
REMARK                            x       y       z     vdW  Elec       q    Type
REMARK                         _______ _______ _______ _____ _____    ______ ____
ROOT
ATOM      1  C   UNL     1       1.197  -1.932   0.857  0.00  0.00    +0.276 C 
ATOM      2  C   UNL     1       1.257  -0.754  -0.132  0.00  0.00    +0.168 C 
ATOM      3  N   UNL     1      -0.004  -0.004   0.001  0.00  0.00    -0.261 N 
ATOM      4  C   UNL     1      -1.195  -0.743   0.113  0.00  0.00    +0.078 A 
ATOM      5  C   UNL     1      -2.420  -0.115  -0.049  0.00  0.00    +0.027 A 
ATOM      6  C   UNL     1      -3.588  -0.846   0.064  0.00  0.00    +0.002 A 
ATOM      7  C   UNL     1      -3.534  -2.200   0.339  0.00  0.00    +0.004 A 
ATOM      8  C   UNL     1      -2.316  -2.831   0.501  0.00  0.00    +0.047 A 
ATOM      9  C   UNL     1      -1.138  -2.106   0.388  0.00  0.00    +0.143 A 
ATOM     10  O   UNL     1       0.056  -2.736   0.544  0.00  0.00    -0.476 OA
ATOM     11  C   UNL     1      -0.016   1.344   0.009  0.00  0.00    +0.258 C 
ATOM     12  O   UNL     1      -1.072   1.940   0.037  0.00  0.00    -0.272 OA
ENDROOT
BRANCH   1  15
ATOM     13  C   UNL     1       4.859  -3.044   0.952  0.00  0.00    +0.128 C 
ATOM     14  N   UNL     1       3.642  -2.238   1.076  0.00  0.00    -0.315 N 
ATOM     15  C   UNL     1       2.449  -2.761   0.730  0.00  0.00    +0.255 C 
ATOM     16  O   UNL     1       2.383  -3.899   0.316  0.00  0.00    -0.272 OA
ATOM     17  H   UNL     1       3.694  -1.328   1.407  0.00  0.00    +0.148 HD
ENDBRANCH   1  15
BRANCH  11  18
ATOM     18  C   UNL     1       1.282   2.109  -0.010  0.00  0.00    +0.325 C 
BRANCH  18  19
ATOM     19  O   UNL     1       1.013   3.506   0.120  0.00  0.00    -0.481 OA
BRANCH  19  20
ATOM     20  C   UNL     1       2.084   4.343   0.121  0.00  0.00    +0.141 A 
ATOM     21  C   UNL     1       3.367   3.829   0.005  0.00  0.00    +0.068 A 
ATOM     22  C   UNL     1       4.455   4.683   0.002  0.00  0.00    +0.063 A 
ATOM     23  C   UNL     1       4.265   6.049   0.125  0.00  0.00    +0.061 A 
ATOM     24  C   UNL     1       2.986   6.563   0.245  0.00  0.00    +0.045 A 
ATOM     25  C   UNL     1       1.895   5.713   0.244  0.00  0.00    +0.084 A 
ATOM     26 CL   UNL     1       0.291   6.359   0.396  0.00  0.00    -0.080 Cl
ATOM     27 CL   UNL     1       5.632   7.118   0.127  0.00  0.00    -0.082 Cl
ATOM     28 CL   UNL     1       6.061   4.041  -0.149  0.00  0.00    -0.082 Cl
ENDBRANCH  19  20
ENDBRANCH  18  19
ENDBRANCH  11  18
TORSDOF 4
