REMARK  Name = ZINC36264889
REMARK  5 active torsions:
REMARK  status: ('A' for Active; 'I' for Inactive)
REMARK    1  A    between atoms: C_1  and  C_2
REMARK    2  A    between atoms: C_12  and  S_14
REMARK    3  A    between atoms: S_14  and  N_17
REMARK    4  A    between atoms: N_17  and  C_18
REMARK    5  A    between atoms: C_21  and  N_23
REMARK                            x       y       z     vdW  Elec       q    Type
REMARK                         _______ _______ _______ _____ _____    ______ ____
ROOT
ATOM      1  C   UNL     1       1.316  -0.742   0.016  0.00  0.00    +0.109 C 
ATOM      2  C   UNL     1       0.002  -0.004   0.002  0.00  0.00    +0.217 C 
ATOM      3  O   UNL     1      -0.015   1.206   0.076  0.00  0.00    -0.276 OA
ATOM      4  N   UNL     1      -1.155  -0.689  -0.092  0.00  0.00    -0.271 N 
ATOM      5  C   UNL     1      -1.154  -2.159  -0.096  0.00  0.00    +0.114 C 
ATOM      6  C   UNL     1      -2.109  -2.625  -1.203  0.00  0.00    +0.024 C 
ATOM      7  C   UNL     1      -3.524  -2.158  -0.864  0.00  0.00    +0.038 C 
ATOM      8  C   UNL     1      -3.534  -0.683  -0.559  0.00  0.00    -0.024 A 
ATOM      9  C   UNL     1      -2.379  -0.012  -0.183  0.00  0.00    +0.040 A 
ATOM     10  C   UNL     1      -2.423   1.347   0.102  0.00  0.00    +0.026 A 
ATOM     11  C   UNL     1      -3.619   2.033   0.016  0.00  0.00    +0.030 A 
ATOM     12  C   UNL     1      -4.771   1.365  -0.356  0.00  0.00    +0.106 A 
ATOM     13  C   UNL     1      -4.728   0.012  -0.650  0.00  0.00    +0.034 A 
ENDROOT
BRANCH  12  14
ATOM     14  S   UNL     1      -6.296   2.240  -0.467  0.00  0.00    +0.059 S 
ATOM     15  O   UNL     1      -7.329   1.278  -0.305  0.00  0.00    -0.153 OA
ATOM     16  O   UNL     1      -6.175   3.377   0.376  0.00  0.00    -0.153 OA
BRANCH  14  17
ATOM     17  N   UNL     1      -6.421   2.811  -2.017  0.00  0.00    -0.189 NA
ATOM     18  H   UNL     1      -6.418   3.766  -2.183  0.00  0.00    +0.148 HD
BRANCH  17  19
ATOM     19  C   UNL     1      -6.536   1.873  -3.136  0.00  0.00    +0.061 C 
ATOM     20  C   UNL     1      -5.887   2.273  -4.463  0.00  0.00    +0.004 C 
ATOM     21  C   UNL     1      -7.411   2.289  -4.320  0.00  0.00    -0.055 C 
BRANCH  21  22
ATOM     22  N   UNL     1      -8.168   1.234  -5.008  0.00  0.00    +0.381 N 
ATOM     23  H   UNL     1      -8.796   0.790  -4.355  0.00  0.00    -0.090 HD
ATOM     24  H   UNL     1      -8.699   1.640  -5.763  0.00  0.00    -0.090 HD
ATOM     25  H   UNL     1      -7.527   0.548  -5.378  0.00  0.00    -0.090 HD
ENDBRANCH  21  22
ENDBRANCH  17  19
ENDBRANCH  14  17
ENDBRANCH  12  14
TORSDOF 4
