REMARK  Name = ZINC12760452
REMARK  8 active torsions:
REMARK  status: ('A' for Active; 'I' for Inactive)
REMARK    1  A    between atoms: C_1  and  C_2
REMARK    2  A    between atoms: C_5  and  N_8
REMARK    3  A    between atoms: C_18  and  S_19
REMARK    4  A    between atoms: S_19  and  C_20
REMARK    5  A    between atoms: C_20  and  C_22
REMARK    6  A    between atoms: C_20  and  C_25
REMARK    7  A    between atoms: C_22  and  C_23
REMARK    8  A    between atoms: C_22  and  C_24
REMARK                            x       y       z     vdW  Elec       q    Type
REMARK                         _______ _______ _______ _____ _____    ______ ____
ROOT
ATOM      1  N   UNL     1       2.702   0.169   0.236  0.00  0.00    -0.255 N 
ATOM      2  C   UNL     1       1.654  -0.571  -0.195  0.00  0.00    +0.267 A 
ATOM      3  O   UNL     1       1.824  -1.645  -0.743  0.00  0.00    -0.267 OA
ATOM      4  C   UNL     1       0.306  -0.032   0.024  0.00  0.00    +0.065 A 
ATOM      5  C   UNL     1      -0.836  -0.722  -0.384  0.00  0.00    +0.017 A 
ATOM      6  C   UNL     1      -2.070  -0.180  -0.158  0.00  0.00    +0.021 A 
ATOM      7  C   UNL     1      -2.201   1.052   0.474  0.00  0.00    +0.043 A 
ATOM      8  C   UNL     1      -1.090   1.752   0.891  0.00  0.00    +0.048 A 
ATOM      9  C   UNL     1       0.183   1.221   0.667  0.00  0.00    +0.080 A 
ATOM     10  N   UNL     1       1.303   1.875   1.056  0.00  0.00    -0.223 NA
ATOM     11  C   UNL     1       2.496   1.374   0.850  0.00  0.00    +0.177 A 
ATOM     12 CL   UNL     1      -3.783   1.713   0.745  0.00  0.00    -0.083 Cl
ENDROOT
BRANCH   1  17
ATOM     13  C   UNL     1       7.993  -1.739  -0.517  0.00  0.00    +0.044 C 
ATOM     14  C   UNL     1       6.588  -1.232  -0.317  0.00  0.00    -0.050 A 
ATOM     15  C   UNL     1       5.911  -1.520   0.854  0.00  0.00    +0.005 A 
ATOM     16  C   UNL     1       4.623  -1.057   1.040  0.00  0.00    +0.026 A 
ATOM     17  C   UNL     1       4.008  -0.301   0.050  0.00  0.00    +0.052 A 
ATOM     18  C   UNL     1       4.689  -0.018  -1.127  0.00  0.00    +0.026 A 
ATOM     19  C   UNL     1       5.979  -0.480  -1.305  0.00  0.00    +0.005 A 
ENDBRANCH   1  17
BRANCH  11  20
ATOM     20  S   UNL     1       3.899   2.293   1.389  0.00  0.00    -0.074 S 
BRANCH  20  21
ATOM     21  C   UNL     1       3.083   3.808   1.954  0.00  0.00    +0.143 C 
BRANCH  21  22
ATOM     22  C   UNL     1       2.514   4.544   0.769  0.00  0.00    +0.234 C 
ATOM     23  O   UNL     1       2.932   4.315  -0.345  0.00  0.00    -0.274 OA
ATOM     24  N   UNL     1       1.538   5.456   0.948  0.00  0.00    -0.239 N 
ATOM     25  C   UNL     1       1.028   6.115  -0.112  0.00  0.00    +0.303 C 
ATOM     26  O   UNL     1       1.448   5.885  -1.229  0.00  0.00    -0.253 OA
ATOM     27  N   UNL     1       0.053   7.028   0.068  0.00  0.00    -0.313 N 
ATOM     28  H   UNL     1       1.203   5.640   1.840  0.00  0.00    +0.159 HD
ATOM     29  H   UNL     1      -0.282   7.211   0.959  0.00  0.00    +0.146 HD
ATOM     30  H   UNL     1      -0.314   7.501  -0.695  0.00  0.00    +0.146 HD
ENDBRANCH  21  22
BRANCH  21  31
ATOM     31  C   UNL     1       4.102   4.699   2.667  0.00  0.00    +0.005 C 
ATOM     32  C   UNL     1       3.416   5.985   3.133  0.00  0.00    +0.009 C 
ATOM     33  C   UNL     1       4.671   3.957   3.878  0.00  0.00    +0.009 C 
ENDBRANCH  21  31
ENDBRANCH  20  21
ENDBRANCH  11  20
TORSDOF 5
