REMARK  Name = ZINC13008601
REMARK  9 active torsions:
REMARK  status: ('A' for Active; 'I' for Inactive)
REMARK    1  A    between atoms: C_1  and  N_2
REMARK    2  A    between atoms: C_10  and  C_12
REMARK    3  A    between atoms: C_12  and  C_14
REMARK    4  A    between atoms: C_12  and  N_62
REMARK    5  A    between atoms: C_14  and  N_15
REMARK    6  A    between atoms: C_16  and  C_18
REMARK    7  A    between atoms: N_20  and  C_21
REMARK    8  A    between atoms: C_31  and  N_62
REMARK    9  A    between atoms: C_32  and  N_62
REMARK                            x       y       z     vdW  Elec       q    Type
REMARK                         _______ _______ _______ _____ _____    ______ ____
ROOT
ATOM      1  N   UNL     1       4.860  -3.796   0.926  0.00  0.00    -0.309 N 
ATOM      2  C   UNL     1       4.677  -2.498   0.613  0.00  0.00    +0.299 C 
ATOM      3  O   UNL     1       5.578  -1.863   0.105  0.00  0.00    -0.265 OA
ATOM      4  H   UNL     1       4.140  -4.304   1.331  0.00  0.00    +0.149 HD
ENDROOT
BRANCH   2   5
ATOM      5  C   UNL     1       3.365  -1.841   0.890  0.00  0.00    +0.303 C 
ATOM      6  O   UNL     1       2.463  -2.476   1.397  0.00  0.00    -0.265 OA
ATOM      7  N   UNL     1       3.182  -0.543   0.577  0.00  0.00    -0.278 N 
ATOM      8  H   UNL     1       3.882  -0.051   0.119  0.00  0.00    +0.155 HD
BRANCH   7   9
ATOM      9  C   UNL     1       1.983   0.095   0.912  0.00  0.00    +0.038 A 
ATOM     10  C   UNL     1       1.991   1.429   1.299  0.00  0.00    +0.027 A 
ATOM     11  C   UNL     1       0.807   2.059   1.631  0.00  0.00    +0.051 A 
ATOM     12  C   UNL     1      -0.391   1.362   1.579  0.00  0.00    +0.162 A 
ATOM     13  C   UNL     1      -0.402   0.028   1.190  0.00  0.00    +0.164 A 
ATOM     14  C   UNL     1       0.785  -0.605   0.858  0.00  0.00    +0.072 A 
ATOM     15  O   UNL     1      -1.570  -0.669   1.126  0.00  0.00    -0.485 OA
ATOM     16  C   UNL     1      -2.690  -0.114   1.823  0.00  0.00    +0.270 C 
ATOM     17  C   UNL     1      -2.768   1.383   1.493  0.00  0.00    +0.270 C 
ATOM     18  O   UNL     1      -1.547   1.998   1.919  0.00  0.00    -0.485 OA
ENDBRANCH   7   9
ENDBRANCH   2   5
BRANCH   1  19
ATOM     19  C   UNL     1       6.147  -4.441   0.653  0.00  0.00    +0.094 C 
BRANCH  19  20
ATOM     20  C   UNL     1       6.052  -5.931   0.987  0.00  0.00    -0.021 C 
BRANCH  20  30
ATOM     21  C   UNL     1      11.918  -7.513  -0.744  0.00  0.00    +0.129 C 
ATOM     22  N   UNL     1      11.103  -8.371   0.127  0.00  0.00    -0.333 N 
ATOM     23  C   UNL     1      11.836  -8.733   1.342  0.00  0.00    +0.105 C 
ATOM     24  C   UNL     1      10.929  -9.603   2.220  0.00  0.00    +0.024 C 
ATOM     25  C   UNL     1       9.788  -8.724   2.736  0.00  0.00    +0.038 C 
ATOM     26  C   UNL     1       9.205  -7.928   1.596  0.00  0.00    -0.026 A 
ATOM     27  C   UNL     1       9.865  -7.785   0.388  0.00  0.00    +0.033 A 
ATOM     28  C   UNL     1       9.279  -7.028  -0.628  0.00  0.00    +0.023 A 
ATOM     29  C   UNL     1       8.049  -6.436  -0.436  0.00  0.00    +0.004 A 
ATOM     30  C   UNL     1       7.395  -6.581   0.773  0.00  0.00    -0.059 A 
ATOM     31  C   UNL     1       7.971  -7.326   1.783  0.00  0.00    +0.007 A 
ENDBRANCH  20  30
BRANCH  20  34
ATOM     32  C   UNL     1       5.061  -5.952  -1.222  0.00  0.00    -0.096 C 
ATOM     33  C   UNL     1       5.279  -8.015   0.027  0.00  0.00    -0.096 C 
ATOM     34  N   UNL     1       5.030  -6.561   0.124  0.00  0.00    +0.382 N 
ATOM     35  H   UNL     1       4.103  -6.408   0.538  0.00  0.00    -0.082 HD
ENDBRANCH  20  34
ENDBRANCH  19  20
ENDBRANCH   1  19
TORSDOF 6
