REMARK  Name = ZINC03130644
REMARK  10 active torsions:
REMARK  status: ('A' for Active; 'I' for Inactive)
REMARK    1  A    between atoms: C_1  and  C_2
REMARK    2  A    between atoms: C_5  and  N_9
REMARK    3  A    between atoms: C_6  and  C_8
REMARK    4  A    between atoms: N_9  and  C_10
REMARK    5  A    between atoms: C_10  and  N_12
REMARK    6  A    between atoms: N_12  and  C_13
REMARK    7  A    between atoms: C_13  and  C_15
REMARK    8  A    between atoms: C_13  and  N_19
REMARK    9  A    between atoms: N_22  and  C_23
REMARK   10  A    between atoms: N_22  and  C_24
REMARK                            x       y       z     vdW  Elec       q    Type
REMARK                         _______ _______ _______ _____ _____    ______ ____
ROOT
ATOM      1  N   UNL     1      -3.397   1.042  -1.191  0.00  0.00    -0.305 N 
ATOM      2  H   UNL     1      -3.557   1.933  -1.538  0.00  0.00    +0.150 HD
ENDROOT
BRANCH   1   3
ATOM      3  C   UNL     1      -3.373  -0.013  -2.030  0.00  0.00    +0.136 C 
ATOM      4  S   UNL     1      -3.091  -1.587  -1.418  0.00  0.00    -0.019 S 
BRANCH   3   5
ATOM      5  N   UNL     1      -3.573   0.171  -3.350  0.00  0.00    -0.297 N 
ATOM      6  H   UNL     1      -3.812   1.049  -3.687  0.00  0.00    +0.154 HD
BRANCH   5  11
ATOM      7  C   UNL     1      -3.020  -4.190  -6.936  0.00  0.00    +0.044 C 
ATOM      8  C   UNL     1      -3.167  -3.031  -5.984  0.00  0.00    -0.050 A 
ATOM      9  C   UNL     1      -2.226  -2.832  -4.989  0.00  0.00    +0.005 A 
ATOM     10  C   UNL     1      -2.358  -1.772  -4.114  0.00  0.00    +0.024 A 
ATOM     11  C   UNL     1      -3.437  -0.904  -4.234  0.00  0.00    +0.036 A 
ATOM     12  C   UNL     1      -4.381  -1.110  -5.231  0.00  0.00    -0.029 A 
ATOM     13  C   UNL     1      -4.241  -2.170  -6.106  0.00  0.00    +0.008 A 
ATOM     14  C   UNL     1      -5.556  -0.175  -5.361  0.00  0.00    +0.045 C 
ENDBRANCH   5  11
ENDBRANCH   3   5
ENDBRANCH   1   3
BRANCH   1  15
ATOM     15  C   UNL     1      -3.179   0.842   0.244  0.00  0.00    +0.212 C 
BRANCH  15  16
ATOM     16  N   UNL     1      -1.833   1.294   0.601  0.00  0.00    -0.277 N 
ATOM     17  C   UNL     1      -0.862   0.392   0.849  0.00  0.00    +0.303 C 
ATOM     18  O   UNL     1      -1.105  -0.797   0.775  0.00  0.00    -0.253 OA
ATOM     19  N   UNL     1       0.378   0.808   1.173  0.00  0.00    -0.292 N 
ATOM     20  C   UNL     1       1.434  -0.172   1.436  0.00  0.00    +0.133 C 
ATOM     21  C   UNL     1       0.670   2.241   1.262  0.00  0.00    +0.133 C 
ATOM     22  H   UNL     1      -1.639   2.243   0.660  0.00  0.00    +0.152 HD
ENDBRANCH  15  16
BRANCH  15  23
ATOM     23  C   UNL     1      -4.214   1.646   1.033  0.00  0.00    +0.225 C 
ATOM     24 CL   UNL     1      -4.043   3.397   0.637  0.00  0.00    -0.080 Cl
ATOM     25 CL   UNL     1      -5.872   1.090   0.593  0.00  0.00    -0.080 Cl
ATOM     26 CL   UNL     1      -3.947   1.400   2.799  0.00  0.00    -0.080 Cl
ENDBRANCH  15  23
ENDBRANCH   1  15
TORSDOF 6
