REMARK  Name = ZINC03147705
REMARK  6 active torsions:
REMARK  status: ('A' for Active; 'I' for Inactive)
REMARK    1  A    between atoms: C_1  and  C_2
REMARK    2  A    between atoms: C_2  and  O_3
REMARK    3  A    between atoms: O_3  and  C_4
REMARK    4  A    between atoms: C_4  and  C_6
REMARK    5  A    between atoms: C_9  and  N_12
REMARK    6  A    between atoms: C_19  and  N_23
REMARK                            x       y       z     vdW  Elec       q    Type
REMARK                         _______ _______ _______ _____ _____    ______ ____
ROOT
ATOM      1  N   UNL     1       1.068   2.010   0.003  0.00  0.00    -0.202 N 
ATOM      2  C   UNL     1       0.712   3.307   0.013  0.00  0.00    +0.258 C 
ATOM      3  O   UNL     1       1.474   4.253   0.011  0.00  0.00    -0.269 OA
ATOM      4  C   UNL     1      -0.764   3.388   0.028  0.00  0.00    +0.052 A 
ATOM      5  C   UNL     1      -1.675   4.430   0.042  0.00  0.00    +0.014 A 
ATOM      6  C   UNL     1      -3.037   4.159   0.038  0.00  0.00    +0.003 A 
ATOM      7  C   UNL     1      -3.494   2.858   0.033  0.00  0.00    +0.023 A 
ATOM      8  C   UNL     1      -2.592   1.793   0.023  0.00  0.00    +0.038 A 
ATOM      9  C   UNL     1      -1.222   2.053   0.018  0.00  0.00    +0.070 A 
ATOM     10  C   UNL     1      -0.014   1.211   0.009  0.00  0.00    +0.260 C 
ATOM     11  O   UNL     1       0.002  -0.004   0.002  0.00  0.00    -0.269 OA
ENDROOT
BRANCH   1  15
ATOM     12  C   UNL     1       5.006   0.646  -0.041  0.00  0.00    +0.059 A 
ATOM     13  C   UNL     1       4.740   2.018  -0.032  0.00  0.00    +0.017 A 
ATOM     14  C   UNL     1       3.438   2.465  -0.017  0.00  0.00    +0.025 A 
ATOM     15  C   UNL     1       2.388   1.553  -0.012  0.00  0.00    +0.045 A 
ATOM     16  C   UNL     1       2.648   0.187  -0.016  0.00  0.00    +0.025 A 
ATOM     17  C   UNL     1       3.948  -0.268  -0.036  0.00  0.00    +0.017 A 
BRANCH  12  18
ATOM     18  C   UNL     1       6.399   0.163  -0.056  0.00  0.00    +0.339 C 
ATOM     19  O   UNL     1       7.318   0.959  -0.060  0.00  0.00    -0.245 OA
BRANCH  18  20
ATOM     20  O   UNL     1       6.654  -1.160  -0.065  0.00  0.00    -0.461 OA
BRANCH  20  22
ATOM     21  C   UNL     1       8.139  -3.090  -0.088  0.00  0.00    +0.048 C 
ATOM     22  C   UNL     1       8.049  -1.562  -0.080  0.00  0.00    +0.229 C 
ENDBRANCH  20  22
ENDBRANCH  18  20
ENDBRANCH  12  18
ENDBRANCH   1  15
BRANCH   8  23
ATOM     23  N   UNL     1      -3.054   0.485   0.018  0.00  0.00    -0.357 N 
ATOM     24  H   UNL     1      -2.425  -0.252   0.012  0.00  0.00    +0.142 HD
ATOM     25  H   UNL     1      -4.008   0.308   0.022  0.00  0.00    +0.142 HD
ENDBRANCH   8  23
TORSDOF 5
