REMARK  Name = ZINC66479034
REMARK  9 active torsions:
REMARK  status: ('A' for Active; 'I' for Inactive)
REMARK    1  A    between atoms: C_1  and  C_2
REMARK    2  A    between atoms: C_2  and  N_3
REMARK    3  A    between atoms: C_4  and  C_27
REMARK    4  A    between atoms: C_5  and  C_9
REMARK    5  A    between atoms: C_6  and  C_8
REMARK    6  A    between atoms: C_9  and  N_10
REMARK    7  A    between atoms: C_11  and  C_13
REMARK    8  A    between atoms: C_13  and  N_14
REMARK    9  A    between atoms: C_20  and  C_23
REMARK                            x       y       z     vdW  Elec       q    Type
REMARK                         _______ _______ _______ _____ _____    ______ ____
ROOT
ATOM      1  C   UNL     1       6.180   0.722   4.819  0.00  0.00    +0.213 C 
ENDROOT
BRANCH   1   2
ATOM      2  N   UNL     1       7.492   0.344   5.350  0.00  0.00    -0.215 N 
ATOM      3  C   UNL     1       7.703  -0.090   6.610  0.00  0.00    +0.247 C 
ATOM      4  O   UNL     1       6.876  -0.235   7.485  0.00  0.00    -0.273 OA
ATOM      5  C   UNL     1       9.188  -0.357   6.701  0.00  0.00    +0.113 C 
ATOM      6  C   UNL     1       9.445  -1.828   7.010  0.00  0.00    +0.035 C 
ATOM      7  C   UNL     1      10.954  -2.083   7.068  0.00  0.00    +0.006 C 
ATOM      8  C   UNL     1      11.578  -1.200   8.150  0.00  0.00    -0.014 C 
ATOM      9  C   UNL     1      11.332   0.272   7.814  0.00  0.00    +0.006 C 
ATOM     10  C   UNL     1       9.825   0.537   7.760  0.00  0.00    +0.035 C 
ATOM     11  C   UNL     1      13.084  -1.463   8.216  0.00  0.00    +0.007 C 
ATOM     12  N   UNL     1       9.694  -0.015   5.366  0.00  0.00    -0.285 N 
ATOM     13  C   UNL     1       8.628   0.380   4.644  0.00  0.00    +0.310 C 
ATOM     14  O   UNL     1       8.691   0.732   3.483  0.00  0.00    -0.252 OA
ATOM     15  H   UNL     1      10.614  -0.067   5.063  0.00  0.00    +0.151 HD
ENDBRANCH   1   2
BRANCH   1  17
ATOM     16  N   UNL     1       4.288  -0.378   3.666  0.00  0.00    -0.310 N 
ATOM     17  C   UNL     1       5.513  -0.488   4.218  0.00  0.00    +0.231 C 
ATOM     18  O   UNL     1       6.077  -1.561   4.233  0.00  0.00    -0.274 OA
ATOM     19  H   UNL     1       3.837   0.480   3.654  0.00  0.00    +0.149 HD
BRANCH  16  20
ATOM     20  C   UNL     1       3.640  -1.555   3.082  0.00  0.00    +0.143 C 
BRANCH  20  23
ATOM     21  N   UNL     1       0.711  -0.489   1.189  0.00  0.00    -0.268 N 
ATOM     22  C   UNL     1       2.035  -0.732   1.279  0.00  0.00    +0.041 A 
ATOM     23  C   UNL     1       2.291  -1.165   2.535  0.00  0.00    +0.013 A 
ATOM     24  C   UNL     1       1.081  -1.189   3.237  0.00  0.00    +0.065 A 
ATOM     25  N   UNL     1       0.134  -0.778   2.432  0.00  0.00    -0.176 NA
ATOM     26  C   UNL     1       0.900  -1.609   4.673  0.00  0.00    +0.068 C 
ATOM     27  C   UNL     1       3.048  -0.551   0.178  0.00  0.00    +0.065 C 
BRANCH  21  29
ATOM     28  C   UNL     1      -0.019   1.526   0.010  0.00  0.00    +0.029 C 
ATOM     29  C   UNL     1       0.002  -0.004   0.002  0.00  0.00    +0.140 C 
ENDBRANCH  21  29
ENDBRANCH  20  23
ENDBRANCH  16  20
ENDBRANCH   1  17
TORSDOF 5
