REMARK  Name = ZINC56977244
REMARK  6 active torsions:
REMARK  status: ('A' for Active; 'I' for Inactive)
REMARK    1  A    between atoms: C_1  and  C_2
REMARK    2  A    between atoms: C_2  and  C_3
REMARK    3  A    between atoms: C_2  and  C_4
REMARK    4  A    between atoms: C_2  and  C_5
REMARK    5  A    between atoms: C_11  and  C_13
REMARK    6  A    between atoms: N_15  and  C_16
REMARK                            x       y       z     vdW  Elec       q    Type
REMARK                         _______ _______ _______ _____ _____    ______ ____
ROOT
ATOM      1  C   UNL     1       1.002  -2.029  -3.852  0.00  0.00    +0.234 C 
ATOM      2  O   UNL     1       0.129  -1.189  -3.906  0.00  0.00    -0.274 OA
ATOM      3  N   UNL     1       1.546  -2.509  -4.988  0.00  0.00    -0.302 N 
ATOM      4  H   UNL     1       2.244  -3.181  -4.945  0.00  0.00    +0.150 HD
ENDROOT
BRANCH   3   5
ATOM      5  C   UNL     1       1.083  -2.016  -6.287  0.00  0.00    +0.159 C 
ATOM      6  C   UNL     1       2.186  -2.204  -7.332  0.00  0.00    +0.032 C 
ATOM      7  C   UNL     1       2.021  -1.216  -8.472  0.00  0.00    +0.004 C 
ATOM      8  C   UNL     1       0.778  -1.450  -9.311  0.00  0.00    +0.019 C 
ATOM      9  C   UNL     1      -0.489  -1.172  -8.499  0.00  0.00    +0.104 C 
ATOM     10  N   UNL     1      -0.858  -2.396  -7.769  0.00  0.00    -0.314 N 
ATOM     11  C   UNL     1      -0.136  -2.801  -6.724  0.00  0.00    +0.233 C 
ATOM     12  O   UNL     1      -0.455  -3.806  -6.124  0.00  0.00    -0.274 OA
ATOM     13  H   UNL     1      -1.633  -2.907  -8.047  0.00  0.00    +0.149 HD
ENDBRANCH   3   5
BRANCH   1  20
ATOM     14  C   UNL     1       0.710  -0.539  -1.208  0.00  0.00    +0.222 C 
ATOM     15  O   UNL     1       1.269   0.219  -1.973  0.00  0.00    -0.275 OA
ATOM     16  N   UNL     1       0.740  -1.867  -1.435  0.00  0.00    -0.289 N 
ATOM     17  C   UNL     1       0.032  -2.890  -0.643  0.00  0.00    +0.108 C 
ATOM     18  C   UNL     1      -0.138  -4.090  -1.607  0.00  0.00    +0.021 C 
ATOM     19  C   UNL     1       1.198  -4.049  -2.394  0.00  0.00    +0.033 C 
ATOM     20  C   UNL     1       1.479  -2.536  -2.515  0.00  0.00    +0.162 C 
BRANCH  14  22
ATOM     21  C   UNL     1       0.307   1.491   0.158  0.00  0.00    +0.020 C 
ATOM     22  C   UNL     1      -0.018   0.005  -0.006  0.00  0.00    +0.039 C 
ATOM     23  C   UNL     1       0.426  -0.755   1.245  0.00  0.00    +0.020 C 
ATOM     24  C   UNL     1      -1.525  -0.170  -0.201  0.00  0.00    +0.020 C 
ENDBRANCH  14  22
ENDBRANCH   1  20
TORSDOF 3
