REMARK  Name = ZINC12777377
REMARK  3 active torsions:
REMARK  status: ('A' for Active; 'I' for Inactive)
REMARK    1  A    between atoms: C_3  and  C_9
REMARK    2  A    between atoms: N_11  and  C_12
REMARK    3  A    between atoms: C_15  and  N_18
REMARK                            x       y       z     vdW  Elec       q    Type
REMARK                         _______ _______ _______ _____ _____    ______ ____
ROOT
ATOM      1  C   UNL     1       4.961  -2.669   0.030  0.00  0.00    +0.034 A 
ATOM      2  C   UNL     1       6.121  -1.910   0.113  0.00  0.00    +0.025 A 
ATOM      3  C   UNL     1       7.350  -2.534   0.192  0.00  0.00    +0.026 A 
ATOM      4  C   UNL     1       7.427  -3.921   0.178  0.00  0.00    +0.051 A 
ATOM      5  C   UNL     1       6.267  -4.680   0.090  0.00  0.00    +0.026 A 
ATOM      6  C   UNL     1       5.038  -4.056   0.016  0.00  0.00    +0.025 A 
ENDROOT
BRANCH   4   7
ATOM      7  N   UNL     1       8.673  -4.553   0.254  0.00  0.00    -0.207 N 
ATOM      8  C   UNL     1       8.951  -5.910   0.759  0.00  0.00    +0.133 C 
ATOM      9  C   UNL     1      10.186  -6.510   0.056  0.00  0.00    +0.045 C 
ATOM     10  C   UNL     1      11.251  -5.372   0.074  0.00  0.00    +0.190 C 
ATOM     11  S   UNL     1      10.156  -3.921  -0.204  0.00  0.00    +0.046 S 
ATOM     12  O   UNL     1      10.036  -3.640  -1.592  0.00  0.00    -0.155 OA
ATOM     13  O   UNL     1      10.436  -2.892   0.734  0.00  0.00    -0.155 OA
ENDBRANCH   4   7
BRANCH   1  16
ATOM     14  C   UNL     1       2.639  -2.593   0.548  0.00  0.00    +0.250 C 
ATOM     15  O   UNL     1       2.732  -3.684   1.075  0.00  0.00    -0.270 OA
ATOM     16  N   UNL     1       3.714  -2.036  -0.045  0.00  0.00    -0.281 N 
ATOM     17  H   UNL     1       3.624  -1.197  -0.523  0.00  0.00    +0.155 HD
BRANCH  14  20
ATOM     18  C   UNL     1       0.027   0.041  -0.036  0.00  0.00    +0.002 A 
ATOM     19  C   UNL     1       1.236  -0.623  -0.048  0.00  0.00    +0.014 A 
ATOM     20  C   UNL     1       1.347  -1.877   0.557  0.00  0.00    +0.057 A 
ATOM     21  C   UNL     1       0.230  -2.451   1.170  0.00  0.00    +0.071 A 
ATOM     22  C   UNL     1      -0.975  -1.774   1.174  0.00  0.00    +0.060 A 
ATOM     23  C   UNL     1      -1.076  -0.532   0.572  0.00  0.00    +0.021 A 
ATOM     24 CL   UNL     1      -2.365  -2.484   1.935  0.00  0.00    -0.082 Cl
ATOM     25 CL   UNL     1       0.356  -4.009   1.924  0.00  0.00    -0.081 Cl
ENDBRANCH  14  20
ENDBRANCH   1  16
TORSDOF 3
