REMARK  Name = ZINC05559379
REMARK  6 active torsions:
REMARK  status: ('A' for Active; 'I' for Inactive)
REMARK    1  A    between atoms: C_1  and  C_2
REMARK    2  A    between atoms: C_7  and  C_8
REMARK    3  A    between atoms: C_10  and  C_17
REMARK    4  A    between atoms: C_11  and  C_16
REMARK    5  A    between atoms: N_19  and  C_20
REMARK    6  A    between atoms: N_19  and  C_21
REMARK                            x       y       z     vdW  Elec       q    Type
REMARK                         _______ _______ _______ _____ _____    ______ ____
ROOT
ATOM      1  C   UNL     1       0.068  -0.015  -0.023  0.00  0.00    +0.142 C 
ATOM      2  C   UNL     1       0.000   1.497   0.043  0.00  0.00    +0.056 C 
ATOM      3  C   UNL     1       1.165   2.177   0.080  0.00  0.00    +0.019 C 
ATOM      4  N   UNL     1       2.365   1.524   0.060  0.00  0.00    -0.273 N 
ATOM      5  C   UNL     1       2.483   0.191   0.003  0.00  0.00    +0.304 C 
ATOM      6  O   UNL     1       3.595  -0.300  -0.011  0.00  0.00    -0.252 OA
ATOM      7  N   UNL     1       1.410  -0.623  -0.040  0.00  0.00    -0.288 N 
ATOM      8  C   UNL     1       1.142   3.683   0.145  0.00  0.00    +0.061 C 
ATOM      9  H   UNL     1       3.176   2.055   0.089  0.00  0.00    +0.156 HD
ATOM     10  H   UNL     1       1.518  -1.586  -0.081  0.00  0.00    +0.151 HD
ENDROOT
BRANCH   1  17
ATOM     11  C   UNL     1      -2.760  -0.573  -0.218  0.00  0.00    +0.044 C 
ATOM     12  C   UNL     1      -2.028  -0.833   1.073  0.00  0.00    -0.045 A 
ATOM     13  C   UNL     1      -2.709  -1.342   2.164  0.00  0.00    +0.004 A 
ATOM     14  C   UNL     1      -2.039  -1.575   3.350  0.00  0.00    +0.000 A 
ATOM     15  C   UNL     1      -0.686  -1.304   3.444  0.00  0.00    +0.000 A 
ATOM     16  C   UNL     1      -0.005  -0.799   2.353  0.00  0.00    +0.006 A 
ATOM     17  C   UNL     1      -0.675  -0.566   1.167  0.00  0.00    -0.020 A 
ENDBRANCH   1  17
BRANCH   2  18
ATOM     18  C   UNL     1      -1.244   2.174   0.058  0.00  0.00    +0.246 C 
ATOM     19  O   UNL     1      -1.907   2.208   1.079  0.00  0.00    -0.270 OA
ATOM     20  N   UNL     1      -1.695   2.780  -1.058  0.00  0.00    -0.304 N 
ATOM     21  C   UNL     1      -2.919   3.584  -1.012  0.00  0.00    +0.132 C 
ATOM     22  C   UNL     1      -0.962   2.635  -2.318  0.00  0.00    +0.132 C 
ENDBRANCH   2  18
TORSDOF 2
