REMARK  Name = ZINC43706765
REMARK  3 active torsions:
REMARK  status: ('A' for Active; 'I' for Inactive)
REMARK    1  A    between atoms: C_4  and  N_10
REMARK    2  A    between atoms: C_6  and  N_9
REMARK    3  A    between atoms: C_17  and  C_20
REMARK                            x       y       z     vdW  Elec       q    Type
REMARK                         _______ _______ _______ _____ _____    ______ ____
ROOT
ATOM      1  N   UNL     1       2.862  -0.449  -0.080  0.00  0.00    -0.298 N 
ATOM      2  C   UNL     1       4.205  -0.564  -0.096  0.00  0.00    +0.303 C 
ATOM      3  O   UNL     1       4.821  -0.352  -1.123  0.00  0.00    -0.253 OA
ATOM      4  N   UNL     1       4.865  -0.913   1.026  0.00  0.00    -0.280 N 
ATOM      5  C   UNL     1       4.137  -1.291   2.247  0.00  0.00    +0.137 C 
ATOM      6  C   UNL     1       4.698  -2.625   2.752  0.00  0.00    +0.180 C 
ATOM      7  O   UNL     1       6.119  -2.524   2.866  0.00  0.00    -0.362 OA
ATOM      8  C   UNL     1       6.790  -2.281   1.628  0.00  0.00    +0.248 C 
ATOM      9  C   UNL     1       6.336  -0.934   1.064  0.00  0.00    +0.152 C 
ATOM     10  H   UNL     1       2.365  -0.687   0.718  0.00  0.00    +0.150 HD
ENDROOT
BRANCH   1  14
ATOM     11  C   UNL     1      -0.012   1.540   0.010  0.00  0.00    -0.001 C 
ATOM     12  C   UNL     1       1.425   2.064  -0.004  0.00  0.00    +0.002 C 
ATOM     13  C   UNL     1       2.139   1.566  -1.262  0.00  0.00    +0.021 C 
ATOM     14  C   UNL     1       2.154   0.036  -1.267  0.00  0.00    +0.060 C 
ATOM     15  C   UNL     1       0.717  -0.489  -1.253  0.00  0.00    -0.054 C 
ATOM     16  C   UNL     1       0.004   0.010   0.005  0.00  0.00    -0.014 C 
BRANCH  15  17
ATOM     17  N   UNL     1       0.732  -1.958  -1.258  0.00  0.00    +0.381 N 
ATOM     18  H   UNL     1       1.220  -2.292  -0.440  0.00  0.00    -0.090 HD
ATOM     19  H   UNL     1      -0.215  -2.304  -1.249  0.00  0.00    -0.090 HD
ATOM     20  H   UNL     1       1.203  -2.287  -2.088  0.00  0.00    -0.090 HD
ENDBRANCH  15  17
ENDBRANCH   1  14
BRANCH   8  21
ATOM     21  C   UNL     1       8.280  -2.256   1.859  0.00  0.00    +0.386 C 
ATOM     22  O   UNL     1       8.726  -2.432   2.979  0.00  0.00    -0.243 OA
ATOM     23  O   UNL     1       9.038  -2.062   0.924  0.00  0.00    -0.243 OA
ENDBRANCH   8  21
TORSDOF 3
