REMARK  Name = ZINC51617012
REMARK  3 active torsions:
REMARK  status: ('A' for Active; 'I' for Inactive)
REMARK    1  A    between atoms: C_2  and  N_14
REMARK    2  A    between atoms: C_5  and  N_8
REMARK    3  A    between atoms: C_21  and  C_24
REMARK                            x       y       z     vdW  Elec       q    Type
REMARK                         _______ _______ _______ _____ _____    ______ ____
ROOT
ATOM      1  N   UNL     1       1.160   3.496  -0.051  0.00  0.00    -0.269 N 
ATOM      2  C   UNL     1       2.310   4.181   0.104  0.00  0.00    +0.307 C 
ATOM      3  O   UNL     1       3.370   3.587   0.145  0.00  0.00    -0.252 OA
ATOM      4  N   UNL     1       2.285   5.524   0.212  0.00  0.00    -0.280 N 
ATOM      5  C   UNL     1       1.012   6.250   0.346  0.00  0.00    +0.137 C 
ATOM      6  C   UNL     1       1.121   7.200   1.544  0.00  0.00    +0.180 C 
ATOM      7  O   UNL     1       2.297   8.001   1.405  0.00  0.00    -0.364 OA
ATOM      8  C   UNL     1       3.516   7.255   1.407  0.00  0.00    +0.221 C 
ATOM      9  C   UNL     1       3.531   6.308   0.207  0.00  0.00    +0.150 C 
ATOM     10  H   UNL     1       0.330   3.972  -0.215  0.00  0.00    +0.156 HD
ENDROOT
BRANCH   1  12
ATOM     11  C   UNL     1      -0.008   1.417   0.338  0.00  0.00    +0.063 A 
ATOM     12  C   UNL     1       1.161   2.096   0.025  0.00  0.00    +0.040 A 
ATOM     13  C   UNL     1       2.333   1.390  -0.213  0.00  0.00    +0.063 A 
ATOM     14  C   UNL     1       2.335   0.009  -0.139  0.00  0.00    +0.149 A 
ATOM     15  C   UNL     1       1.165  -0.671   0.174  0.00  0.00    +0.101 A 
ATOM     16  C   UNL     1      -0.007   0.036   0.413  0.00  0.00    +0.149 A 
ATOM     17  F   UNL     1      -1.145  -0.625   0.718  0.00  0.00    -0.203 F 
ATOM     18  F   UNL     1       3.475  -0.678  -0.371  0.00  0.00    -0.203 F 
BRANCH  15  19
ATOM     19  N   UNL     1       1.166  -2.072   0.249  0.00  0.00    -0.325 N 
ATOM     20  C   UNL     1       0.899  -2.990  -0.867  0.00  0.00    +0.105 C 
ATOM     21  C   UNL     1       0.984  -4.427  -0.310  0.00  0.00    +0.020 C 
ATOM     22  C   UNL     1       0.736  -4.226   1.208  0.00  0.00    +0.020 C 
ATOM     23  C   UNL     1       1.443  -2.868   1.460  0.00  0.00    +0.105 C 
ENDBRANCH  15  19
ENDBRANCH   1  12
BRANCH   8  24
ATOM     24  C   UNL     1       4.685   8.202   1.318  0.00  0.00    +0.241 C 
ATOM     25  O   UNL     1       4.493   9.390   1.167  0.00  0.00    -0.273 OA
ATOM     26  N   UNL     1       5.944   7.729   1.405  0.00  0.00    -0.327 N 
ATOM     27  H   UNL     1       6.098   6.778   1.526  0.00  0.00    +0.145 HD
ATOM     28  H   UNL     1       6.697   8.338   1.348  0.00  0.00    +0.145 HD
ENDBRANCH   8  24
TORSDOF 3
