REMARK  Name = ZINC04973600
REMARK  2 active torsions:
REMARK  status: ('A' for Active; 'I' for Inactive)
REMARK    1  A    between atoms: C_8  and  C_24
REMARK    2  A    between atoms: C_14  and  C_19
REMARK                            x       y       z     vdW  Elec       q    Type
REMARK                         _______ _______ _______ _____ _____    ______ ____
ROOT
ATOM      1  C   UNL     1       3.648   2.914  -0.173  0.00  0.00    +0.002 A 
ATOM      2  C   UNL     1       3.330   2.183   0.956  0.00  0.00    +0.002 A 
ATOM      3  C   UNL     1       2.110   1.534   1.048  0.00  0.00    +0.025 A 
ATOM      4  C   UNL     1       1.212   1.628  -0.001  0.00  0.00    +0.052 A 
ATOM      5  C   UNL     1       1.514   2.391  -1.118  0.00  0.00    +0.049 A 
ATOM      6  C   UNL     1       2.744   3.022  -1.216  0.00  0.00    +0.025 A 
ATOM      7  N   UNL     1       0.532   2.559  -2.093  0.00  0.00    -0.329 N 
ATOM      8  C   UNL     1      -0.696   3.269  -1.804  0.00  0.00    +0.172 C 
ATOM      9  C   UNL     1      -1.576   2.602  -0.773  0.00  0.00    +0.039 C 
ATOM     10  C   UNL     1      -1.222   1.579   0.017  0.00  0.00    +0.017 C 
ATOM     11  N   UNL     1      -0.011   0.966   0.007  0.00  0.00    -0.316 N 
ATOM     12  C   UNL     1      -2.203   1.030   1.039  0.00  0.00    +0.060 C 
ATOM     13  C   UNL     1      -3.629   1.141   0.503  0.00  0.00    +0.039 C 
ATOM     14  C   UNL     1      -3.914   2.624   0.239  0.00  0.00    +0.088 C 
ATOM     15  C   UNL     1      -2.877   3.151  -0.691  0.00  0.00    +0.163 C 
ATOM     16  O   UNL     1      -3.165   4.085  -1.414  0.00  0.00    -0.292 OA
ATOM     17  H   UNL     1       0.673   2.193  -2.980  0.00  0.00    +0.147 HD
ATOM     18  H   UNL     1       0.002  -0.004   0.002  0.00  0.00    +0.152 HD
ENDROOT
BRANCH  13  19
ATOM     19  C   UNL     1      -4.602   0.608   1.523  0.00  0.00    -0.006 A 
ATOM     20  C   UNL     1      -5.480  -0.418   1.411  0.00  0.00    +0.011 A 
ATOM     21  C   UNL     1      -6.283  -0.735   2.490  0.00  0.00    +0.008 A 
ATOM     22  C   UNL     1      -6.168  -0.010   3.630  0.00  0.00    +0.045 A 
ATOM     23  S   UNL     1      -4.890   1.159   3.197  0.00  0.00    -0.101 S 
ENDBRANCH  13  19
BRANCH   8  24
ATOM     24  C   UNL     1      -0.346   4.650  -1.313  0.00  0.00    +0.130 A 
ATOM     25  C   UNL     1      -0.992   5.786  -1.631  0.00  0.00    +0.047 A 
ATOM     26  C   UNL     1      -0.332   6.836  -0.953  0.00  0.00    +0.041 A 
ATOM     27  C   UNL     1       0.678   6.279  -0.261  0.00  0.00    +0.195 A 
ATOM     28  O   UNL     1       0.661   4.954  -0.478  0.00  0.00    -0.466 OA
ENDBRANCH   8  24
TORSDOF 2
