REMARK  Name = ZINC39098766
REMARK  5 active torsions:
REMARK  status: ('A' for Active; 'I' for Inactive)
REMARK    1  A    between atoms: C_1  and  C_2
REMARK    2  A    between atoms: C_7  and  C_17
REMARK    3  A    between atoms: C_7  and  C_18
REMARK    4  A    between atoms: C_10  and  O_16
REMARK    5  A    between atoms: C_13  and  O_15
REMARK                            x       y       z     vdW  Elec       q    Type
REMARK                         _______ _______ _______ _____ _____    ______ ____
ROOT
ATOM      1  C   UNL     1      -0.320   1.407   0.735  0.00  0.00    +0.018 C 
ATOM      2  C   UNL     1      -0.223  -0.118   0.667  0.00  0.00    +0.016 C 
ATOM      3  C   UNL     1       0.057  -0.516  -0.785  0.00  0.00    +0.021 C 
ATOM      4  C   UNL     1       1.365   0.128  -1.252  0.00  0.00    +0.076 C 
ATOM      5  C   UNL     1       2.482  -0.313  -0.332  0.00  0.00    +0.143 C 
ATOM      6  O   UNL     1       3.477  -0.840  -0.771  0.00  0.00    -0.296 OA
ATOM      7  C   UNL     1       2.318  -0.075   1.154  0.00  0.00    +0.045 C 
ATOM      8  C   UNL     1       0.915  -0.556   1.542  0.00  0.00    -0.050 C 
ATOM      9  C   UNL     1       0.777  -1.290   2.606  0.00  0.00    +0.005 C 
ATOM     10  C   UNL     1      -0.558  -1.782   3.090  0.00  0.00    +0.140 C 
ATOM     11  C   UNL     1      -1.639  -0.800   2.626  0.00  0.00    +0.067 C 
ATOM     12  C   UNL     1      -1.561  -0.699   1.095  0.00  0.00    +0.127 C 
ATOM     13  C   UNL     1       2.471   1.416   1.462  0.00  0.00    +0.023 C 
ATOM     14  C   UNL     1       3.367  -0.877   1.928  0.00  0.00    +0.023 C 
ENDROOT
BRANCH  12  15
ATOM     15  O   UNL     1      -1.714  -1.998   0.518  0.00  0.00    -0.391 OA
ATOM     16  H   UNL     1      -2.547  -2.433   0.747  0.00  0.00    +0.210 HD
ENDBRANCH  12  15
BRANCH  10  17
ATOM     17  O   UNL     1      -0.817  -3.078   2.546  0.00  0.00    -0.388 OA
ATOM     18  H   UNL     1      -0.162  -3.746   2.792  0.00  0.00    +0.210 HD
ENDBRANCH  10  17
TORSDOF 2
