REMARK  Name = ZINC21818600
REMARK  6 active torsions:
REMARK  status: ('A' for Active; 'I' for Inactive)
REMARK    1  A    between atoms: C_1  and  C_2
REMARK    2  A    between atoms: C_2  and  C_4
REMARK    3  A    between atoms: C_2  and  O_15
REMARK    4  A    between atoms: N_6  and  C_7
REMARK    5  A    between atoms: C_11  and  N_13
REMARK    6  A    between atoms: O_15  and  C_16
REMARK                            x       y       z     vdW  Elec       q    Type
REMARK                         _______ _______ _______ _____ _____    ______ ____
ROOT
ATOM      1  C   UNL     1       3.586   3.504   0.122  0.00  0.00    +0.258 C 
ATOM      2  O   UNL     1       2.554   4.115   0.304  0.00  0.00    -0.271 OA
ATOM      3  N   UNL     1       3.606   2.162   0.249  0.00  0.00    -0.282 N 
ATOM      4  H   UNL     1       4.557   1.616   0.166  0.00  0.00    +0.155 HD
ENDROOT
BRANCH   3   5
ATOM      5  C   UNL     1       2.416   1.464   0.489  0.00  0.00    +0.035 A 
ATOM      6  C   UNL     1       2.430   0.315   1.270  0.00  0.00    +0.025 A 
ATOM      7  C   UNL     1       1.256  -0.374   1.507  0.00  0.00    +0.023 A 
ATOM      8  C   UNL     1       0.065   0.076   0.968  0.00  0.00    +0.062 A 
ATOM      9  C   UNL     1       0.046   1.225   0.186  0.00  0.00    +0.045 A 
ATOM     10  C   UNL     1       1.223   1.920  -0.053  0.00  0.00    +0.047 A 
ATOM     11 CL   UNL     1      -1.407  -0.794   1.269  0.00  0.00    -0.082 Cl
BRANCH   9  12
ATOM     12  N   UNL     1      -1.158   1.681  -0.358  0.00  0.00    -0.357 N 
ATOM     13  H   UNL     1      -1.173   2.590  -0.977  0.00  0.00    +0.142 HD
ATOM     14  H   UNL     1      -2.091   1.130  -0.168  0.00  0.00    +0.142 HD
ENDBRANCH   9  12
ENDBRANCH   3   5
BRANCH   1  16
ATOM     15  C   UNL     1       5.917   3.990   0.814  0.00  0.00    +0.062 C 
ATOM     16  C   UNL     1       4.845   4.244  -0.248  0.00  0.00    +0.256 C 
BRANCH  16  17
ATOM     17  O   UNL     1       4.570   5.645  -0.321  0.00  0.00    -0.480 OA
BRANCH  17  18
ATOM     18  C   UNL     1       5.382   6.392  -1.114  0.00  0.00    +0.123 A 
ATOM     19  C   UNL     1       6.491   5.814  -1.715  0.00  0.00    +0.046 A 
ATOM     20  C   UNL     1       7.315   6.575  -2.520  0.00  0.00    +0.005 A 
ATOM     21  C   UNL     1       7.037   7.913  -2.729  0.00  0.00    +0.020 A 
ATOM     22  C   UNL     1       5.931   8.493  -2.132  0.00  0.00    +0.044 A 
ATOM     23  C   UNL     1       5.101   7.733  -1.329  0.00  0.00    +0.065 A 
ATOM     24 CL   UNL     1       5.584  10.173  -2.396  0.00  0.00    -0.083 Cl
ENDBRANCH  17  18
ENDBRANCH  16  17
ENDBRANCH   1  16
TORSDOF 5
