REMARK  Name = ZINC51168700
REMARK  8 active torsions:
REMARK  status: ('A' for Active; 'I' for Inactive)
REMARK    1  A    between atoms: C_1  and  C_2
REMARK    2  A    between atoms: C_2  and  C_3
REMARK    3  A    between atoms: C_2  and  C_4
REMARK    4  A    between atoms: C_2  and  C_5
REMARK    5  A    between atoms: C_7  and  N_18
REMARK    6  A    between atoms: C_9  and  C_11
REMARK    7  A    between atoms: C_14  and  O_17
REMARK    8  A    between atoms: N_18  and  N_19
REMARK                            x       y       z     vdW  Elec       q    Type
REMARK                         _______ _______ _______ _____ _____    ______ ____
ROOT
ATOM      1  C   UNL     1       0.707  -0.490  -1.238  0.00  0.00    +0.052 A 
ATOM      2  C   UNL     1       2.084  -0.418  -1.331  0.00  0.00    +0.068 A 
ATOM      3  C   UNL     1       2.699  -0.880  -2.498  0.00  0.00    +0.136 A 
ATOM      4  N   UNL     1       1.942  -1.371  -3.474  0.00  0.00    -0.212 NA
ATOM      5  C   UNL     1       0.624  -1.423  -3.345  0.00  0.00    +0.162 A 
ATOM      6  N   UNL     1       0.015  -0.996  -2.247  0.00  0.00    -0.232 NA
ENDROOT
BRANCH   5   7
ATOM      7  C   UNL     1      -0.190  -1.976  -4.453  0.00  0.00    +0.019 A 
ATOM      8  C   UNL     1      -1.578  -2.034  -4.340  0.00  0.00    +0.015 A 
ATOM      9  C   UNL     1      -2.332  -2.550  -5.372  0.00  0.00    +0.046 A 
ATOM     10  C   UNL     1      -1.710  -3.011  -6.525  0.00  0.00    +0.117 A 
ATOM     11  C   UNL     1      -0.327  -2.955  -6.641  0.00  0.00    +0.046 A 
ATOM     12  C   UNL     1       0.432  -2.435  -5.614  0.00  0.00    +0.015 A 
BRANCH  10  13
ATOM     13  O   UNL     1      -2.455  -3.519  -7.540  0.00  0.00    -0.507 OA
ATOM     14  H   UNL     1      -2.734  -2.861  -8.191  0.00  0.00    +0.292 HD
ENDBRANCH  10  13
ENDBRANCH   5   7
BRANCH   1  16
ATOM     15  C   UNL     1      -0.019   1.526   0.010  0.00  0.00    +0.017 C 
ATOM     16  C   UNL     1       0.002  -0.004   0.002  0.00  0.00    +0.005 C 
ATOM     17  C   UNL     1       0.742  -0.511   1.242  0.00  0.00    +0.017 C 
ATOM     18  C   UNL     1      -1.433  -0.534   0.013  0.00  0.00    +0.017 C 
ENDBRANCH   1  16
BRANCH   3  19
ATOM     19  N   UNL     1       4.076  -0.826  -2.636  0.00  0.00    -0.267 N 
ATOM     20  H   UNL     1       4.622  -0.466  -1.919  0.00  0.00    +0.167 HD
BRANCH  19  21
ATOM     21  N   UNL     1       4.666  -1.281  -3.781  0.00  0.00    -0.255 NA
ATOM     22  H   UNL     1       4.291  -0.812  -4.592  0.00  0.00    +0.140 HD
ATOM     23  H   UNL     1       5.669  -1.178  -3.736  0.00  0.00    +0.140 HD
ENDBRANCH  19  21
ENDBRANCH   3  19
TORSDOF 5
