REMARK  Name = ZINC39544568
REMARK  6 active torsions:
REMARK  status: ('A' for Active; 'I' for Inactive)
REMARK    1  A    between atoms: C_1  and  C_2
REMARK    2  A    between atoms: C_2  and  C_3
REMARK    3  A    between atoms: C_3  and  N_4
REMARK    4  A    between atoms: C_5  and  C_7
REMARK    5  A    between atoms: C_10  and  C_21
REMARK    6  A    between atoms: C_26  and  O_27
REMARK                            x       y       z     vdW  Elec       q    Type
REMARK                         _______ _______ _______ _____ _____    ______ ____
ROOT
ATOM      1  C   UNL     1      -0.362  -4.157  -1.568  0.00  0.00    +0.149 C 
ATOM      2  C   UNL     1       0.597  -4.676  -2.656  0.00  0.00    +0.069 C 
ATOM      3  C   UNL     1      -0.285  -5.499  -3.567  0.00  0.00    -0.000 C 
ATOM      4  C   UNL     1      -1.530  -5.466  -3.114  0.00  0.00    +0.079 C 
ATOM      5  N   UNL     1      -2.630  -6.136  -3.669  0.00  0.00    -0.303 N 
ATOM      6  C   UNL     1      -3.552  -6.635  -2.733  0.00  0.00    +0.037 A 
ATOM      7  C   UNL     1      -4.617  -7.414  -3.161  0.00  0.00    +0.023 A 
ATOM      8  C   UNL     1      -5.529  -7.896  -2.242  0.00  0.00    +0.002 A 
ATOM      9  C   UNL     1      -5.374  -7.599  -0.899  0.00  0.00    +0.000 A 
ATOM     10  C   UNL     1      -4.311  -6.827  -0.472  0.00  0.00    +0.007 A 
ATOM     11  C   UNL     1      -3.389  -6.343  -1.386  0.00  0.00    -0.010 A 
ATOM     12  C   UNL     1      -2.226  -5.525  -0.888  0.00  0.00    +0.124 C 
ATOM     13  N   UNL     1      -1.679  -4.687  -1.956  0.00  0.00    -0.370 NA
ATOM     14  H   UNL     1      -2.746  -6.247  -4.625  0.00  0.00    +0.153 HD
ATOM     15  H   UNL     1      -2.312  -3.923  -2.140  0.00  0.00    +0.128 HD
ENDROOT
BRANCH   3  16
ATOM     16  C   UNL     1       0.168  -6.223  -4.770  0.00  0.00    +0.023 A 
ATOM     17  C   UNL     1      -0.114  -5.719  -6.041  0.00  0.00    +0.012 A 
ATOM     18  C   UNL     1       0.313  -6.401  -7.162  0.00  0.00    +0.001 A 
ATOM     19  C   UNL     1       1.020  -7.583  -7.032  0.00  0.00    +0.004 A 
ATOM     20  C   UNL     1       1.305  -8.093  -5.778  0.00  0.00    +0.046 A 
ATOM     21  C   UNL     1       0.890  -7.418  -4.643  0.00  0.00    +0.124 A 
BRANCH  21  22
ATOM     22  O   UNL     1       1.175  -7.915  -3.411  0.00  0.00    -0.506 OA
ATOM     23  H   UNL     1       0.502  -8.516  -3.064  0.00  0.00    +0.292 HD
ENDBRANCH  21  22
ENDBRANCH   3  16
BRANCH   1  25
ATOM     24  N   UNL     1       0.738  -1.962  -1.265  0.00  0.00    -0.237 N 
ATOM     25  C   UNL     1      -0.383  -2.650  -1.560  0.00  0.00    +0.244 C 
ATOM     26  O   UNL     1      -1.408  -2.056  -1.819  0.00  0.00    -0.273 OA
ATOM     27 BR   UNL     1       2.302  -2.868  -0.870  0.00  0.00    +0.039 Br
BRANCH  24  28
ATOM     28  C   UNL     1       0.718  -0.497  -1.257  0.00  0.00    +0.121 C 
BRANCH  28  30
ATOM     29  C   UNL     1      -0.019   1.526   0.010  0.00  0.00    +0.005 C 
ATOM     30  C   UNL     1       0.002  -0.004   0.002  0.00  0.00    +0.017 C 
ENDBRANCH  28  30
ENDBRANCH  24  28
ENDBRANCH   1  25
TORSDOF 5
