REMARK  Name = ZINC63646907
REMARK  5 active torsions:
REMARK  status: ('A' for Active; 'I' for Inactive)
REMARK    1  A    between atoms: C_1  and  C_2
REMARK    2  A    between atoms: C_2  and  C_3
REMARK    3  A    between atoms: C_5  and  S_9
REMARK    4  A    between atoms: S_9  and  C_10
REMARK    5  A    between atoms: C_10  and  C_11
REMARK                            x       y       z     vdW  Elec       q    Type
REMARK                         _______ _______ _______ _____ _____    ______ ____
ROOT
ATOM      1  C   UNL     1       6.404  -1.664  -2.123  0.00  0.00    +0.021 C 
ATOM      2  N   UNL     1       6.782  -2.979  -2.262  0.00  0.00    -0.319 N 
ATOM      3  C   UNL     1       8.183  -3.311  -1.968  0.00  0.00    +0.230 C 
ATOM      4  N   UNL     1       9.015  -2.298  -2.684  0.00  0.00    -0.245 N 
ATOM      5  C   UNL     1      10.102  -2.842  -3.339  0.00  0.00    +0.088 C 
ATOM      6  C   UNL     1      10.195  -4.143  -3.595  0.00  0.00    +0.059 C 
ATOM      7  S   UNL     1       8.662  -4.822  -2.902  0.00  0.00    -0.090 S 
ATOM      8  C   UNL     1       8.636  -0.993  -2.702  0.00  0.00    +0.247 C 
ATOM      9  O   UNL     1       9.418  -0.117  -3.025  0.00  0.00    -0.270 OA
ATOM     10  C   UNL     1       7.302  -0.680  -2.338  0.00  0.00    +0.087 C 
ATOM     11  H   UNL     1       6.151  -3.659  -2.543  0.00  0.00    +0.148 HD
ENDROOT
BRANCH   1  12
ATOM     12  C   UNL     1       4.987  -1.323  -1.737  0.00  0.00    +0.128 C 
BRANCH  12  13
ATOM     13  S   UNL     1       3.894  -1.577  -3.162  0.00  0.00    -0.081 S 
BRANCH  13  16
ATOM     14  C   UNL     1       0.707  -0.490  -1.238  0.00  0.00    +0.152 A 
ATOM     15  N   UNL     1       2.015  -0.730  -1.339  0.00  0.00    -0.206 NA
ATOM     16  C   UNL     1       2.297  -1.141  -2.558  0.00  0.00    +0.185 A 
ATOM     17  H   UNL     1       1.037  -1.432  -4.190  0.00  0.00    +0.191 HD
ATOM     18  N   UNL     1       1.145  -1.169  -3.262  0.00  0.00    -0.254 N 
ATOM     19  N   UNL     1       0.135  -0.749  -2.382  0.00  0.00    -0.157 NA
BRANCH  14  21
ATOM     20  C   UNL     1      -0.019   1.526   0.010  0.00  0.00    +0.012 C 
ATOM     21  C   UNL     1       0.002  -0.004   0.002  0.00  0.00    +0.075 C 
ENDBRANCH  14  21
ENDBRANCH  13  16
ENDBRANCH  12  13
ENDBRANCH   1  12
TORSDOF 4
