REMARK  Name = ZINC35422946
REMARK  6 active torsions:
REMARK  status: ('A' for Active; 'I' for Inactive)
REMARK    1  A    between atoms: C_1  and  C_2
REMARK    2  A    between atoms: C_5  and  C_7
REMARK    3  A    between atoms: C_18  and  O_33
REMARK    4  A    between atoms: C_22  and  C_32
REMARK    5  A    between atoms: C_27  and  C_31
REMARK    6  A    between atoms: C_28  and  O_30
REMARK                            x       y       z     vdW  Elec       q    Type
REMARK                         _______ _______ _______ _____ _____    ______ ____
ROOT
ATOM      1  C   UNL     1       1.777  -2.476  -0.104  0.00  0.00    +0.048 C 
ATOM      2  C   UNL     1       3.103  -2.547  -0.075  0.00  0.00    -0.037 C 
ATOM      3  C   UNL     1       4.074  -1.367  -0.024  0.00  0.00    +0.038 C 
ATOM      4  C   UNL     1       5.438  -2.009  -0.320  0.00  0.00    +0.005 C 
ATOM      5  C   UNL     1       6.664  -1.235   0.040  0.00  0.00    +0.001 C 
ATOM      6  C   UNL     1       6.440  -0.096   1.035  0.00  0.00    +0.031 C 
ATOM      7  C   UNL     1       7.769   0.591   1.223  0.00  0.00    -0.027 C 
ATOM      8  C   UNL     1       8.913   0.008   1.029  0.00  0.00    -0.065 C 
ATOM      9  C   UNL     1      10.187   0.814   1.205  0.00  0.00    +0.062 C 
ATOM     10  C   UNL     1      11.164   0.400   0.100  0.00  0.00    +0.119 C 
ATOM     11  C   UNL     1      10.395  -0.169  -1.089  0.00  0.00    +0.032 C 
ATOM     12  C   UNL     1       9.736  -1.504  -0.748  0.00  0.00    +0.014 C 
ATOM     13  C   UNL     1       9.075  -1.437   0.622  0.00  0.00    -0.008 C 
ATOM     14  C   UNL     1       7.732  -2.160   0.643  0.00  0.00    +0.003 C 
ATOM     15  C   UNL     1       7.760  -3.475  -0.123  0.00  0.00    +0.005 C 
ATOM     16  C   UNL     1       6.466  -4.270   0.112  0.00  0.00    +0.010 C 
ATOM     17  C   UNL     1       5.319  -3.349   0.436  0.00  0.00    +0.001 C 
ATOM     18  C   UNL     1       3.942  -3.822  -0.083  0.00  0.00    +0.147 C 
ATOM     19  C   UNL     1       5.174  -3.160   1.948  0.00  0.00    +0.014 C 
ATOM     20  C   UNL     1       9.988  -2.126   1.644  0.00  0.00    +0.016 C 
ENDROOT
BRANCH   1  25
ATOM     21  C   UNL     1       1.084   2.488  -0.007  0.00  0.00    +0.086 C 
ATOM     22  C   UNL     1       0.800   1.009  -0.048  0.00  0.00    +0.103 A 
ATOM     23  C   UNL     1      -0.423   0.444  -0.090  0.00  0.00    +0.045 A 
ATOM     24  C   UNL     1      -0.234  -0.951  -0.118  0.00  0.00    +0.049 A 
ATOM     25  C   UNL     1       1.111  -1.165  -0.091  0.00  0.00    +0.128 A 
ATOM     26  O   UNL     1       1.724   0.034  -0.055  0.00  0.00    -0.461 OA
ENDBRANCH   1  25
BRANCH  18  27
ATOM     27  O   UNL     1       4.065  -4.329  -1.407  0.00  0.00    -0.387 OA
ATOM     28  H   UNL     1       3.223  -4.572  -1.814  0.00  0.00    +0.210 HD
ENDBRANCH  18  27
BRANCH  10  29
ATOM     29  O   UNL     1      11.914   1.543  -0.323  0.00  0.00    -0.391 OA
ATOM     30  H   UNL     1      12.434   1.955   0.380  0.00  0.00    +0.210 HD
ENDBRANCH  10  29
TORSDOF 3
