REMARK  Name = ZINC37581357
REMARK  7 active torsions:
REMARK  status: ('A' for Active; 'I' for Inactive)
REMARK    1  A    between atoms: C_1  and  C_2
REMARK    2  A    between atoms: C_5  and  C_18
REMARK    3  A    between atoms: C_7  and  S_8
REMARK    4  A    between atoms: S_8  and  N_11
REMARK    5  A    between atoms: N_11  and  C_12
REMARK    6  A    between atoms: C_19  and  C_20
REMARK    7  A    between atoms: C_20  and  N_21
REMARK                            x       y       z     vdW  Elec       q    Type
REMARK                         _______ _______ _______ _____ _____    ______ ____
ROOT
ATOM      1  C   UNL     1      -0.492   1.415  -0.063  0.00  0.00    +0.046 C 
ATOM      2  C   UNL     1      -0.371  -0.087  -0.054  0.00  0.00    -0.024 A 
ATOM      3  C   UNL     1      -0.582  -0.802  -1.220  0.00  0.00    +0.006 A 
ATOM      4  C   UNL     1      -0.471  -2.177  -1.219  0.00  0.00    +0.017 A 
ATOM      5  C   UNL     1      -0.146  -2.847  -0.038  0.00  0.00    +0.027 A 
ATOM      6  C   UNL     1       0.066  -2.120   1.134  0.00  0.00    +0.046 A 
ATOM      7  C   UNL     1      -0.043  -0.745   1.118  0.00  0.00    +0.113 A 
ENDROOT
BRANCH   7   8
ATOM      8  S   UNL     1       0.231   0.176   2.595  0.00  0.00    +0.073 S 
ATOM      9  O   UNL     1       0.527  -0.769   3.614  0.00  0.00    -0.150 OA
ATOM     10  O   UNL     1       1.117   1.234   2.256  0.00  0.00    -0.150 OA
BRANCH   8  11
ATOM     11  N   UNL     1      -1.210   0.880   3.007  0.00  0.00    -0.213 N 
ATOM     12  H   UNL     1      -1.294   1.847   3.012  0.00  0.00    +0.174 HD
BRANCH  11  13
ATOM     13  C   UNL     1      -2.314   0.076   3.350  0.00  0.00    +0.085 A 
ATOM     14  C   UNL     1      -3.588   0.240   2.912  0.00  0.00    +0.129 A 
ATOM     15  N   UNL     1      -4.344  -0.741   3.475  0.00  0.00    -0.283 N 
ATOM     16  H   UNL     1      -5.295  -0.875   3.343  0.00  0.00    +0.188 HD
ATOM     17  N   UNL     1      -3.504  -1.523   4.278  0.00  0.00    -0.180 NA
ATOM     18  C   UNL     1      -2.291  -1.039   4.200  0.00  0.00    +0.158 A 
ENDBRANCH  11  13
ENDBRANCH   8  11
ENDBRANCH   7   8
BRANCH   5  19
ATOM     19  C   UNL     1      -0.030  -4.274  -0.030  0.00  0.00    -0.068 C 
ATOM     20  C   UNL     1       0.065  -5.444  -0.023  0.00  0.00    -0.117 C 
BRANCH  20  21
ATOM     21  C   UNL     1       0.184  -6.912  -0.014  0.00  0.00    +0.005 C 
BRANCH  21  22
ATOM     22  N   UNL     1       0.532  -7.367   1.338  0.00  0.00    +0.385 N 
ATOM     23  H   UNL     1       0.613  -8.372   1.344  0.00  0.00    -0.089 HD
ATOM     24  H   UNL     1       1.411  -6.956   1.616  0.00  0.00    -0.089 HD
ATOM     25  H   UNL     1      -0.190  -7.084   1.984  0.00  0.00    -0.089 HD
ENDBRANCH  21  22
ENDBRANCH  20  21
ENDBRANCH   5  19
TORSDOF 6
