REMARK  Name = ZINC27550463
REMARK  9 active torsions:
REMARK  status: ('A' for Active; 'I' for Inactive)
REMARK    1  A    between atoms: C_1  and  C_2
REMARK    2  A    between atoms: C_4  and  C_8
REMARK    3  A    between atoms: C_5  and  C_7
REMARK    4  A    between atoms: C_10  and  C_33
REMARK    5  A    between atoms: C_11  and  N_32
REMARK    6  A    between atoms: N_12  and  C_22
REMARK    7  A    between atoms: C_18  and  C_20
REMARK    8  A    between atoms: C_18  and  C_21
REMARK    9  A    between atoms: C_26  and  N_28
REMARK                            x       y       z     vdW  Elec       q    Type
REMARK                         _______ _______ _______ _____ _____    ______ ____
ROOT
ATOM      1  C   UNL     1      -2.677   0.950  -0.457  0.00  0.00    +0.098 C 
ATOM      2  C   UNL     1      -3.341  -0.160  -1.218  0.00  0.00    +0.077 C 
ATOM      3  C   UNL     1      -3.014  -1.458  -0.993  0.00  0.00    +0.107 C 
ATOM      4  N   UNL     1      -2.064  -1.778  -0.048  0.00  0.00    -0.260 N 
ATOM      5  C   UNL     1      -1.735  -0.883   0.936  0.00  0.00    +0.025 C 
ATOM      6  C   UNL     1      -2.007   0.431   0.790  0.00  0.00    +0.025 C 
ATOM      7  C   UNL     1      -1.672   1.356   1.795  0.00  0.00    +0.162 C 
ATOM      8  O   UNL     1      -1.945   2.530   1.639  0.00  0.00    -0.292 OA
ATOM      9  C   UNL     1      -0.983   0.919   3.058  0.00  0.00    +0.086 C 
ATOM     10  C   UNL     1      -0.145  -0.329   2.763  0.00  0.00    -0.023 C 
ATOM     11  C   UNL     1      -1.067  -1.405   2.184  0.00  0.00    +0.058 C 
ATOM     12  C   UNL     1       0.947   0.013   1.747  0.00  0.00    +0.011 C 
ATOM     13  C   UNL     1       0.496  -0.837   4.056  0.00  0.00    +0.011 C 
ENDROOT
BRANCH   1  17
ATOM     14  C   UNL     1       1.579   0.925  -3.253  0.00  0.00    +0.051 C 
ATOM     15  C   UNL     1       0.340   1.494  -2.611  0.00  0.00    -0.013 A 
ATOM     16  C   UNL     1      -0.569   0.877  -1.816  0.00  0.00    +0.015 A 
ATOM     17  C   UNL     1      -1.643   1.603  -1.338  0.00  0.00    -0.025 A 
ATOM     18  C   UNL     1      -1.751   2.913  -1.669  0.00  0.00    -0.009 A 
ATOM     19  S   UNL     1      -0.312   3.153  -2.698  0.00  0.00    -0.098 S 
ATOM     20  C   UNL     1      -2.813   3.908  -1.276  0.00  0.00    +0.052 C 
ENDBRANCH   1  17
BRANCH   4  21
ATOM     21  C   UNL     1      -1.431  -3.025  -0.094  0.00  0.00    +0.042 A 
ATOM     22  C   UNL     1      -1.977  -4.108   0.583  0.00  0.00    +0.025 A 
ATOM     23  C   UNL     1      -1.350  -5.338   0.536  0.00  0.00    +0.024 A 
ATOM     24  C   UNL     1      -0.178  -5.491  -0.183  0.00  0.00    +0.071 A 
ATOM     25  C   UNL     1       0.369  -4.414  -0.858  0.00  0.00    +0.146 A 
ATOM     26  C   UNL     1      -0.258  -3.184  -0.820  0.00  0.00    +0.058 A 
ATOM     27 CL   UNL     1       0.608  -7.038  -0.239  0.00  0.00    -0.081 Cl
BRANCH  25  28
ATOM     28  N   UNL     1       1.622  -4.582  -1.627  0.00  0.00    +0.058 N 
ATOM     29  O   UNL     1       2.104  -3.634  -2.221  0.00  0.00    -0.126 OA
ATOM     30  O   UNL     1       2.172  -5.668  -1.665  0.00  0.00    -0.126 OA
ENDBRANCH  25  28
ENDBRANCH   4  21
BRANCH   3  31
ATOM     31  N   UNL     1      -3.630  -2.455  -1.710  0.00  0.00    -0.345 N 
ATOM     32  H   UNL     1      -3.366  -3.508  -1.529  0.00  0.00    +0.144 HD
ATOM     33  H   UNL     1      -4.389  -2.201  -2.465  0.00  0.00    +0.144 HD
ENDBRANCH   3  31
BRANCH   2  34
ATOM     34  C   UNL     1      -4.337   0.156  -2.197  0.00  0.00    +0.099 C 
ATOM     35  N   UNL     1      -5.127   0.406  -2.974  0.00  0.00    -0.191 NA
ENDBRANCH   2  34
TORSDOF 5
