REMARK  Name = ZINC60032058
REMARK  2 active torsions:
REMARK  status: ('A' for Active; 'I' for Inactive)
REMARK    1  A    between atoms: C_7  and  C_11
REMARK    2  A    between atoms: C_17  and  C_19
REMARK                            x       y       z     vdW  Elec       q    Type
REMARK                         _______ _______ _______ _____ _____    ______ ____
ROOT
ATOM      1  C   UNL     1       0.699  -3.256  -0.021  0.00  0.00    +0.250 C 
ATOM      2  O   UNL     1      -0.501  -3.088   0.094  0.00  0.00    -0.270 OA
ATOM      3  N   UNL     1       1.197  -4.504  -0.134  0.00  0.00    -0.276 N 
ATOM      4  C   UNL     1       2.653  -4.762  -0.148  0.00  0.00    +0.178 C 
ATOM      5  S   UNL     1       2.709  -6.531   0.381  0.00  0.00    -0.139 S 
ATOM      6  C   UNL     1       1.080  -7.016  -0.346  0.00  0.00    +0.102 C 
ATOM      7  C   UNL     1       0.330  -5.665  -0.242  0.00  0.00    +0.173 C 
ENDROOT
BRANCH   1  14
ATOM      8  C   UNL     1       0.373   1.087   1.705  0.00  0.00    +0.001 A 
ATOM      9  C   UNL     1       1.505   1.845   1.440  0.00  0.00    +0.002 A 
ATOM     10  C   UNL     1       2.562   1.306   0.741  0.00  0.00    +0.026 A 
ATOM     11  C   UNL     1       2.501  -0.010   0.293  0.00  0.00    +0.047 A 
ATOM     12  C   UNL     1       1.355  -0.775   0.563  0.00  0.00    +0.012 A 
ATOM     13  C   UNL     1       0.293  -0.218   1.271  0.00  0.00    +0.011 A 
ATOM     14  C   UNL     1       1.605  -2.100  -0.035  0.00  0.00    +0.062 A 
ATOM     15  C   UNL     1       2.843  -2.040  -0.604  0.00  0.00    +0.096 A 
ATOM     16  N   UNL     1       3.376  -0.809  -0.413  0.00  0.00    -0.360 N 
ATOM     17  H   UNL     1       4.249  -0.529  -0.728  0.00  0.00    +0.165 HD
ENDBRANCH   1  14
BRANCH   7  18
ATOM     18  C   UNL     1      -0.532  -5.506  -1.467  0.00  0.00    +0.232 C 
ATOM     19  O   UNL     1      -0.420  -4.519  -2.163  0.00  0.00    -0.274 OA
ATOM     20  N   UNL     1      -1.428  -6.460  -1.789  0.00  0.00    -0.328 N 
ATOM     21  H   UNL     1      -1.518  -7.249  -1.232  0.00  0.00    +0.145 HD
ATOM     22  H   UNL     1      -1.984  -6.358  -2.578  0.00  0.00    +0.145 HD
ENDBRANCH   7  18
TORSDOF 2
