REMARK  Name = ZINC40385005
REMARK  4 active torsions:
REMARK  status: ('A' for Active; 'I' for Inactive)
REMARK    1  A    between atoms: C_3  and  S_6
REMARK    2  A    between atoms: S_6  and  N_9
REMARK    3  A    between atoms: C_13  and  S_16
REMARK    4  A    between atoms: S_16  and  N_19
REMARK                            x       y       z     vdW  Elec       q    Type
REMARK                         _______ _______ _______ _____ _____    ______ ____
ROOT
ATOM      1  N   UNL     1       4.477   2.089   1.552  0.00  0.00    -0.174 NA
ATOM      2  C   UNL     1       4.259   3.348   2.277  0.00  0.00    +0.109 C 
ATOM      3  C   UNL     1       5.593   3.813   2.869  0.00  0.00    +0.019 C 
ATOM      4  C   UNL     1       6.187   2.690   3.723  0.00  0.00    +0.030 C 
ATOM      5  C   UNL     1       6.449   1.464   2.846  0.00  0.00    +0.163 C 
ATOM      6  C   UNL     1       5.120   0.971   2.255  0.00  0.00    +0.137 C 
ENDROOT
BRANCH   1   7
ATOM      7  S   UNL     1       4.001   1.932  -0.026  0.00  0.00    +0.067 S 
ATOM      8  O   UNL     1       4.799   0.900  -0.590  0.00  0.00    -0.152 OA
ATOM      9  O   UNL     1       3.957   3.244  -0.570  0.00  0.00    -0.152 OA
BRANCH   7  12
ATOM     10  C   UNL     1      -0.016   1.351   0.009  0.00  0.00    +0.010 A 
ATOM     11  C   UNL     1       1.183   2.038   0.002  0.00  0.00    +0.036 A 
ATOM     12  C   UNL     1       2.343   1.336  -0.013  0.00  0.00    +0.143 A 
ATOM     13  S   UNL     1       1.754  -0.349  -0.017  0.00  0.00    -0.077 S 
ATOM     14  C   UNL     1       0.002  -0.004   0.002  0.00  0.00    +0.047 A 
ENDBRANCH   7  12
ENDBRANCH   1   7
BRANCH   5  15
ATOM     15  S   UNL     1       7.190   0.148   3.850  0.00  0.00    +0.031 S 
ATOM     16  O   UNL     1       6.339  -0.171   4.943  0.00  0.00    -0.158 OA
ATOM     17  O   UNL     1       7.706  -0.876   3.012  0.00  0.00    -0.158 OA
BRANCH  15  18
ATOM     18  N   UNL     1       8.525   0.841   4.543  0.00  0.00    -0.208 NA
ATOM     19  H   UNL     1       8.742   1.768   4.357  0.00  0.00    +0.144 HD
ATOM     20  H   UNL     1       9.091   0.320   5.133  0.00  0.00    +0.144 HD
ENDBRANCH  15  18
ENDBRANCH   5  15
TORSDOF 4
