REMARK  Name = ZINC07984548
REMARK  3 active torsions:
REMARK  status: ('A' for Active; 'I' for Inactive)
REMARK    1  A    between atoms: N_6  and  C_7
REMARK    2  A    between atoms: C_18  and  C_20
REMARK    3  A    between atoms: C_20  and  N_21
REMARK                            x       y       z     vdW  Elec       q    Type
REMARK                         _______ _______ _______ _____ _____    ______ ____
ROOT
ATOM      1  C   UNL     1      -0.738   1.584   1.263  0.00  0.00    +0.124 C 
ATOM      2  C   UNL     1      -0.013   1.086   0.008  0.00  0.00    +0.126 C 
ATOM      3  N   UNL     1      -0.732   1.577  -1.178  0.00  0.00    -0.297 N 
ATOM      4  C   UNL     1      -1.043   3.012  -1.258  0.00  0.00    +0.126 C 
ATOM      5  C   UNL     1      -1.732   3.434   0.044  0.00  0.00    +0.124 C 
ATOM      6  N   UNL     1      -0.895   3.043   1.186  0.00  0.00    -0.322 N 
ATOM      7  C   UNL     1      -1.095   0.734  -2.164  0.00  0.00    +0.233 C 
ATOM      8  O   UNL     1      -0.829  -0.447  -2.082  0.00  0.00    -0.274 OA
ENDROOT
BRANCH   6   9
ATOM      9  C   UNL     1      -1.409   3.556   2.385  0.00  0.00    +0.107 A 
ATOM     10  C   UNL     1      -2.690   3.208   2.797  0.00  0.00    +0.185 A 
ATOM     11  C   UNL     1      -3.195   3.712   3.985  0.00  0.00    +0.198 A 
ATOM     12  C   UNL     1      -2.428   4.570   4.756  0.00  0.00    +0.199 A 
ATOM     13  C   UNL     1      -1.152   4.922   4.344  0.00  0.00    +0.198 A 
ATOM     14  C   UNL     1      -0.642   4.416   3.160  0.00  0.00    +0.185 A 
ATOM     15  F   UNL     1       0.602   4.760   2.759  0.00  0.00    -0.200 F 
ATOM     16  F   UNL     1      -0.406   5.759   5.098  0.00  0.00    -0.199 F 
ATOM     17  F   UNL     1      -2.924   5.065   5.911  0.00  0.00    -0.199 F 
ATOM     18  F   UNL     1      -4.438   3.369   4.388  0.00  0.00    -0.199 F 
ATOM     19  F   UNL     1      -3.440   2.376   2.042  0.00  0.00    -0.200 F 
ENDBRANCH   6   9
BRANCH   7  20
ATOM     20  C   UNL     1      -1.831   1.258  -3.371  0.00  0.00    +0.201 C 
BRANCH  20  21
ATOM     21  N   UNL     1      -2.110   0.153  -4.291  0.00  0.00    -0.291 N 
ATOM     22  C   UNL     1      -2.764   0.387  -5.446  0.00  0.00    +0.297 C 
ATOM     23  O   UNL     1      -3.123   1.515  -5.724  0.00  0.00    -0.253 OA
ATOM     24  N   UNL     1      -3.020  -0.630  -6.293  0.00  0.00    -0.313 N 
ATOM     25  H   UNL     1      -1.823  -0.747  -4.069  0.00  0.00    +0.151 HD
ATOM     26  H   UNL     1      -2.734  -1.530  -6.071  0.00  0.00    +0.146 HD
ATOM     27  H   UNL     1      -3.491  -0.461  -7.124  0.00  0.00    +0.146 HD
ENDBRANCH  20  21
ENDBRANCH   7  20
TORSDOF 3
