REMARK  Name = ZINC15996684
REMARK  3 active torsions:
REMARK  status: ('A' for Active; 'I' for Inactive)
REMARK    1  A    between atoms: C_1  and  O_2
REMARK    2  A    between atoms: O_2  and  C_3
REMARK    3  A    between atoms: C_8  and  N_9
REMARK                            x       y       z     vdW  Elec       q    Type
REMARK                         _______ _______ _______ _____ _____    ______ ____
ROOT
ATOM      1  N   UNL     1       5.116  -0.385   1.316  0.00  0.00    -0.206 N 
ATOM      2  C   UNL     1       4.390  -1.388   0.810  0.00  0.00    +0.229 C 
ATOM      3  O   UNL     1       4.819  -2.480   0.506  0.00  0.00    -0.275 OA
ATOM      4  C   UNL     1       2.932  -0.949   0.681  0.00  0.00    +0.074 C 
ATOM      5  C   UNL     1       2.559  -0.834  -0.808  0.00  0.00    -0.054 C 
ATOM      6  C   UNL     1       3.465  -1.767  -1.633  0.00  0.00    -0.016 C 
ATOM      7  C   UNL     1       4.681  -0.866  -2.038  0.00  0.00    -0.020 C 
ATOM      8  C   UNL     1       4.404   0.508  -1.397  0.00  0.00    -0.076 C 
ATOM      9  N   UNL     1       2.935   0.558  -1.201  0.00  0.00    +0.395 N 
ATOM     10  C   UNL     1       2.617   1.372  -0.015  0.00  0.00    +0.053 C 
ATOM     11  C   UNL     1       2.971   0.514   1.204  0.00  0.00    +0.089 C 
ATOM     12  C   UNL     1       4.421   0.729   1.575  0.00  0.00    +0.230 C 
ATOM     13  O   UNL     1       4.883   1.751   2.035  0.00  0.00    -0.275 OA
ATOM     14  C   UNL     1       1.171   1.780   0.000  0.00  0.00    -0.026 A 
ATOM     15  C   UNL     1      -0.013   1.076   0.008  0.00  0.00    +0.024 A 
ATOM     16  C   UNL     1      -1.221   1.752   0.017  0.00  0.00    +0.041 A 
ATOM     17  C   UNL     1      -1.236   3.135   0.031  0.00  0.00    +0.022 A 
ATOM     18  C   UNL     1      -0.052   3.844   0.023  0.00  0.00    +0.025 A 
ATOM     19  C   UNL     1       1.167   3.172   0.008  0.00  0.00    +0.036 A 
ATOM     20  N   UNL     1       2.477   3.658  -0.002  0.00  0.00    -0.286 N 
ATOM     21  C   UNL     1       3.387   2.665  -0.016  0.00  0.00    +0.212 C 
ATOM     22  O   UNL     1       4.593   2.789  -0.028  0.00  0.00    -0.277 OA
ATOM     23 CL   UNL     1      -2.714   0.865   0.020  0.00  0.00    -0.084 Cl
ATOM     24  H   UNL     1       2.662   4.742   0.003  0.00  0.00    +0.155 HD
ATOM     25  H   UNL     1       2.435   0.963  -2.093  0.00  0.00    -0.079 HD
ENDROOT
BRANCH   1  31
ATOM     26  C   UNL     1       7.405  -0.151   0.556  0.00  0.00    +0.142 A 
ATOM     27  C   UNL     1       8.765  -0.253   0.799  0.00  0.00    +0.049 A 
ATOM     28  C   UNL     1       9.217  -0.703   2.025  0.00  0.00    +0.024 A 
ATOM     29  C   UNL     1       8.314  -1.047   3.015  0.00  0.00    +0.043 A 
ATOM     30  C   UNL     1       6.955  -0.942   2.783  0.00  0.00    +0.047 A 
ATOM     31  C   UNL     1       6.495  -0.492   1.554  0.00  0.00    +0.087 A 
ATOM     32 CL   UNL     1       8.889  -1.611   4.554  0.00  0.00    -0.083 Cl
BRANCH  26  34
ATOM     33  C   UNL     1       7.949   0.617  -1.627  0.00  0.00    +0.277 C 
ATOM     34  O   UNL     1       6.959   0.286  -0.651  0.00  0.00    -0.493 OA
ENDBRANCH  26  34
ENDBRANCH   1  31
TORSDOF 2
