REMARK  Name = ZINC02502834
REMARK  6 active torsions:
REMARK  status: ('A' for Active; 'I' for Inactive)
REMARK    1  A    between atoms: C_1  and  C_2
REMARK    2  A    between atoms: C_8  and  C_13
REMARK    3  A    between atoms: C_9  and  O_12
REMARK    4  A    between atoms: C_13  and  C_15
REMARK    5  A    between atoms: C_13  and  N_22
REMARK    6  A    between atoms: N_22  and  C_23
REMARK                            x       y       z     vdW  Elec       q    Type
REMARK                         _______ _______ _______ _____ _____    ______ ____
ROOT
ATOM      1  C   UNL     1       0.336   3.149   7.010  0.00  0.00    +0.139 C 
ENDROOT
BRANCH   1   9
ATOM      2  C   UNL     1      -3.188  -1.907   3.095  0.00  0.00    +0.065 C 
ATOM      3  C   UNL     1      -2.773  -0.469   3.271  0.00  0.00    +0.039 A 
ATOM      4  C   UNL     1      -3.164   0.471   2.320  0.00  0.00    +0.023 A 
ATOM      5  C   UNL     1      -2.801   1.780   2.466  0.00  0.00    +0.012 A 
ATOM      6  C   UNL     1      -2.024   2.132   3.586  0.00  0.00    +0.004 A 
ATOM      7  C   UNL     1      -1.609   3.457   3.800  0.00  0.00    +0.010 A 
ATOM      8  C   UNL     1      -0.859   3.761   4.895  0.00  0.00    +0.010 A 
ATOM      9  C   UNL     1      -0.495   2.776   5.809  0.00  0.00    +0.021 A 
ATOM     10  C   UNL     1      -0.878   1.477   5.634  0.00  0.00    +0.148 A 
ATOM     11  C   UNL     1      -1.657   1.125   4.511  0.00  0.00    +0.113 A 
ATOM     12  N   UNL     1      -2.049  -0.136   4.312  0.00  0.00    -0.248 NA
BRANCH  10  13
ATOM     13  O   UNL     1      -0.514   0.530   6.537  0.00  0.00    -0.504 OA
ATOM     14  H   UNL     1       0.361   0.151   6.377  0.00  0.00    +0.292 HD
ENDBRANCH  10  13
ENDBRANCH   1   9
BRANCH   1  15
ATOM     15  C   UNL     1       0.965   4.500   6.785  0.00  0.00    +0.012 A 
ATOM     16  C   UNL     1       0.336   5.641   7.248  0.00  0.00    +0.008 A 
ATOM     17  C   UNL     1       0.915   6.880   7.047  0.00  0.00    +0.001 A 
ATOM     18  C   UNL     1       2.119   6.981   6.374  0.00  0.00    +0.003 A 
ATOM     19  C   UNL     1       2.747   5.842   5.906  0.00  0.00    +0.039 A 
ATOM     20  C   UNL     1       2.170   4.600   6.111  0.00  0.00    +0.129 A 
ATOM     21  F   UNL     1       2.783   3.486   5.654  0.00  0.00    -0.205 F 
ENDBRANCH   1  15
BRANCH   1  22
ATOM     22  N   UNL     1      -0.518   3.199   8.198  0.00  0.00    -0.319 N 
ATOM     23  H   UNL     1      -1.470   3.364   8.105  0.00  0.00    +0.148 HD
BRANCH  22  24
ATOM     24  C   UNL     1       0.034   3.011   9.460  0.00  0.00    +0.097 A 
ATOM     25  C   UNL     1       1.400   2.776   9.586  0.00  0.00    +0.041 A 
ATOM     26  C   UNL     1       1.936   2.590  10.848  0.00  0.00    +0.005 A 
ATOM     27  C   UNL     1       1.086   2.647  11.944  0.00  0.00    +0.018 A 
ATOM     28  C   UNL     1      -0.259   2.884  11.746  0.00  0.00    +0.084 A 
ATOM     29  N   UNL     1      -0.820   3.077  10.522  0.00  0.00    -0.350 N 
ATOM     30  H   UNL     1      -1.823   3.261  10.404  0.00  0.00    +0.166 HD
ENDBRANCH  22  24
ENDBRANCH   1  22
TORSDOF 5
