REMARK  Name = ZINC00722706
REMARK  3 active torsions:
REMARK  status: ('A' for Active; 'I' for Inactive)
REMARK    1  A    between atoms: C_6  and  N_7
REMARK    2  A    between atoms: C_12  and  N_16
REMARK    3  A    between atoms: C_17  and  C_19
REMARK                            x       y       z     vdW  Elec       q    Type
REMARK                         _______ _______ _______ _____ _____    ______ ____
ROOT
ATOM      1  N   UNL     1       2.995  -6.129   0.366  0.00  0.00    -0.149 N 
ATOM      2  N   UNL     1       1.708  -6.099   0.318  0.00  0.00    -0.147 NA
ATOM      3  C   UNL     1       1.313  -4.838   0.231  0.00  0.00    +0.113 A 
ATOM      4  C   UNL     1       0.084  -4.161   0.147  0.00  0.00    +0.033 A 
ATOM      5  C   UNL     1       0.069  -2.806   0.069  0.00  0.00    +0.025 A 
ATOM      6  C   UNL     1       1.253  -2.056   0.070  0.00  0.00    +0.036 A 
ATOM      7  C   UNL     1       2.477  -2.655   0.143  0.00  0.00    +0.055 A 
ATOM      8  C   UNL     1       2.558  -4.054   0.231  0.00  0.00    +0.115 A 
ATOM      9  N   UNL     1       3.523  -4.956   0.318  0.00  0.00    -0.147 NA
ENDROOT
BRANCH   1  15
ATOM     10  C   UNL     1       5.126  -7.259   0.504  0.00  0.00    +0.031 A 
ATOM     11  C   UNL     1       5.858  -8.426   0.603  0.00  0.00    +0.022 A 
ATOM     12  C   UNL     1       5.210  -9.648   0.650  0.00  0.00    +0.041 A 
ATOM     13  C   UNL     1       3.828  -9.704   0.602  0.00  0.00    +0.022 A 
ATOM     14  C   UNL     1       3.092  -8.539   0.508  0.00  0.00    +0.031 A 
ATOM     15  C   UNL     1       3.739  -7.311   0.462  0.00  0.00    +0.086 A 
ATOM     16 CL   UNL     1       6.133 -11.114   0.768  0.00  0.00    -0.084 Cl
ENDBRANCH   1  15
BRANCH   6  17
ATOM     17  N   UNL     1       1.178  -0.662  -0.012  0.00  0.00    -0.279 N 
ATOM     18  C   UNL     1       0.168  -0.004   0.590  0.00  0.00    +0.284 C 
ATOM     19  O   UNL     1      -0.723  -0.628   1.137  0.00  0.00    -0.266 OA
ATOM     20  H   UNL     1       1.854  -0.168  -0.503  0.00  0.00    +0.155 HD
BRANCH  18  21
ATOM     21  C   UNL     1       0.142   1.460   0.587  0.00  0.00    +0.191 A 
ATOM     22  C   UNL     1      -0.821   2.248   1.153  0.00  0.00    +0.056 A 
ATOM     23  C   UNL     1      -0.445   3.578   0.916  0.00  0.00    +0.058 A 
ATOM     24  C   UNL     1       0.712   3.547   0.216  0.00  0.00    +0.171 A 
ATOM     25  O   UNL     1       1.062   2.268   0.020  0.00  0.00    -0.444 OA
ATOM     26 BR   UNL     1       1.677   5.058  -0.386  0.00  0.00    -0.008 Br
ENDBRANCH  18  21
ENDBRANCH   6  17
TORSDOF 3
