REMARK  Name = ZINC40752219
REMARK  5 active torsions:
REMARK  status: ('A' for Active; 'I' for Inactive)
REMARK    1  A    between atoms: C_9  and  O_11
REMARK    2  A    between atoms: O_11  and  C_12
REMARK    3  A    between atoms: C_13  and  N_24
REMARK    4  A    between atoms: C_14  and  N_18
REMARK    5  A    between atoms: N_18  and  C_19
REMARK                            x       y       z     vdW  Elec       q    Type
REMARK                         _______ _______ _______ _____ _____    ______ ____
ROOT
ATOM      1  C   UNL     1       0.006  -2.693   0.091  0.00  0.00    +0.246 A 
ATOM      2  C   UNL     1      -0.042  -4.082   0.199  0.00  0.00    +0.128 A 
ATOM      3  C   UNL     1      -1.294  -4.692   0.312  0.00  0.00    +0.147 A 
ATOM      4  N   UNL     1      -2.384  -3.929   0.312  0.00  0.00    -0.219 NA
ATOM      5  C   UNL     1      -2.293  -2.619   0.207  0.00  0.00    +0.227 A 
ATOM      6  N   UNL     1      -1.131  -2.005   0.104  0.00  0.00    -0.199 NA
ENDROOT
BRANCH   2   7
ATOM      7  N   UNL     1       1.135  -4.847   0.194  0.00  0.00    -0.351 N 
ATOM      8  H   UNL     1       1.997  -4.410   0.115  0.00  0.00    +0.143 HD
ATOM      9  H   UNL     1       1.086  -5.812   0.270  0.00  0.00    +0.143 HD
ENDBRANCH   2   7
BRANCH   3  10
ATOM     10  N   UNL     1      -1.399  -6.073   0.422  0.00  0.00    -0.325 N 
ATOM     11  H   UNL     1      -0.599  -6.622   0.421  0.00  0.00    +0.148 HD
BRANCH  10  12
ATOM     12  C   UNL     1      -2.717  -6.700   0.540  0.00  0.00    +0.072 C 
ATOM     13  C   UNL     1      -3.140  -6.768   2.022  0.00  0.00    +0.022 C 
ATOM     14  C   UNL     1      -3.878  -8.124   2.144  0.00  0.00    +0.002 C 
ATOM     15  C   UNL     1      -3.045  -9.051   1.224  0.00  0.00    +0.002 C 
ATOM     16  C   UNL     1      -2.657  -8.152   0.033  0.00  0.00    +0.022 C 
ENDBRANCH  10  12
ENDBRANCH   3  10
BRANCH   1  17
ATOM     17  O   UNL     1       1.197  -2.052  -0.021  0.00  0.00    -0.434 OA
BRANCH  17  26
ATOM     18  C   UNL     1       1.179   1.348  -1.342  0.00  0.00    +0.004 A 
ATOM     19  C   UNL     1       1.171   2.100  -0.207  0.00  0.00    +0.010 A 
ATOM     20  C   UNL     1       1.171   1.472   1.048  0.00  0.00    +0.004 A 
ATOM     21  C   UNL     1       1.162   2.220   2.241  0.00  0.00    +0.011 A 
ATOM     22  C   UNL     1       1.162   1.542   3.427  0.00  0.00    +0.020 A 
ATOM     23  C   UNL     1       1.171   0.149   3.432  0.00  0.00    +0.111 A 
ATOM     24  N   UNL     1       1.179  -0.544   2.319  0.00  0.00    -0.251 NA
ATOM     25  C   UNL     1       1.179   0.057   1.126  0.00  0.00    +0.113 A 
ATOM     26  C   UNL     1       1.188  -0.694  -0.068  0.00  0.00    +0.156 A 
ATOM     27  C   UNL     1       1.188  -0.043  -1.280  0.00  0.00    +0.048 A 
ENDBRANCH  17  26
ENDBRANCH   1  17
TORSDOF 5
