REMARK  Name = ZINC20682478
REMARK  6 active torsions:
REMARK  status: ('A' for Active; 'I' for Inactive)
REMARK    1  A    between atoms: C_6  and  C_7
REMARK    2  A    between atoms: N_9  and  C_10
REMARK    3  A    between atoms: C_10  and  C_11
REMARK    4  A    between atoms: C_24  and  C_27
REMARK    5  A    between atoms: C_30  and  O_34
REMARK    6  A    between atoms: C_32  and  O_33
REMARK                            x       y       z     vdW  Elec       q    Type
REMARK                         _______ _______ _______ _____ _____    ______ ____
ROOT
ATOM      1  C   UNL     1       4.710   0.847   1.207  0.00  0.00    +0.015 A 
ATOM      2  C   UNL     1       3.724   1.581   0.592  0.00  0.00    +0.024 A 
ATOM      3  C   UNL     1       2.397   1.159   0.635  0.00  0.00    +0.031 A 
ATOM      4  C   UNL     1       2.071  -0.019   1.324  0.00  0.00    -0.019 A 
ATOM      5  C   UNL     1       3.055  -0.756   1.935  0.00  0.00    +0.019 A 
ATOM      6  C   UNL     1       4.386  -0.332   1.884  0.00  0.00    +0.037 A 
ATOM      7  C   UNL     1       0.647  -0.417   1.359  0.00  0.00    +0.049 C 
ATOM      8  C   UNL     1       0.247  -1.840   1.506  0.00  0.00    -0.023 C 
ATOM      9  C   UNL     1      -0.897  -2.028   0.859  0.00  0.00    -0.030 C 
ATOM     10  C   UNL     1      -1.339  -0.725   0.190  0.00  0.00    +0.033 C 
ATOM     11  C   UNL     1       0.002  -0.004   0.002  0.00  0.00    +0.029 C 
ATOM     12  C   UNL     1      -0.018   1.514   0.010  0.00  0.00    +0.108 C 
ATOM     13  N   UNL     1       1.400   1.932  -0.001  0.00  0.00    -0.336 N 
ATOM     14  H   UNL     1       1.696   2.861  -0.511  0.00  0.00    +0.147 HD
ENDROOT
BRANCH  12  15
ATOM     15  C   UNL     1      -0.724   2.032  -1.217  0.00  0.00    +0.015 A 
ATOM     16  C   UNL     1       0.007   2.384  -2.336  0.00  0.00    +0.012 A 
ATOM     17  C   UNL     1      -0.636   2.859  -3.462  0.00  0.00    +0.046 A 
ATOM     18  C   UNL     1      -2.019   2.983  -3.473  0.00  0.00    +0.120 A 
ATOM     19  C   UNL     1      -2.754   2.630  -2.352  0.00  0.00    +0.091 A 
ATOM     20  C   UNL     1      -2.106   2.149  -1.224  0.00  0.00    +0.125 A 
BRANCH  20  21
ATOM     21  O   UNL     1      -2.824   1.797  -0.126  0.00  0.00    -0.506 OA
ATOM     22  H   UNL     1      -3.920   1.889  -0.132  0.00  0.00    +0.292 HD
ENDBRANCH  20  21
BRANCH  18  23
ATOM     23  O   UNL     1      -2.651   3.450  -4.581  0.00  0.00    -0.507 OA
ATOM     24  H   UNL     1      -3.747   3.548  -4.589  0.00  0.00    +0.292 HD
ENDBRANCH  18  23
ENDBRANCH  12  15
BRANCH   6  25
ATOM     25  C   UNL     1       5.443  -1.125   2.541  0.00  0.00    +0.244 C 
ATOM     26  O   UNL     1       5.157  -2.150   3.129  0.00  0.00    -0.270 OA
ATOM     27  N   UNL     1       6.725  -0.712   2.490  0.00  0.00    -0.309 N 
ATOM     28  H   UNL     1       6.983   0.215   1.958  0.00  0.00    +0.149 HD
BRANCH  27  29
ATOM     29  C   UNL     1       7.774  -1.499   3.142  0.00  0.00    +0.136 C 
BRANCH  29  30
ATOM     30  C   UNL     1       9.127  -0.816   2.935  0.00  0.00    +0.135 C 
ATOM     31  C   UNL     1      10.261  -1.673   3.541  0.00  0.00    +0.035 C 
ATOM     32  C   UNL     1      11.241  -0.636   4.133  0.00  0.00    +0.031 C 
ATOM     33  C   UNL     1      10.583   0.726   3.815  0.00  0.00    +0.160 C 
ATOM     34  O   UNL     1       9.177   0.432   3.661  0.00  0.00    -0.375 OA
ENDBRANCH  29  30
ENDBRANCH  27  29
ENDBRANCH   6  25
TORSDOF 6
