REMARK  Name = ZINC22309222
REMARK  9 active torsions:
REMARK  status: ('A' for Active; 'I' for Inactive)
REMARK    1  A    between atoms: C_1  and  C_2
REMARK    2  A    between atoms: C_2  and  N_3
REMARK    3  A    between atoms: C_7  and  S_25
REMARK    4  A    between atoms: C_11  and  S_12
REMARK    5  A    between atoms: S_12  and  C_13
REMARK    6  A    between atoms: C_13  and  C_14
REMARK    7  A    between atoms: N_16  and  C_17
REMARK    8  A    between atoms: C_20  and  C_24
REMARK    9  A    between atoms: S_25  and  N_28
REMARK                            x       y       z     vdW  Elec       q    Type
REMARK                         _______ _______ _______ _____ _____    ______ ____
ROOT
ATOM      1  N   UNL     1      -8.960   3.421  -0.464  0.00  0.00    -0.319 N 
ATOM      2  C   UNL     1      -9.718   4.580  -0.510  0.00  0.00    +0.070 A 
ATOM      3  C   UNL     1     -11.077   4.836  -0.613  0.00  0.00    +0.030 A 
ATOM      4  C   UNL     1     -11.529   6.139  -0.640  0.00  0.00    +0.030 A 
ATOM      5  C   UNL     1     -10.634   7.196  -0.565  0.00  0.00    +0.107 A 
ATOM      6  C   UNL     1      -9.281   6.959  -0.461  0.00  0.00    +0.058 A 
ATOM      7  C   UNL     1      -8.807   5.646  -0.433  0.00  0.00    +0.092 A 
ATOM      8  N   UNL     1      -7.564   5.104  -0.341  0.00  0.00    -0.222 NA
ATOM      9  C   UNL     1      -7.651   3.797  -0.355  0.00  0.00    +0.170 A 
ENDROOT
BRANCH   5  10
ATOM     10  S   UNL     1     -11.232   8.853  -0.601  0.00  0.00    +0.056 S 
ATOM     11  O   UNL     1     -10.160   9.661  -1.066  0.00  0.00    -0.153 OA
ATOM     12  O   UNL     1     -12.495   8.815  -1.251  0.00  0.00    -0.153 OA
BRANCH  10  13
ATOM     13  N   UNL     1     -11.520   9.304   0.967  0.00  0.00    -0.204 NA
ATOM     14  H   UNL     1     -11.896  10.337   0.987  0.00  0.00    +0.144 HD
ATOM     15  H   UNL     1     -10.585   9.242   1.543  0.00  0.00    +0.144 HD
ENDBRANCH  10  13
ENDBRANCH   5  10
BRANCH   1  17
ATOM     16  C   UNL     1      -9.761   1.555   0.900  0.00  0.00    +0.027 C 
ATOM     17  C   UNL     1      -9.468   2.047  -0.519  0.00  0.00    +0.121 C 
ENDBRANCH   1  17
BRANCH   9  18
ATOM     18  S   UNL     1      -6.284   2.689  -0.256  0.00  0.00    -0.078 S 
BRANCH  18  19
ATOM     19  C   UNL     1      -4.924   3.878  -0.143  0.00  0.00    +0.173 C 
BRANCH  19  20
ATOM     20  C   UNL     1      -3.616   3.137  -0.047  0.00  0.00    +0.227 C 
ATOM     21  O   UNL     1      -3.604   1.924  -0.054  0.00  0.00    -0.275 OA
ATOM     22  N   UNL     1      -2.458   3.821   0.047  0.00  0.00    -0.285 N 
ATOM     23  H   UNL     1      -2.474   4.917   0.141  0.00  0.00    +0.155 HD
BRANCH  22  24
ATOM     24  C   UNL     1      -1.238   3.138   0.025  0.00  0.00    +0.036 A 
ATOM     25  C   UNL     1      -0.162   3.611   0.767  0.00  0.00    +0.024 A 
ATOM     26  C   UNL     1       1.044   2.939   0.740  0.00  0.00    +0.008 A 
ATOM     27  C   UNL     1       1.179   1.789  -0.016  0.00  0.00    -0.015 A 
ATOM     28  C   UNL     1       0.108   1.310  -0.751  0.00  0.00    +0.128 A 
ATOM     29  C   UNL     1      -1.101   1.983  -0.732  0.00  0.00    +0.062 A 
ATOM     30  F   UNL     1       0.243   0.186  -1.488  0.00  0.00    -0.205 F 
ATOM     31  C   UNL     1       2.495   1.055  -0.038  0.00  0.00    +0.047 C 
ENDBRANCH  22  24
ENDBRANCH  19  20
ENDBRANCH  18  19
ENDBRANCH   9  18
TORSDOF 7
