REMARK  Name = ZINC39426621
REMARK  11 active torsions:
REMARK  status: ('A' for Active; 'I' for Inactive)
REMARK    1  A    between atoms: C_1  and  C_2
REMARK    2  A    between atoms: C_2  and  C_4
REMARK    3  A    between atoms: C_2  and  S_17
REMARK    4  A    between atoms: N_6  and  C_7
REMARK    5  A    between atoms: S_17  and  C_18
REMARK    6  A    between atoms: C_19  and  C_30
REMARK    7  A    between atoms: C_20  and  C_27
REMARK    8  A    between atoms: C_21  and  C_25
REMARK    9  A    between atoms: C_22  and  N_24
REMARK   10  A    between atoms: C_27  and  C_28
REMARK   11  A    between atoms: C_27  and  C_29
REMARK                            x       y       z     vdW  Elec       q    Type
REMARK                         _______ _______ _______ _____ _____    ______ ____
ROOT
ATOM      1  S   UNL     1       0.458  -2.157   2.022  0.00  0.00    -0.092 S 
ENDROOT
BRANCH   1   2
ATOM      2  C   UNL     1      -0.103  -1.325   3.471  0.00  0.00    +0.117 A 
ATOM      3  C   UNL     1      -0.402  -2.070   4.630  0.00  0.00    +0.088 A 
ATOM      4  C   UNL     1      -0.845  -1.400   5.772  0.00  0.00    -0.004 A 
ATOM      5  C   UNL     1      -0.974  -0.009   5.717  0.00  0.00    +0.096 A 
ATOM      6  C   UNL     1      -0.655   0.662   4.520  0.00  0.00    +0.135 A 
ATOM      7  N   UNL     1      -0.233  -0.007   3.459  0.00  0.00    -0.224 NA
BRANCH   6   8
ATOM      8  N   UNL     1      -0.780   2.035   4.454  0.00  0.00    -0.342 N 
ATOM      9  H   UNL     1      -1.085   2.532   5.229  0.00  0.00    +0.144 HD
ATOM     10  H   UNL     1      -0.561   2.503   3.633  0.00  0.00    +0.144 HD
ENDBRANCH   6   8
BRANCH   4  11
ATOM     11  C   UNL     1      -1.176  -2.157   7.032  0.00  0.00    +0.016 C 
ATOM     12  C   UNL     1      -0.278  -1.669   8.171  0.00  0.00    +0.012 C 
ATOM     13  C   UNL     1      -2.642  -1.918   7.400  0.00  0.00    +0.012 C 
ENDBRANCH   4  11
BRANCH   5  14
ATOM     14  C   UNL     1      -1.425   0.723   6.861  0.00  0.00    +0.103 C 
ATOM     15  N   UNL     1      -1.783   1.304   7.769  0.00  0.00    -0.191 NA
ENDBRANCH   5  14
BRANCH   3  16
ATOM     16  C   UNL     1      -0.253  -3.494   4.636  0.00  0.00    +0.102 C 
ATOM     17  N   UNL     1      -0.136  -4.624   4.640  0.00  0.00    -0.191 NA
ENDBRANCH   3  16
ENDBRANCH   1   2
BRANCH   1  19
ATOM     18  C   UNL     1      -0.625  -0.164   0.494  0.00  0.00    +0.029 C 
ATOM     19  C   UNL     1       0.716  -0.822   0.822  0.00  0.00    +0.136 C 
BRANCH  19  20
ATOM     20  C   UNL     1       1.319  -1.389  -0.438  0.00  0.00    +0.230 C 
ATOM     21  O   UNL     1       1.145  -2.556  -0.722  0.00  0.00    -0.274 OA
ATOM     22  N   UNL     1       2.051  -0.601  -1.250  0.00  0.00    -0.280 N 
ATOM     23  H   UNL     1       2.129   0.348  -1.062  0.00  0.00    +0.155 HD
BRANCH  22  24
ATOM     24  C   UNL     1       2.699  -1.151  -2.364  0.00  0.00    +0.110 A 
ATOM     25  C   UNL     1       2.054  -1.194  -3.594  0.00  0.00    +0.182 A 
ATOM     26  C   UNL     1       2.697  -1.737  -4.693  0.00  0.00    +0.163 A 
ATOM     27  C   UNL     1       3.982  -2.238  -4.568  0.00  0.00    +0.082 A 
ATOM     28  C   UNL     1       4.627  -2.197  -3.343  0.00  0.00    +0.163 A 
ATOM     29  C   UNL     1       3.990  -1.649  -2.242  0.00  0.00    +0.182 A 
ATOM     30  F   UNL     1       4.622  -1.604  -1.049  0.00  0.00    -0.200 F 
ATOM     31  F   UNL     1       5.880  -2.687  -3.224  0.00  0.00    -0.202 F 
ATOM     32  F   UNL     1       2.070  -1.780  -5.889  0.00  0.00    -0.202 F 
ATOM     33  F   UNL     1       0.800  -0.706  -3.717  0.00  0.00    -0.200 F 
ENDBRANCH  22  24
ENDBRANCH  19  20
ENDBRANCH   1  19
TORSDOF 8
