REMARK  Name = ZINC65193554
REMARK  6 active torsions:
REMARK  status: ('A' for Active; 'I' for Inactive)
REMARK    1  A    between atoms: C_1  and  C_2
REMARK    2  A    between atoms: C_2  and  C_4
REMARK    3  A    between atoms: C_2  and  N_15
REMARK    4  A    between atoms: N_6  and  N_7
REMARK    5  A    between atoms: N_10  and  C_11
REMARK    6  A    between atoms: C_11  and  C_12
REMARK                            x       y       z     vdW  Elec       q    Type
REMARK                         _______ _______ _______ _____ _____    ______ ____
ROOT
ATOM      1  C   UNL     1      -0.019   1.526   0.010  0.00  0.00    +0.038 C 
ATOM      2  C   UNL     1       0.002  -0.004   0.002  0.00  0.00    +0.156 C 
ENDROOT
BRANCH   2   3
ATOM      3  N   UNL     1       0.688  -0.476  -1.203  0.00  0.00    -0.316 N 
ATOM      4  C   UNL     1       2.061  -0.589  -1.215  0.00  0.00    +0.150 C 
ATOM      5  N   UNL     1       2.752  -0.285  -0.163  0.00  0.00    -0.113 NA
ATOM      6  S   UNL     1       4.352  -0.553  -0.574  0.00  0.00    +0.101 S 
ATOM      7  O   UNL     1       4.818  -1.654   0.194  0.00  0.00    -0.146 OA
ATOM      8  O   UNL     1       5.006   0.708  -0.612  0.00  0.00    -0.146 OA
ATOM      9  C   UNL     1       4.148  -1.107  -2.245  0.00  0.00    +0.123 A 
ATOM     10  C   UNL     1       2.758  -1.063  -2.421  0.00  0.00    +0.043 A 
ATOM     11  C   UNL     1       2.253  -1.456  -3.670  0.00  0.00    +0.013 A 
ATOM     12  C   UNL     1       3.108  -1.869  -4.666  0.00  0.00    +0.001 A 
ATOM     13  C   UNL     1       4.476  -1.907  -4.461  0.00  0.00    +0.002 A 
ATOM     14  C   UNL     1       4.994  -1.513  -3.235  0.00  0.00    +0.030 A 
ATOM     15  H   UNL     1       0.175  -0.710  -1.993  0.00  0.00    +0.148 HD
ENDBRANCH   2   3
BRANCH   2  16
ATOM     16  C   UNL     1      -1.412  -0.526   0.013  0.00  0.00    +0.249 C 
ATOM     17  O   UNL     1      -1.808  -1.223  -0.897  0.00  0.00    -0.272 OA
ATOM     18  N   UNL     1      -2.236  -0.217   1.033  0.00  0.00    -0.232 N 
ATOM     19  H   UNL     1      -1.920   0.341   1.761  0.00  0.00    +0.173 HD
BRANCH  18  20
ATOM     20  N   UNL     1      -3.551  -0.702   1.043  0.00  0.00    -0.218 N 
ATOM     21  C   UNL     1      -4.375  -0.393   2.063  0.00  0.00    +0.316 C 
ATOM     22  O   UNL     1      -5.516  -0.814   2.072  0.00  0.00    -0.251 OA
ATOM     23  N   UNL     1      -3.935   0.382   3.074  0.00  0.00    -0.298 N 
ATOM     24  H   UNL     1      -3.867  -1.260   0.316  0.00  0.00    +0.174 HD
ATOM     25  H   UNL     1      -3.025   0.718   3.067  0.00  0.00    +0.150 HD
BRANCH  23  26
ATOM     26  C   UNL     1      -4.832   0.718   4.184  0.00  0.00    +0.109 C 
BRANCH  26  27
ATOM     27  C   UNL     1      -4.090   1.602   5.188  0.00  0.00    +0.006 C 
ATOM     28  C   UNL     1      -3.873   1.043   6.596  0.00  0.00    +0.005 C 
ATOM     29  C   UNL     1      -4.893   2.159   6.366  0.00  0.00    +0.005 C 
ENDBRANCH  26  27
ENDBRANCH  23  26
ENDBRANCH  18  20
ENDBRANCH   2  16
TORSDOF 5
