REMARK  Name = ZINC09806719
REMARK  8 active torsions:
REMARK  status: ('A' for Active; 'I' for Inactive)
REMARK    1  A    between atoms: C_1  and  C_2
REMARK    2  A    between atoms: C_6  and  C_9
REMARK    3  A    between atoms: C_14  and  S_16
REMARK    4  A    between atoms: S_16  and  C_17
REMARK    5  A    between atoms: C_17  and  C_19
REMARK    6  A    between atoms: C_17  and  C_22
REMARK    7  A    between atoms: C_19  and  C_20
REMARK    8  A    between atoms: C_19  and  C_21
REMARK                            x       y       z     vdW  Elec       q    Type
REMARK                         _______ _______ _______ _____ _____    ______ ____
ROOT
ATOM      1  C   UNL     1       0.333   3.703  -0.295  0.00  0.00    +0.088 C 
ATOM      2  C   UNL     1       0.567   2.226  -0.113  0.00  0.00    +0.128 A 
ATOM      3  N   UNL     1       1.801   1.778   0.017  0.00  0.00    -0.225 NA
ATOM      4  C   UNL     1       2.031   0.489   0.178  0.00  0.00    +0.113 A 
ATOM      5  C   UNL     1       0.977  -0.446   0.216  0.00  0.00    +0.048 A 
ATOM      6  C   UNL     1       1.392  -1.833   0.400  0.00  0.00    +0.008 A 
ATOM      7  C   UNL     1       2.714  -2.108   0.516  0.00  0.00    +0.057 A 
ATOM      8  S   UNL     1       3.484  -0.506   0.384  0.00  0.00    -0.076 S 
ATOM      9  C   UNL     1      -0.327   0.099   0.070  0.00  0.00    +0.110 A 
ATOM     10  N   UNL     1      -0.468   1.406  -0.086  0.00  0.00    -0.225 NA
ENDROOT
BRANCH   6  11
ATOM     11  C   UNL     1       0.389  -2.918   0.459  0.00  0.00    +0.021 A 
ATOM     12  C   UNL     1      -0.557  -3.269  -0.467  0.00  0.00    +0.016 A 
ATOM     13  C   UNL     1      -1.393  -4.330  -0.189  0.00  0.00    +0.008 A 
ATOM     14  C   UNL     1      -1.253  -4.991   0.988  0.00  0.00    +0.046 A 
ATOM     15  S   UNL     1       0.102  -4.115   1.751  0.00  0.00    -0.097 S 
ENDBRANCH   6  11
BRANCH   9  16
ATOM     16  S   UNL     1      -1.740  -0.953   0.098  0.00  0.00    -0.092 S 
BRANCH  16  17
ATOM     17  C   UNL     1      -3.057   0.287   0.027  0.00  0.00    +0.141 C 
BRANCH  17  18
ATOM     18  C   UNL     1      -3.067   0.930  -1.336  0.00  0.00    +0.234 C 
ATOM     19  O   UNL     1      -2.623   0.332  -2.292  0.00  0.00    -0.274 OA
ATOM     20  N   UNL     1      -3.570   2.171  -1.491  0.00  0.00    -0.239 N 
ATOM     21  C   UNL     1      -3.579   2.747  -2.710  0.00  0.00    +0.303 C 
ATOM     22  O   UNL     1      -3.134   2.147  -3.668  0.00  0.00    -0.253 OA
ATOM     23  N   UNL     1      -4.082   3.988  -2.865  0.00  0.00    -0.313 N 
ATOM     24  H   UNL     1      -3.925   2.650  -0.726  0.00  0.00    +0.159 HD
ATOM     25  H   UNL     1      -4.437   4.466  -2.100  0.00  0.00    +0.146 HD
ATOM     26  H   UNL     1      -4.089   4.402  -3.742  0.00  0.00    +0.146 HD
ENDBRANCH  17  18
BRANCH  17  27
ATOM     27  C   UNL     1      -4.407  -0.387   0.283  0.00  0.00    +0.005 C 
ATOM     28  C   UNL     1      -4.607  -1.524  -0.720  0.00  0.00    +0.009 C 
ATOM     29  C   UNL     1      -4.434  -0.950   1.705  0.00  0.00    +0.009 C 
ENDBRANCH  17  27
ENDBRANCH  16  17
ENDBRANCH   9  16
TORSDOF 5
