REMARK  Name = ZINC64960102
REMARK  3 active torsions:
REMARK  status: ('A' for Active; 'I' for Inactive)
REMARK    1  A    between atoms: C_1  and  C_2
REMARK    2  A    between atoms: C_7  and  N_8
REMARK    3  A    between atoms: C_9  and  C_11
REMARK                            x       y       z     vdW  Elec       q    Type
REMARK                         _______ _______ _______ _____ _____    ______ ____
ROOT
ATOM      1  C   UNL     1       0.042  -0.139   4.993  0.00  0.00    +0.247 C 
ATOM      2  N   UNL     1       1.349   0.458   5.255  0.00  0.00    -0.319 N 
ATOM      3  C   UNL     1       2.502  -0.291   5.475  0.00  0.00    +0.055 A 
ATOM      4  C   UNL     1       3.743   0.307   5.262  0.00  0.00    +0.026 A 
ATOM      5  C   UNL     1       4.904  -0.402   5.486  0.00  0.00    +0.022 A 
ATOM      6  C   UNL     1       4.846  -1.713   5.927  0.00  0.00    +0.043 A 
ATOM      7  C   UNL     1       3.618  -2.316   6.136  0.00  0.00    +0.050 A 
ATOM      8  C   UNL     1       2.455  -1.611   5.903  0.00  0.00    +0.127 A 
ATOM      9  S   UNL     1       0.889  -2.398   6.131  0.00  0.00    +0.062 S 
ATOM     10  O   UNL     1       0.855  -2.873   7.470  0.00  0.00    -0.153 OA
ATOM     11  O   UNL     1       0.682  -3.244   5.009  0.00  0.00    -0.153 OA
ATOM     12  N   UNL     1      -0.231  -1.161   6.024  0.00  0.00    -0.161 NA
ATOM     13 CL   UNL     1       6.311  -2.599   6.218  0.00  0.00    -0.083 Cl
ATOM     14  H   UNL     1       1.417   1.425   5.276  0.00  0.00    +0.148 HD
ATOM     15  H   UNL     1      -1.008  -1.115   6.602  0.00  0.00    +0.151 HD
ENDROOT
BRANCH   1  17
ATOM     16  N   UNL     1      -1.118  -1.162   3.062  0.00  0.00    -0.283 N 
ATOM     17  C   UNL     1       0.044  -0.783   3.630  0.00  0.00    +0.254 C 
ATOM     18  O   UNL     1       1.091  -0.960   3.045  0.00  0.00    -0.272 OA
ATOM     19  H   UNL     1      -1.960  -0.966   3.503  0.00  0.00    +0.155 HD
BRANCH  16  26
ATOM     20  C   UNL     1      -3.112  -3.140   2.608  0.00  0.00    +0.046 C 
ATOM     21  C   UNL     1      -2.065  -2.812   1.574  0.00  0.00    -0.027 A 
ATOM     22  C   UNL     1      -2.059  -3.475   0.362  0.00  0.00    +0.043 A 
ATOM     23  C   UNL     1      -1.098  -3.174  -0.588  0.00  0.00    +0.124 A 
ATOM     24  C   UNL     1      -0.141  -2.209  -0.325  0.00  0.00    +0.040 A 
ATOM     25  C   UNL     1      -0.143  -1.544   0.885  0.00  0.00    +0.026 A 
ATOM     26  C   UNL     1      -1.110  -1.840   1.837  0.00  0.00    +0.037 A 
ATOM     27  F   UNL     1      -1.094  -3.824  -1.772  0.00  0.00    -0.205 F 
ENDBRANCH  16  26
ENDBRANCH   1  17
TORSDOF 2
