REMARK  Name = ZINC35389497
REMARK  10 active torsions:
REMARK  status: ('A' for Active; 'I' for Inactive)
REMARK    1  A    between atoms: C_1  and  C_2
REMARK    2  A    between atoms: C_2  and  C_3
REMARK    3  A    between atoms: C_2  and  N_4
REMARK    4  A    between atoms: C_6  and  C_11
REMARK    5  A    between atoms: N_13  and  CA_14
REMARK    6  A    between atoms: CA_14  and  C_16
REMARK    7  A    between atoms: CA_14  and  C_19
REMARK    8  A    between atoms: C_19  and  C_20
REMARK    9  A    between atoms: C_19  and  C_21
REMARK   10  A    between atoms: C_19  and  C_22
REMARK                            x       y       z     vdW  Elec       q    Type
REMARK                         _______ _______ _______ _____ _____    ______ ____
ROOT
ATOM      1  C   UNL     1       1.315  -3.252  -2.688  0.00  0.00    +0.219 C 
ATOM      2  O   UNL     1       0.790  -3.719  -1.700  0.00  0.00    -0.275 OA
ATOM      3  N   UNL     1       1.293  -3.935  -3.850  0.00  0.00    -0.302 N 
ATOM      4  H   UNL     1       1.712  -3.562  -4.640  0.00  0.00    +0.150 HD
ENDROOT
BRANCH   1   7
ATOM      5  N   UNL     1       0.688  -0.476  -1.203  0.00  0.00    -0.298 N 
ATOM      6  C   UNL     1       1.894  -1.312  -1.196  0.00  0.00    +0.121 C 
ATOM      7  C   UNL     1       1.992  -1.907  -2.618  0.00  0.00    +0.101 C 
ATOM      8  C   UNL     1       1.225  -0.856  -3.453  0.00  0.00    +0.110 C 
ATOM      9  C   UNL     1       0.290  -0.205  -2.458  0.00  0.00    +0.217 C 
ATOM     10  O   UNL     1      -0.677   0.466  -2.750  0.00  0.00    -0.276 OA
BRANCH   5  12
ATOM     11  C   UNL     1      -0.019   1.526   0.010  0.00  0.00    +0.028 C 
ATOM     12  C   UNL     1       0.002  -0.004   0.002  0.00  0.00    +0.070 C 
ATOM     13  C   UNL     1      -1.433  -0.534   0.013  0.00  0.00    +0.028 C 
ENDBRANCH   5  12
ENDBRANCH   1   7
BRANCH   3  14
ATOM     14  CA  UNL     1       0.634  -5.242  -3.918  0.00  0.00    +0.192 C 
BRANCH  14  15
ATOM     15  C   UNL     1       0.195  -5.517  -5.357  0.00  0.00    -0.009 C 
ATOM     16  C   UNL     1       1.420  -5.515  -6.274  0.00  0.00    +0.013 C 
ATOM     17  C   UNL     1      -0.493  -6.882  -5.428  0.00  0.00    +0.013 C 
ATOM     18  C   UNL     1      -0.782  -4.430  -5.809  0.00  0.00    +0.013 C 
ENDBRANCH  14  15
BRANCH  14  19
ATOM     19  C   UNL     1       1.597  -6.313  -3.473  0.00  0.00    +0.376 C 
ATOM     20  O   UNL     1       2.728  -6.012  -3.131  0.00  0.00    -0.244 OA
ATOM     21  OXT UNL     1       1.245  -7.480  -3.455  0.00  0.00    -0.244 OA
ENDBRANCH  14  19
ENDBRANCH   3  14
TORSDOF 5
