REMARK  Name = ZINC16118612
REMARK  7 active torsions:
REMARK  status: ('A' for Active; 'I' for Inactive)
REMARK    1  A    between atoms: C_9  and  C_12
REMARK    2  A    between atoms: C_10  and  O_11
REMARK    3  A    between atoms: C_12  and  O_14
REMARK    4  A    between atoms: O_14  and  C_15
REMARK    5  A    between atoms: C_15  and  C_16
REMARK    6  A    between atoms: C_25  and  S_27
REMARK    7  A    between atoms: S_27  and  N_30
REMARK                            x       y       z     vdW  Elec       q    Type
REMARK                         _______ _______ _______ _____ _____    ______ ____
ROOT
ATOM      1  C   UNL     1       3.564  10.136   0.017  0.00  0.00    +0.258 C 
ATOM      2  O   UNL     1       4.528   9.400   0.005  0.00  0.00    -0.272 OA
ATOM      3  N   UNL     1       3.735  11.473   0.022  0.00  0.00    -0.268 N 
ATOM      4  C   UNL     1       2.651  12.459   0.030  0.00  0.00    +0.118 C 
ATOM      5  C   UNL     1       3.351  13.827   0.036  0.00  0.00    +0.056 C 
ATOM      6  C   UNL     1       4.828  13.500   0.021  0.00  0.00    -0.023 A 
ATOM      7  C   UNL     1       4.974  12.122   0.013  0.00  0.00    +0.040 A 
ATOM      8  C   UNL     1       6.259  11.576  -0.003  0.00  0.00    +0.026 A 
ATOM      9  C   UNL     1       7.364  12.401  -0.010  0.00  0.00    +0.030 A 
ATOM     10  C   UNL     1       7.207  13.774  -0.002  0.00  0.00    +0.105 A 
ATOM     11  C   UNL     1       5.938  14.322   0.013  0.00  0.00    +0.034 A 
ENDROOT
BRANCH  10  12
ATOM     12  S   UNL     1       8.622  14.825  -0.011  0.00  0.00    +0.056 S 
ATOM     13  O   UNL     1       8.211  16.064   0.550  0.00  0.00    -0.153 OA
ATOM     14  O   UNL     1       9.696  14.064   0.526  0.00  0.00    -0.153 OA
BRANCH  12  15
ATOM     15  N   UNL     1       9.000  15.124  -1.595  0.00  0.00    -0.204 NA
ATOM     16  H   UNL     1       8.464  14.734  -2.304  0.00  0.00    +0.144 HD
ATOM     17  H   UNL     1       9.757  15.689  -1.815  0.00  0.00    +0.144 HD
ENDBRANCH  12  15
ENDBRANCH  10  12
BRANCH   1  18
ATOM     18  C   UNL     1       2.173   9.555   0.028  0.00  0.00    +0.328 C 
BRANCH  18  19
ATOM     19  O   UNL     1       2.255   8.105   0.020  0.00  0.00    -0.452 OA
BRANCH  19  20
ATOM     20  C   UNL     1       1.090   7.426   0.028  0.00  0.00    +0.343 C 
ATOM     21  O   UNL     1       0.035   8.030   0.041  0.00  0.00    -0.245 OA
BRANCH  20  30
ATOM     22  C   UNL     1      -0.013   1.076   0.008  0.00  0.00    +0.001 A 
ATOM     23  C   UNL     1      -1.234   1.745   0.017  0.00  0.00    +0.001 A 
ATOM     24  C   UNL     1      -1.286   3.106   0.030  0.00  0.00    +0.012 A 
ATOM     25  C   UNL     1      -0.093   3.848   0.023  0.00  0.00    +0.024 A 
ATOM     26  C   UNL     1       1.150   3.167   0.008  0.00  0.00    -0.014 A 
ATOM     27  C   UNL     1       1.163   1.763   0.000  0.00  0.00    +0.008 A 
ATOM     28  C   UNL     1       2.350   3.904  -0.000  0.00  0.00    +0.009 A 
ATOM     29  C   UNL     1       2.319   5.259   0.007  0.00  0.00    +0.019 A 
ATOM     30  C   UNL     1       1.095   5.955   0.021  0.00  0.00    +0.101 A 
ATOM     31  C   UNL     1      -0.112   5.257   0.029  0.00  0.00    +0.138 A 
BRANCH  31  32
ATOM     32  O   UNL     1      -1.289   5.926   0.043  0.00  0.00    -0.505 OA
ATOM     33  H   UNL     1      -1.623   6.116   0.931  0.00  0.00    +0.292 HD
ENDBRANCH  31  32
ENDBRANCH  20  30
ENDBRANCH  19  20
ENDBRANCH  18  19
ENDBRANCH   1  18
TORSDOF 7
