REMARK  Name = ZINC49063566
REMARK  8 active torsions:
REMARK  status: ('A' for Active; 'I' for Inactive)
REMARK    1  A    between atoms: C_1  and  C_2
REMARK    2  A    between atoms: C_2  and  C_4
REMARK    3  A    between atoms: C_2  and  S_8
REMARK    4  A    between atoms: C_4  and  O_6
REMARK    5  A    between atoms: O_6  and  C_7
REMARK    6  A    between atoms: S_8  and  N_11
REMARK    7  A    between atoms: N_11  and  C_12
REMARK    8  A    between atoms: C_13  and  C_20
REMARK                            x       y       z     vdW  Elec       q    Type
REMARK                         _______ _______ _______ _____ _____    ______ ____
ROOT
ATOM      1  C   UNL     1       3.336  -0.298  -2.332  0.00  0.00    +0.106 A 
ATOM      2  C   UNL     1       4.474  -1.029  -1.951  0.00  0.00    +0.090 A 
ATOM      3  C   UNL     1       5.432  -1.367  -2.914  0.00  0.00    +0.037 A 
ATOM      4  C   UNL     1       5.254  -0.982  -4.225  0.00  0.00    +0.043 A 
ATOM      5  C   UNL     1       4.130  -0.259  -4.597  0.00  0.00    +0.042 A 
ATOM      6  C   UNL     1       3.173   0.077  -3.661  0.00  0.00    +0.068 A 
ATOM      7 CL   UNL     1       1.767   0.975  -4.141  0.00  0.00    -0.081 Cl
ATOM      8 CL   UNL     1       6.444  -1.402  -5.417  0.00  0.00    -0.083 Cl
ENDROOT
BRANCH   2   9
ATOM      9  C   UNL     1       4.657  -1.437  -0.550  0.00  0.00    +0.389 C 
ATOM     10  O   UNL     1       5.649  -2.074  -0.223  0.00  0.00    -0.241 OA
ATOM     11  O   UNL     1       3.817  -1.139   0.288  0.00  0.00    -0.241 OA
ENDBRANCH   2   9
BRANCH   1  12
ATOM     12  N   UNL     1       2.378   0.044  -1.387  0.00  0.00    -0.100 NA
BRANCH  12  13
ATOM     13  S   UNL     1       0.877  -0.655  -1.440  0.00  0.00    +0.075 S 
ATOM     14  O   UNL     1       1.123  -2.050  -1.331  0.00  0.00    -0.153 OA
ATOM     15  O   UNL     1       0.267  -0.116  -2.604  0.00  0.00    -0.153 OA
BRANCH  13  17
ATOM     16  C   UNL     1      -0.055   1.475   0.001  0.00  0.00    +0.046 C 
ATOM     17  C   UNL     1       0.030  -0.052   0.046  0.00  0.00    +0.258 C 
BRANCH  17  18
ATOM     18  C   UNL     1      -1.360  -0.631   0.101  0.00  0.00    +0.333 C 
ATOM     19  O   UNL     1      -1.875  -1.063  -0.903  0.00  0.00    -0.249 OA
BRANCH  18  20
ATOM     20  O   UNL     1      -2.027  -0.666   1.266  0.00  0.00    -0.467 OA
ATOM     21  C   UNL     1      -3.340  -1.229   1.245  0.00  0.00    +0.280 C 
ENDBRANCH  18  20
ENDBRANCH  17  18
ENDBRANCH  13  17
ENDBRANCH  12  13
ENDBRANCH   1  12
TORSDOF 6
