REMARK  Name = ZINC40381726
REMARK  4 active torsions:
REMARK  status: ('A' for Active; 'I' for Inactive)
REMARK    1  A    between atoms: C_3  and  S_18
REMARK    2  A    between atoms: C_4  and  N_8
REMARK    3  A    between atoms: C_9  and  C_11
REMARK    4  A    between atoms: S_18  and  N_21
REMARK                            x       y       z     vdW  Elec       q    Type
REMARK                         _______ _______ _______ _____ _____    ______ ____
ROOT
ATOM      1  C   UNL     1      -0.023   1.369   0.039  0.00  0.00    +0.040 A 
ATOM      2  C   UNL     1       1.161   2.083   0.024  0.00  0.00    +0.033 A 
ATOM      3  C   UNL     1       2.371   1.417  -0.001  0.00  0.00    +0.126 A 
ATOM      4  C   UNL     1       2.399   0.028  -0.011  0.00  0.00    +0.063 A 
ATOM      5  C   UNL     1       1.210  -0.688   0.004  0.00  0.00    +0.063 A 
ATOM      6  C   UNL     1       0.000  -0.016   0.029  0.00  0.00    +0.125 A 
ATOM      7  F   UNL     1      -1.158  -0.711   0.044  0.00  0.00    -0.205 F 
ENDROOT
BRANCH   4   8
ATOM      8  N   UNL     1       3.623  -0.648  -0.036  0.00  0.00    -0.279 N 
ATOM      9  C   UNL     1       3.693  -1.897  -0.537  0.00  0.00    +0.265 C 
ATOM     10  O   UNL     1       2.714  -2.399  -1.059  0.00  0.00    -0.268 OA
ATOM     11  H   UNL     1       4.422  -0.217   0.306  0.00  0.00    +0.155 HD
BRANCH   9  12
ATOM     12  C   UNL     1       4.947  -2.651  -0.455  0.00  0.00    +0.103 A 
ATOM     13  C   UNL     1       5.164  -3.928  -0.928  0.00  0.00    +0.047 A 
ATOM     14  C   UNL     1       6.493  -4.254  -0.639  0.00  0.00    +0.036 A 
ATOM     15  C   UNL     1       7.053  -3.193  -0.009  0.00  0.00    +0.098 A 
ATOM     16  N   UNL     1       6.126  -2.211   0.104  0.00  0.00    -0.356 N 
ATOM     17  H   UNL     1       6.269  -1.342   0.513  0.00  0.00    +0.165 HD
ATOM     18 BR   UNL     1       7.355  -5.885  -1.054  0.00  0.00    -0.049 Br
ENDBRANCH   9  12
ENDBRANCH   4   8
BRANCH   3  19
ATOM     19  S   UNL     1       3.878   2.329  -0.020  0.00  0.00    +0.058 S 
ATOM     20  O   UNL     1       4.672   1.780  -1.063  0.00  0.00    -0.153 OA
ATOM     21  O   UNL     1       3.522   3.704   0.022  0.00  0.00    -0.153 OA
BRANCH  19  22
ATOM     22  N   UNL     1       4.667   2.001   1.398  0.00  0.00    -0.203 NA
ATOM     23  H   UNL     1       5.637   2.020   1.429  0.00  0.00    +0.144 HD
ATOM     24  H   UNL     1       4.160   1.791   2.198  0.00  0.00    +0.144 HD
ENDBRANCH  19  22
ENDBRANCH   3  19
TORSDOF 4
