REMARK  Name = ZINC49096391
REMARK  9 active torsions:
REMARK  status: ('A' for Active; 'I' for Inactive)
REMARK    1  A    between atoms: C_1  and  C_2
REMARK    2  A    between atoms: C_2  and  C_4
REMARK    3  A    between atoms: C_2  and  N_9
REMARK    4  A    between atoms: N_6  and  C_7
REMARK    5  A    between atoms: N_6  and  C_8
REMARK    6  A    between atoms: N_9  and  C_10
REMARK    7  A    between atoms: C_13  and  S_17
REMARK    8  A    between atoms: C_15  and  N_16
REMARK    9  A    between atoms: S_17  and  N_20
REMARK                            x       y       z     vdW  Elec       q    Type
REMARK                         _______ _______ _______ _____ _____    ______ ____
ROOT
ATOM      1  C   UNL     1       2.083  -0.591  -1.215  0.00  0.00    +0.049 A 
ATOM      2  C   UNL     1       2.818  -0.264  -0.086  0.00  0.00    +0.027 A 
ATOM      3  C   UNL     1       4.196  -0.378  -0.100  0.00  0.00    +0.030 A 
ATOM      4  C   UNL     1       4.845  -0.819  -1.238  0.00  0.00    +0.107 A 
ATOM      5  C   UNL     1       4.121  -1.148  -2.369  0.00  0.00    +0.053 A 
ATOM      6  C   UNL     1       2.738  -1.041  -2.362  0.00  0.00    +0.048 A 
ENDROOT
BRANCH   6   7
ATOM      7  N   UNL     1       2.002  -1.378  -3.504  0.00  0.00    -0.356 N 
ATOM      8  H   UNL     1       1.035  -1.300  -3.499  0.00  0.00    +0.142 HD
ATOM      9  H   UNL     1       2.459  -1.691  -4.301  0.00  0.00    +0.142 HD
ENDBRANCH   6   7
BRANCH   4  10
ATOM     10  S   UNL     1       6.601  -0.961  -1.247  0.00  0.00    +0.056 S 
ATOM     11  O   UNL     1       7.008  -0.875  -2.606  0.00  0.00    -0.153 OA
ATOM     12  O   UNL     1       7.086  -0.075  -0.249  0.00  0.00    -0.153 OA
BRANCH  10  13
ATOM     13  N   UNL     1       6.971  -2.494  -0.740  0.00  0.00    -0.204 NA
ATOM     14  H   UNL     1       6.261  -3.112  -0.506  0.00  0.00    +0.144 HD
ATOM     15  H   UNL     1       7.898  -2.773  -0.675  0.00  0.00    +0.144 HD
ENDBRANCH  10  13
ENDBRANCH   4  10
BRANCH   1  16
ATOM     16  N   UNL     1       0.688  -0.476  -1.203  0.00  0.00    -0.332 N 
ATOM     17  H   UNL     1       0.175  -0.710  -1.993  0.00  0.00    +0.147 HD
BRANCH  16  19
ATOM     18  C   UNL     1      -0.019   1.526   0.010  0.00  0.00    +0.038 C 
ATOM     19  C   UNL     1       0.002  -0.004   0.002  0.00  0.00    +0.154 C 
BRANCH  19  20
ATOM     20  C   UNL     1      -1.412  -0.526   0.013  0.00  0.00    +0.235 C 
ATOM     21  O   UNL     1      -1.808  -1.223  -0.897  0.00  0.00    -0.274 OA
ATOM     22  N   UNL     1      -2.236  -0.217   1.033  0.00  0.00    -0.306 N 
ATOM     23  C   UNL     1      -3.611  -0.724   1.044  0.00  0.00    +0.131 C 
ATOM     24  C   UNL     1      -1.758   0.626   2.132  0.00  0.00    +0.131 C 
ENDBRANCH  19  20
ENDBRANCH  16  19
ENDBRANCH   1  16
TORSDOF 6
