REMARK  Name = ZINC63764608
REMARK  7 active torsions:
REMARK  status: ('A' for Active; 'I' for Inactive)
REMARK    1  A    between atoms: C_1  and  C_2
REMARK    2  A    between atoms: C_4  and  C_28
REMARK    3  A    between atoms: C_5  and  C_9
REMARK    4  A    between atoms: C_6  and  C_8
REMARK    5  A    between atoms: C_9  and  N_10
REMARK    6  A    between atoms: N_10  and  S_11
REMARK    7  A    between atoms: S_11  and  C_14
REMARK                            x       y       z     vdW  Elec       q    Type
REMARK                         _______ _______ _______ _____ _____    ______ ____
ROOT
ATOM      1  S   UNL     1       1.788  -6.325   0.329  0.00  0.00    +0.059 S 
ATOM      2  O   UNL     1       3.196  -6.474   0.209  0.00  0.00    -0.153 OA
ATOM      3  O   UNL     1       1.090  -6.628   1.529  0.00  0.00    -0.153 OA
ENDROOT
BRANCH   1   4
ATOM      4  C   UNL     1       1.067  -7.316  -0.937  0.00  0.00    +0.107 A 
ATOM      5  C   UNL     1      -0.233  -7.774  -0.799  0.00  0.00    +0.030 A 
ATOM      6  C   UNL     1      -0.804  -8.551  -1.786  0.00  0.00    +0.030 A 
ATOM      7  C   UNL     1      -0.076  -8.877  -2.924  0.00  0.00    +0.066 A 
ATOM      8  C   UNL     1       1.234  -8.416  -3.063  0.00  0.00    +0.068 A 
ATOM      9  C   UNL     1       1.798  -7.629  -2.065  0.00  0.00    +0.056 A 
ATOM     10  N   UNL     1       1.980  -8.733  -4.195  0.00  0.00    -0.316 N 
ATOM     11  H   UNL     1       2.890  -8.408  -4.282  0.00  0.00    +0.169 HD
ATOM     12  C   UNL     1       1.440  -9.492  -5.170  0.00  0.00    +0.314 A 
ATOM     13  O   UNL     1       2.087  -9.771  -6.160  0.00  0.00    -0.262 OA
ATOM     14  C   UNL     1       0.040  -9.984  -5.022  0.00  0.00    +0.314 A 
ATOM     15  O   UNL     1      -0.465 -10.668  -5.889  0.00  0.00    -0.262 OA
ATOM     16  N   UNL     1      -0.659  -9.662  -3.915  0.00  0.00    -0.316 N 
ATOM     17  H   UNL     1      -1.570  -9.978  -3.809  0.00  0.00    +0.169 HD
ENDBRANCH   1   4
BRANCH   1  18
ATOM     18  N   UNL     1       1.447  -4.746  -0.032  0.00  0.00    -0.186 NA
ATOM     19  H   UNL     1       2.166  -4.132  -0.250  0.00  0.00    +0.148 HD
BRANCH  18  20
ATOM     20  C   UNL     1       0.059  -4.275  -0.021  0.00  0.00    +0.141 C 
BRANCH  20  25
ATOM     21  C   UNL     1      -0.018   1.503   0.010  0.00  0.00    +0.044 C 
ATOM     22  C   UNL     1       0.002  -0.004   0.002  0.00  0.00    -0.050 A 
ATOM     23  C   UNL     1       0.006  -0.689  -1.199  0.00  0.00    +0.007 A 
ATOM     24  C   UNL     1       0.025  -2.071  -1.206  0.00  0.00    -0.046 A 
ATOM     25  C   UNL     1       0.040  -2.768  -0.013  0.00  0.00    -0.026 A 
ATOM     26  C   UNL     1       0.037  -2.084   1.188  0.00  0.00    -0.046 A 
ATOM     27  C   UNL     1       0.023  -0.702   1.195  0.00  0.00    +0.007 A 
ATOM     28  C   UNL     1       0.054  -2.844   2.489  0.00  0.00    +0.044 C 
ATOM     29  C   UNL     1       0.027  -2.817  -2.516  0.00  0.00    +0.044 C 
ENDBRANCH  20  25
ENDBRANCH  18  20
ENDBRANCH   1  18
TORSDOF 4
