REMARK  Name = ZINC18467635
REMARK  8 active torsions:
REMARK  status: ('A' for Active; 'I' for Inactive)
REMARK    1  A    between atoms: C_1  and  C_2
REMARK    2  A    between atoms: C_6  and  C_9
REMARK    3  A    between atoms: C_7  and  N_8
REMARK    4  A    between atoms: C_9  and  O_11
REMARK    5  A    between atoms: O_11  and  C_12
REMARK    6  A    between atoms: C_12  and  C_14
REMARK    7  A    between atoms: C_12  and  C_15
REMARK    8  A    between atoms: C_26  and  C_28
REMARK                            x       y       z     vdW  Elec       q    Type
REMARK                         _______ _______ _______ _____ _____    ______ ____
ROOT
ATOM      1  C   UNL     1       1.545   1.511   0.072  0.00  0.00    +0.261 C 
ATOM      2  O   UNL     1       2.002   2.196  -0.819  0.00  0.00    -0.271 OA
ATOM      3  N   UNL     1       2.315   1.174   1.125  0.00  0.00    -0.258 N 
ATOM      4  C   UNL     1       1.809   0.282   2.180  0.00  0.00    +0.209 C 
ATOM      5  C   UNL     1       2.237   0.809   3.521  0.00  0.00    +0.235 C 
ATOM      6  O   UNL     1       1.551   0.589   4.497  0.00  0.00    -0.274 OA
ATOM      7  N   UNL     1       3.369   1.526   3.652  0.00  0.00    -0.283 N 
ATOM      8  C   UNL     1       4.152   1.837   2.535  0.00  0.00    +0.056 A 
ATOM      9  C   UNL     1       3.623   1.667   1.254  0.00  0.00    +0.058 A 
ATOM     10  C   UNL     1       4.380   1.982   0.141  0.00  0.00    +0.026 A 
ATOM     11  C   UNL     1       5.668   2.463   0.301  0.00  0.00    +0.014 A 
ATOM     12  C   UNL     1       6.196   2.627   1.568  0.00  0.00    +0.057 A 
ATOM     13  C   UNL     1       5.443   2.316   2.685  0.00  0.00    +0.037 A 
ATOM     14  H   UNL     1       3.645   1.830   4.531  0.00  0.00    +0.155 HD
ENDROOT
BRANCH  12  15
ATOM     15  C   UNL     1       7.601   3.148   1.732  0.00  0.00    +0.417 C 
ATOM     16  F   UNL     1       8.159   3.390   0.472  0.00  0.00    -0.166 F 
ATOM     17  F   UNL     1       7.573   4.339   2.466  0.00  0.00    -0.166 F 
ATOM     18  F   UNL     1       8.374   2.200   2.410  0.00  0.00    -0.166 F 
ENDBRANCH  12  15
BRANCH   1  19
ATOM     19  C   UNL     1       0.116   1.038   0.000  0.00  0.00    +0.259 C 
ATOM     20  C   UNL     1      -0.706   1.731   1.090  0.00  0.00    +0.062 C 
BRANCH  19  21
ATOM     21  O   UNL     1      -0.437   1.363  -1.302  0.00  0.00    -0.449 OA
BRANCH  21  22
ATOM     22  C   UNL     1      -1.390   0.541  -1.785  0.00  0.00    +0.342 C 
ATOM     23  O   UNL     1      -1.749  -0.421  -1.134  0.00  0.00    -0.245 OA
BRANCH  22  29
ATOM     24  C   UNL     1      -4.427  -0.830  -5.516  0.00  0.00    +0.045 C 
ATOM     25  C   UNL     1      -3.461   0.152  -4.905  0.00  0.00    -0.029 A 
ATOM     26  C   UNL     1      -3.138   1.312  -5.579  0.00  0.00    +0.005 A 
ATOM     27  C   UNL     1      -2.250   2.221  -5.026  0.00  0.00    +0.001 A 
ATOM     28  C   UNL     1      -1.680   1.978  -3.796  0.00  0.00    +0.017 A 
ATOM     29  C   UNL     1      -1.996   0.808  -3.100  0.00  0.00    +0.080 A 
ATOM     30  C   UNL     1      -2.891  -0.115  -3.666  0.00  0.00    +0.042 A 
BRANCH  30  31
ATOM     31  N   UNL     1      -3.210  -1.284  -2.989  0.00  0.00    -0.357 N 
ATOM     32  H   UNL     1      -2.883  -1.426  -2.087  0.00  0.00    +0.142 HD
ATOM     33  H   UNL     1      -3.760  -1.958  -3.417  0.00  0.00    +0.142 HD
ENDBRANCH  30  31
ENDBRANCH  22  29
ENDBRANCH  21  22
ENDBRANCH  19  21
ENDBRANCH   1  19
TORSDOF 6
