REMARK  Name = ZINC19993750
REMARK  5 active torsions:
REMARK  status: ('A' for Active; 'I' for Inactive)
REMARK    1  A    between atoms: C_1  and  C_2
REMARK    2  A    between atoms: N_7  and  C_10
REMARK    3  A    between atoms: C_10  and  C_11
REMARK    4  A    between atoms: C_11  and  C_13
REMARK    5  A    between atoms: C_15  and  C_16
REMARK                            x       y       z     vdW  Elec       q    Type
REMARK                         _______ _______ _______ _____ _____    ______ ____
ROOT
ATOM      1  C   UNL     1       2.851   0.052  -0.025  0.00  0.00    +0.046 C 
ATOM      2  C   UNL     1       2.565   1.532  -0.015  0.00  0.00    -0.017 A 
ATOM      3  C   UNL     1       1.246   1.991   0.001  0.00  0.00    +0.076 A 
ATOM      4  C   UNL     1       1.082   3.395   0.010  0.00  0.00    +0.116 A 
ATOM      5  N   UNL     1      -0.118   3.959   0.024  0.00  0.00    -0.230 NA
ATOM      6  C   UNL     1      -1.210   3.245   0.030  0.00  0.00    +0.203 A 
ATOM      7  N   UNL     1      -1.180   1.889   0.018  0.00  0.00    -0.295 N 
ATOM      8  C   UNL     1      -0.014   1.214   0.009  0.00  0.00    +0.263 A 
ATOM      9  O   UNL     1       0.002  -0.004   0.002  0.00  0.00    -0.267 OA
ATOM     10  S   UNL     1       2.751   4.000  -0.003  0.00  0.00    -0.064 S 
ATOM     11  C   UNL     1       3.595   2.427  -0.019  0.00  0.00    +0.079 A 
ENDROOT
BRANCH  11  12
ATOM     12  C   UNL     1       5.037   2.162  -0.034  0.00  0.00    +0.248 C 
ATOM     13  O   UNL     1       5.446   1.016  -0.044  0.00  0.00    -0.270 OA
ATOM     14  N   UNL     1       5.911   3.189  -0.037  0.00  0.00    -0.325 N 
ATOM     15  H   UNL     1       6.993   2.990  -0.048  0.00  0.00    +0.145 HD
ATOM     16  H   UNL     1       5.542   4.225  -0.028  0.00  0.00    +0.145 HD
ENDBRANCH  11  12
BRANCH   7  17
ATOM     17  C   UNL     1      -2.441   1.144   0.019  0.00  0.00    +0.156 C 
BRANCH  17  18
ATOM     18  C   UNL     1      -2.867   0.880   1.440  0.00  0.00    -0.060 C 
ATOM     19  C   UNL     1      -3.708   1.690   2.033  0.00  0.00    +0.009 C 
ATOM     20  C   UNL     1      -2.326  -0.317   2.179  0.00  0.00    +0.040 C 
ENDBRANCH  17  18
ENDBRANCH   7  17
TORSDOF 3
