REMARK  Name = ZINC55175448
REMARK  6 active torsions:
REMARK  status: ('A' for Active; 'I' for Inactive)
REMARK    1  A    between atoms: C_1  and  C_2
REMARK    2  A    between atoms: C_3  and  N_9
REMARK    3  A    between atoms: C_4  and  C_8
REMARK    4  A    between atoms: N_5  and  C_7
REMARK    5  A    between atoms: C_10  and  C_12
REMARK    6  A    between atoms: C_13  and  C_18
REMARK                            x       y       z     vdW  Elec       q    Type
REMARK                         _______ _______ _______ _____ _____    ______ ____
ROOT
ATOM      1  N   UNL     1      -0.221  -0.378  -2.465  0.00  0.00    -0.278 N 
ATOM      2  C   UNL     1       0.131   0.881  -2.793  0.00  0.00    +0.257 C 
ATOM      3  O   UNL     1       0.646   1.607  -1.961  0.00  0.00    -0.269 OA
ATOM      4  H   UNL     1      -0.572  -0.976  -3.143  0.00  0.00    +0.155 HD
ENDROOT
BRANCH   2   5
ATOM      5  C   UNL     1      -0.105   1.376  -4.149  0.00  0.00    +0.098 A 
ATOM      6  C   UNL     1       0.178   2.617  -4.701  0.00  0.00    +0.060 A 
ATOM      7  N   UNL     1      -0.148   2.783  -5.958  0.00  0.00    -0.230 NA
ATOM      8  C   UNL     1      -0.717   1.816  -6.656  0.00  0.00    +0.156 A 
ATOM      9  S   UNL     1      -0.831   0.549  -5.554  0.00  0.00    -0.048 S 
ATOM     10  N   UNL     1      -1.115   1.837  -7.976  0.00  0.00    -0.337 N 
ATOM     11  C   UNL     1       0.826   3.715  -3.897  0.00  0.00    +0.067 C 
ATOM     12  H   UNL     1      -0.987   2.638  -8.508  0.00  0.00    +0.144 HD
ATOM     13  H   UNL     1      -1.524   1.052  -8.372  0.00  0.00    +0.144 HD
ENDBRANCH   2   5
BRANCH   1  16
ATOM     14  C   UNL     1      -2.007   0.551  -0.088  0.00  0.00    +0.069 C 
ATOM     15  C   UNL     1      -0.863  -0.429  -0.044  0.00  0.00    +0.081 A 
ATOM     16  C   UNL     1      -0.079  -0.824  -1.137  0.00  0.00    +0.077 A 
ATOM     17  C   UNL     1       0.842  -1.715  -0.688  0.00  0.00    +0.057 A 
ATOM     18  N   UNL     1       0.641  -1.874   0.646  0.00  0.00    -0.270 N 
ATOM     19  N   UNL     1      -0.429  -1.053   1.021  0.00  0.00    -0.175 NA
ATOM     20  C   UNL     1       1.412  -2.747   1.536  0.00  0.00    +0.172 C 
ATOM     21  C   UNL     1       1.895  -2.403  -1.519  0.00  0.00    +0.067 C 
ENDBRANCH   1  16
TORSDOF 2
