REMARK  Name = ZINC20762884
REMARK  5 active torsions:
REMARK  status: ('A' for Active; 'I' for Inactive)
REMARK    1  A    between atoms: C_1  and  C_2
REMARK    2  A    between atoms: C_5  and  C_8
REMARK    3  A    between atoms: C_10  and  C_23
REMARK    4  A    between atoms: C_13  and  C_16
REMARK    5  A    between atoms: C_21  and  O_22
REMARK                            x       y       z     vdW  Elec       q    Type
REMARK                         _______ _______ _______ _____ _____    ______ ____
ROOT
ATOM      1  C   UNL     1       1.250  -2.158  -0.021  0.00  0.00    +0.047 C 
ATOM      2  N   UNL     1       0.137  -2.789  -0.013  0.00  0.00    -0.264 NA
ATOM      3  C   UNL     1       0.019  -4.242  -0.030  0.00  0.00    +0.205 C 
ATOM      4  N   UNL     1       1.287  -4.869   0.362  0.00  0.00    -0.284 NA
ATOM      5  C   UNL     1       2.396  -4.317  -0.434  0.00  0.00    +0.095 C 
ATOM      6  C   UNL     1       2.585  -2.849  -0.044  0.00  0.00    +0.079 C 
ATOM      7  H   UNL     1       1.478  -4.674   1.428  0.00  0.00    +0.125 HD
ENDROOT
BRANCH   1  12
ATOM      8  C   UNL     1       1.142   3.593   0.010  0.00  0.00    +0.044 C 
ATOM      9  C   UNL     1       1.170   2.086   0.002  0.00  0.00    -0.050 A 
ATOM     10  C   UNL     1      -0.017   1.375   0.010  0.00  0.00    +0.004 A 
ATOM     11  C   UNL     1       0.002  -0.004   0.002  0.00  0.00    +0.010 A 
ATOM     12  C   UNL     1       1.222  -0.682  -0.013  0.00  0.00    -0.004 A 
ATOM     13  C   UNL     1       2.416   0.042  -0.021  0.00  0.00    +0.010 A 
ATOM     14  C   UNL     1       2.383   1.421  -0.013  0.00  0.00    +0.004 A 
ENDBRANCH   1  12
BRANCH   3  15
ATOM     15  C   UNL     1      -0.348  -4.694  -1.420  0.00  0.00    +0.009 A 
ATOM     16  C   UNL     1       0.154  -5.883  -1.915  0.00  0.00    +0.008 A 
ATOM     17  C   UNL     1      -0.186  -6.300  -3.189  0.00  0.00    +0.000 A 
ATOM     18  C   UNL     1      -1.020  -5.524  -3.971  0.00  0.00    +0.001 A 
ATOM     19  C   UNL     1      -1.518  -4.332  -3.479  0.00  0.00    +0.020 A 
ATOM     20  C   UNL     1      -1.182  -3.916  -2.203  0.00  0.00    +0.047 A 
ATOM     21 CL   UNL     1      -1.807  -2.420  -1.584  0.00  0.00    -0.083 Cl
ENDBRANCH   3  15
BRANCH   5  22
ATOM     22  C   UNL     1       3.659  -5.088  -0.151  0.00  0.00    +0.011 A 
ATOM     23  C   UNL     1       3.769  -5.833   1.008  0.00  0.00    +0.009 A 
ATOM     24  C   UNL     1       4.926  -6.544   1.266  0.00  0.00    +0.001 A 
ATOM     25  C   UNL     1       5.980  -6.505   0.371  0.00  0.00    +0.004 A 
ATOM     26  C   UNL     1       5.877  -5.758  -0.786  0.00  0.00    +0.046 A 
ATOM     27  C   UNL     1       4.715  -5.047  -1.050  0.00  0.00    +0.122 A 
BRANCH  27  28
ATOM     28  O   UNL     1       4.611  -4.311  -2.188  0.00  0.00    -0.506 OA
ATOM     29  H   UNL     1       5.448  -4.279  -2.900  0.00  0.00    +0.292 HD
ENDBRANCH  27  28
ENDBRANCH   5  22
TORSDOF 4
