REMARK  Name = ZINC36863264
REMARK  7 active torsions:
REMARK  status: ('A' for Active; 'I' for Inactive)
REMARK    1  A    between atoms: C_1  and  C_2
REMARK    2  A    between atoms: C_2  and  C_3
REMARK    3  A    between atoms: C_3  and  N_4
REMARK    4  A    between atoms: C_6  and  N_21
REMARK    5  A    between atoms: C_8  and  C_9
REMARK    6  A    between atoms: C_13  and  C_20
REMARK    7  A    between atoms: C_17  and  C_19
REMARK                            x       y       z     vdW  Elec       q    Type
REMARK                         _______ _______ _______ _____ _____    ______ ____
ROOT
ATOM      1  N   UNL     1      -0.110  -3.857  -1.372  0.00  0.00    -0.341 N 
ATOM      2  C   UNL     1       1.217  -3.764  -1.088  0.00  0.00    +0.109 A 
ATOM      3  C   UNL     1       1.654  -2.527  -1.441  0.00  0.00    +0.043 A 
ATOM      4  C   UNL     1       0.563  -1.821  -1.965  0.00  0.00    +0.055 A 
ATOM      5  C   UNL     1      -0.527  -2.666  -1.921  0.00  0.00    +0.106 A 
ENDROOT
BRANCH   5   6
ATOM      6  C   UNL     1      -1.886  -2.350  -2.373  0.00  0.00    +0.264 C 
ATOM      7  O   UNL     1      -2.634  -3.244  -2.722  0.00  0.00    -0.268 OA
ATOM      8  N   UNL     1      -2.306  -1.070  -2.403  0.00  0.00    -0.289 N 
ATOM      9  C   UNL     1      -1.416   0.029  -1.996  0.00  0.00    +0.139 C 
ATOM     10  C   UNL     1      -2.161   0.905  -0.982  0.00  0.00    +0.133 C 
ATOM     11  O   UNL     1      -3.427   1.282  -1.527  0.00  0.00    -0.373 OA
ATOM     12  C   UNL     1      -4.303   0.183  -1.788  0.00  0.00    +0.182 C 
ATOM     13  C   UNL     1      -3.666  -0.729  -2.848  0.00  0.00    +0.099 C 
ATOM     14  C   UNL     1      -3.601   0.002  -4.191  0.00  0.00    +0.030 C 
ATOM     15  C   UNL     1      -1.336   2.159  -0.687  0.00  0.00    +0.039 C 
ENDBRANCH   5   6
BRANCH   3  16
ATOM     16  N   UNL     1       2.968  -2.042  -1.305  0.00  0.00    -0.357 N 
ATOM     17  H   UNL     1       3.658  -2.610  -0.928  0.00  0.00    +0.142 HD
ATOM     18  H   UNL     1       3.184  -1.140  -1.588  0.00  0.00    +0.142 HD
ENDBRANCH   3  16
BRANCH   1  19
ATOM     19  C   UNL     1      -0.954  -5.032  -1.139  0.00  0.00    +0.122 C 
BRANCH  19  21
ATOM     20  C   UNL     1      -1.984  -7.041  -2.209  0.00  0.00    +0.005 C 
ATOM     21  C   UNL     1      -1.006  -5.882  -2.411  0.00  0.00    +0.018 C 
ENDBRANCH  19  21
ENDBRANCH   1  19
TORSDOF 4
