REMARK  Name = ZINC64074650
REMARK  5 active torsions:
REMARK  status: ('A' for Active; 'I' for Inactive)
REMARK    1  A    between atoms: C_1  and  C_2
REMARK    2  A    between atoms: C_7  and  C_30
REMARK    3  A    between atoms: N_11  and  C_12
REMARK    4  A    between atoms: C_18  and  C_20
REMARK    5  A    between atoms: C_20  and  C_21
REMARK                            x       y       z     vdW  Elec       q    Type
REMARK                         _______ _______ _______ _____ _____    ______ ____
ROOT
ATOM      1  C   UNL     1       0.382  -0.281   2.577  0.00  0.00    +0.078 C 
ATOM      2  C   UNL     1       1.532   0.445   3.278  0.00  0.00    +0.041 C 
ATOM      3  C   UNL     1       1.149   0.711   4.737  0.00  0.00    +0.109 C 
ATOM      4  N   UNL     1       0.766  -0.561   5.365  0.00  0.00    -0.301 N 
ATOM      5  C   UNL     1      -0.269  -1.383   4.722  0.00  0.00    +0.109 C 
ATOM      6  C   UNL     1       0.130  -1.625   3.263  0.00  0.00    +0.041 C 
ATOM      7  C   UNL     1       1.352  -0.966   6.508  0.00  0.00    +0.220 C 
ATOM      8  O   UNL     1       2.205  -0.279   7.029  0.00  0.00    -0.275 OA
ENDROOT
BRANCH   1  18
ATOM      9  C   UNL     1      -0.019   1.526   0.010  0.00  0.00    +0.049 C 
ATOM     10  C   UNL     1       0.002  -0.004   0.002  0.00  0.00    +0.155 C 
ATOM     11  N   UNL     1       0.738  -0.494  -1.170  0.00  0.00    -0.325 N 
ATOM     12  C   UNL     1       1.829  -1.237  -0.697  0.00  0.00    +0.050 A 
ATOM     13  C   UNL     1       2.829  -1.910  -1.388  0.00  0.00    +0.037 A 
ATOM     14  C   UNL     1       3.817  -2.584  -0.696  0.00  0.00    +0.057 A 
ATOM     15  C   UNL     1       3.814  -2.592   0.686  0.00  0.00    +0.014 A 
ATOM     16  C   UNL     1       2.824  -1.925   1.382  0.00  0.00    +0.025 A 
ATOM     17  C   UNL     1       1.826  -1.244   0.695  0.00  0.00    +0.053 A 
ATOM     18  N   UNL     1       0.731  -0.507   1.172  0.00  0.00    -0.307 N 
ATOM     19  H   UNL     1       0.511  -0.335  -2.099  0.00  0.00    +0.148 HD
BRANCH  14  20
ATOM     20  C   UNL     1       4.900  -3.312  -1.450  0.00  0.00    +0.417 C 
ATOM     21  F   UNL     1       5.975  -2.445  -1.675  0.00  0.00    -0.166 F 
ATOM     22  F   UNL     1       5.335  -4.409  -0.698  0.00  0.00    -0.166 F 
ATOM     23  F   UNL     1       4.396  -3.758  -2.676  0.00  0.00    -0.166 F 
ENDBRANCH  14  20
ENDBRANCH   1  18
BRANCH   7  24
ATOM     24  C   UNL     1       0.948  -2.273   7.140  0.00  0.00    +0.129 C 
BRANCH  24  25
ATOM     25  C   UNL     1       1.748  -2.491   8.399  0.00  0.00    -0.033 C 
ATOM     26  C   UNL     1       1.374  -2.186   9.663  0.00  0.00    -0.001 A 
ATOM     27  C   UNL     1       0.158  -1.582  10.222  0.00  0.00    +0.010 A 
ATOM     28  C   UNL     1       0.073  -1.397  11.559  0.00  0.00    +0.001 A 
ATOM     29  C   UNL     1       1.114  -1.766  12.422  0.00  0.00    +0.002 A 
ATOM     30  C   UNL     1       2.261  -2.326  11.983  0.00  0.00    +0.026 A 
ATOM     31  C   UNL     1       2.458  -2.567  10.595  0.00  0.00    +0.043 A 
ATOM     32  N   UNL     1       3.463  -3.088   9.934  0.00  0.00    -0.380 N 
ATOM     33  C   UNL     1       3.127  -3.101   8.506  0.00  0.00    +0.145 C 
ATOM     34  H   UNL     1       4.290  -3.413  10.324  0.00  0.00    +0.160 HD
ENDBRANCH  24  25
ENDBRANCH   7  24
TORSDOF 4
