REMARK  Name = ZINC52838376
REMARK  4 active torsions:
REMARK  status: ('A' for Active; 'I' for Inactive)
REMARK    1  A    between atoms: C_1  and  C_2
REMARK    2  A    between atoms: C_4  and  C_9
REMARK    3  A    between atoms: C_5  and  N_8
REMARK    4  A    between atoms: N_6  and  N_7
REMARK                            x       y       z     vdW  Elec       q    Type
REMARK                         _______ _______ _______ _____ _____    ______ ____
ROOT
ATOM      1  C   UNL     1      -0.410   1.467   0.094  0.00  0.00    +0.088 C 
ATOM      2  C   UNL     1      -0.169  -0.020   0.039  0.00  0.00    +0.126 A 
ATOM      3  N   UNL     1      -0.295  -0.767  -1.020  0.00  0.00    -0.229 NA
ATOM      4  C   UNL     1      -0.001  -2.046  -0.703  0.00  0.00    +0.115 A 
ATOM      5  C   UNL     1       0.324  -2.082   0.625  0.00  0.00    +0.141 A 
ATOM      6  N   UNL     1       0.221  -0.798   1.087  0.00  0.00    -0.239 N 
ENDROOT
BRANCH   4   7
ATOM      7  C   UNL     1      -0.025  -3.203  -1.628  0.00  0.00    +0.040 A 
ATOM      8  C   UNL     1      -0.801  -4.324  -1.328  0.00  0.00    +0.052 A 
ATOM      9  C   UNL     1      -0.820  -5.399  -2.194  0.00  0.00    +0.021 A 
ATOM     10  C   UNL     1      -0.072  -5.366  -3.358  0.00  0.00    +0.003 A 
ATOM     11  C   UNL     1       0.699  -4.259  -3.661  0.00  0.00    +0.021 A 
ATOM     12  C   UNL     1       0.722  -3.175  -2.806  0.00  0.00    +0.052 A 
ATOM     13 CL   UNL     1       1.685  -1.782  -3.192  0.00  0.00    -0.083 Cl
ATOM     14 CL   UNL     1      -1.739  -4.366   0.132  0.00  0.00    -0.083 Cl
ENDBRANCH   4   7
BRANCH   6  15
ATOM     15  N   UNL     1       0.462  -0.375   2.363  0.00  0.00    -0.295 N 
ATOM     16  H   UNL     1      -0.376  -0.418   2.923  0.00  0.00    +0.163 HD
ATOM     17  H   UNL     1       1.207  -0.909   2.786  0.00  0.00    +0.163 HD
ENDBRANCH   6  15
BRANCH   5  18
ATOM     18  N   UNL     1       0.692  -3.203   1.360  0.00  0.00    -0.342 N 
ATOM     19  H   UNL     1       0.826  -4.054   0.914  0.00  0.00    +0.144 HD
ATOM     20  H   UNL     1       0.814  -3.135   2.320  0.00  0.00    +0.144 HD
ENDBRANCH   5  18
TORSDOF 3
