REMARK  Name = ZINC37579650
REMARK  10 active torsions:
REMARK  status: ('A' for Active; 'I' for Inactive)
REMARK    1  A    between atoms: C_4  and  S_12
REMARK    2  A    between atoms: C_5  and  C_7
REMARK    3  A    between atoms: C_8  and  C_9
REMARK    4  A    between atoms: C_9  and  C_10
REMARK    5  A    between atoms: C_10  and  O_11
REMARK    6  A    between atoms: S_12  and  N_15
REMARK    7  A    between atoms: N_15  and  C_16
REMARK    8  A    between atoms: C_16  and  C_17
REMARK    9  A    between atoms: C_17  and  S_18
REMARK   10  A    between atoms: S_18  and  N_21
REMARK                            x       y       z     vdW  Elec       q    Type
REMARK                         _______ _______ _______ _____ _____    ______ ____
ROOT
ATOM      1  S   UNL     1       4.123  -0.820  -0.036  0.00  0.00    +0.060 S 
ATOM      2  O   UNL     1       5.301  -0.035  -0.168  0.00  0.00    -0.153 OA
ATOM      3  O   UNL     1       3.918  -1.708   1.053  0.00  0.00    -0.153 OA
ENDROOT
BRANCH   1   7
ATOM      4  C   UNL     1       0.632   2.077  -0.023  0.00  0.00    +0.001 A 
ATOM      5  C   UNL     1       1.931   2.548  -0.102  0.00  0.00    +0.002 A 
ATOM      6  C   UNL     1       2.995   1.664  -0.106  0.00  0.00    +0.030 A 
ATOM      7  C   UNL     1       2.767   0.305  -0.030  0.00  0.00    +0.121 A 
ATOM      8  C   UNL     1       1.460  -0.176   0.050  0.00  0.00    +0.051 A 
ATOM      9  C   UNL     1       0.391   0.721   0.053  0.00  0.00    +0.019 A 
BRANCH   8  10
ATOM     10  C   UNL     1       1.216  -1.585   0.129  0.00  0.00    -0.064 C 
ATOM     11  C   UNL     1       1.016  -2.740   0.193  0.00  0.00    -0.095 C 
BRANCH  11  12
ATOM     12  C   UNL     1       0.766  -4.189   0.274  0.00  0.00    +0.117 C 
BRANCH  12  13
ATOM     13  C   UNL     1      -0.741  -4.442   0.353  0.00  0.00    +0.168 C 
BRANCH  13  14
ATOM     14  O   UNL     1      -0.984  -5.848   0.431  0.00  0.00    -0.394 OA
ATOM     15  H   UNL     1      -1.921  -6.083   0.484  0.00  0.00    +0.209 HD
ENDBRANCH  13  14
ENDBRANCH  12  13
ENDBRANCH  11  12
ENDBRANCH   8  10
ENDBRANCH   1   7
BRANCH   1  16
ATOM     16  N   UNL     1       4.002  -1.726  -1.416  0.00  0.00    -0.188 NA
ATOM     17  H   UNL     1       3.859  -2.684  -1.357  0.00  0.00    +0.148 HD
BRANCH  16  18
ATOM     18  C   UNL     1       4.109  -1.083  -2.728  0.00  0.00    +0.130 C 
BRANCH  18  19
ATOM     19  C   UNL     1       4.366  -2.145  -3.798  0.00  0.00    +0.201 C 
BRANCH  19  20
ATOM     20  S   UNL     1       4.356  -1.367  -5.437  0.00  0.00    +0.028 S 
ATOM     21  O   UNL     1       3.075  -0.814  -5.708  0.00  0.00    -0.158 OA
ATOM     22  O   UNL     1       5.533  -0.592  -5.619  0.00  0.00    -0.158 OA
BRANCH  20  23
ATOM     23  N   UNL     1       4.508  -2.624  -6.505  0.00  0.00    -0.208 NA
ATOM     24  H   UNL     1       4.578  -3.534  -6.177  0.00  0.00    +0.144 HD
ATOM     25  H   UNL     1       4.527  -2.450  -7.459  0.00  0.00    +0.144 HD
ENDBRANCH  20  23
ENDBRANCH  19  20
ENDBRANCH  18  19
ENDBRANCH  16  18
ENDBRANCH   1  16
TORSDOF 10
