REMARK  Name = ZINC09885466
REMARK  7 active torsions:
REMARK  status: ('A' for Active; 'I' for Inactive)
REMARK    1  A    between atoms: C_3  and  C_6
REMARK    2  A    between atoms: N_8  and  N_9
REMARK    3  A    between atoms: C_10  and  C_12
REMARK    4  A    between atoms: C_12  and  C_13
REMARK    5  A    between atoms: C_16  and  N_19
REMARK    6  A    between atoms: N_19  and  S_20
REMARK    7  A    between atoms: S_20  and  C_23
REMARK                            x       y       z     vdW  Elec       q    Type
REMARK                         _______ _______ _______ _____ _____    ______ ____
ROOT
ATOM      1  C   UNL     1       4.111  -1.930  -4.276  0.00  0.00    -0.038 A 
ATOM      2  C   UNL     1       3.466  -3.151  -4.352  0.00  0.00    +0.006 A 
ATOM      3  C   UNL     1       2.470  -3.466  -3.448  0.00  0.00    +0.025 A 
ATOM      4  C   UNL     1       2.117  -2.555  -2.461  0.00  0.00    +0.048 A 
ATOM      5  C   UNL     1       2.763  -1.327  -2.391  0.00  0.00    +0.025 A 
ATOM      6  C   UNL     1       3.761  -1.021  -3.295  0.00  0.00    +0.006 A 
ENDROOT
BRANCH   4   7
ATOM      7  N   UNL     1       1.110  -2.869  -1.546  0.00  0.00    -0.216 N 
ATOM      8  H   UNL     1       0.238  -2.453  -1.622  0.00  0.00    +0.174 HD
BRANCH   7   9
ATOM      9  S   UNL     1       1.406  -3.955  -0.330  0.00  0.00    +0.072 S 
ATOM     10  O   UNL     1       1.970  -5.107  -0.943  0.00  0.00    -0.150 OA
ATOM     11  O   UNL     1       0.226  -4.012   0.459  0.00  0.00    -0.150 OA
BRANCH   9  12
ATOM     12  C   UNL     1       2.663  -3.262   0.692  0.00  0.00    +0.109 A 
ATOM     13  C   UNL     1       2.325  -2.377   1.698  0.00  0.00    +0.031 A 
ATOM     14  C   UNL     1       3.310  -1.833   2.501  0.00  0.00    +0.040 A 
ATOM     15  C   UNL     1       4.636  -2.175   2.296  0.00  0.00    +0.124 A 
ATOM     16  C   UNL     1       4.973  -3.061   1.288  0.00  0.00    +0.040 A 
ATOM     17  C   UNL     1       3.987  -3.604   0.487  0.00  0.00    +0.031 A 
ATOM     18  F   UNL     1       5.599  -1.643   3.080  0.00  0.00    -0.205 F 
ENDBRANCH   9  12
ENDBRANCH   7   9
ENDBRANCH   4   7
BRANCH   1  19
ATOM     19  C   UNL     1       5.197  -1.591  -5.264  0.00  0.00    +0.132 C 
BRANCH  19  21
ATOM     20  N   UNL     1       5.377  -0.514  -7.483  0.00  0.00    -0.234 N 
ATOM     21  C   UNL     1       4.590  -0.911  -6.464  0.00  0.00    +0.233 C 
ATOM     22  O   UNL     1       3.393  -0.721  -6.512  0.00  0.00    -0.274 OA
ATOM     23  H   UNL     1       6.334  -0.666  -7.445  0.00  0.00    +0.173 HD
BRANCH  20  26
ATOM     24  C   UNL     1       5.599   0.515  -9.619  0.00  0.00    +0.267 C 
ATOM     25  O   UNL     1       6.800   0.324  -9.570  0.00  0.00    -0.268 OA
ATOM     26  N   UNL     1       4.812   0.118  -8.599  0.00  0.00    -0.230 N 
ATOM     27  H   UNL     1       3.855   0.270  -8.638  0.00  0.00    +0.173 HD
BRANCH  24  30
ATOM     28  C   UNL     1       4.833   2.240 -12.878  0.00  0.00    +0.008 A 
ATOM     29  C   UNL     1       5.633   1.661 -11.924  0.00  0.00    +0.021 A 
ATOM     30  C   UNL     1       5.008   1.176 -10.786  0.00  0.00    +0.075 A 
ATOM     31  S   UNL     1       3.299   1.573 -11.108  0.00  0.00    -0.092 S 
ATOM     32  C   UNL     1       3.494   2.318 -12.662  0.00  0.00    +0.046 A 
ENDBRANCH  24  30
ENDBRANCH  20  26
ENDBRANCH  19  21
ENDBRANCH   1  19
TORSDOF 7
