REMARK  Name = ZINC61589782
REMARK  3 active torsions:
REMARK  status: ('A' for Active; 'I' for Inactive)
REMARK    1  A    between atoms: C_1  and  C_2
REMARK    2  A    between atoms: C_4  and  N_14
REMARK    3  A    between atoms: N_5  and  C_7
REMARK                            x       y       z     vdW  Elec       q    Type
REMARK                         _______ _______ _______ _____ _____    ______ ____
ROOT
ATOM      1  C   UNL     1      -0.018   1.503   0.010  0.00  0.00    +0.069 C 
ATOM      2  C   UNL     1       0.002  -0.004   0.002  0.00  0.00    +0.076 A 
ATOM      3  C   UNL     1       0.008  -0.815  -1.136  0.00  0.00    +0.080 A 
ATOM      4  C   UNL     1       0.027  -2.113  -0.724  0.00  0.00    +0.129 A 
ATOM      5  N   UNL     1       0.034  -2.109   0.634  0.00  0.00    -0.246 N 
ATOM      6  N   UNL     1       0.023  -0.775   1.059  0.00  0.00    -0.173 NA
ATOM      7 BR   UNL     1      -0.009  -0.216  -2.930  0.00  0.00    -0.045 Br
ENDROOT
BRANCH   5   8
ATOM      8  C   UNL     1       0.053  -3.291   1.500  0.00  0.00    +0.119 C 
ATOM      9  C   UNL     1      -1.191  -3.293   2.382  0.00  0.00    +0.028 C 
ATOM     10  C   UNL     1      -1.351  -4.636   3.090  0.00  0.00    +0.013 C 
ATOM     11  C   UNL     1      -0.280  -4.785   4.175  0.00  0.00    +0.069 C 
ATOM     12  S   UNL     1       1.357  -4.771   3.383  0.00  0.00    -0.159 S 
ATOM     13  C   UNL     1       1.311  -3.259   2.374  0.00  0.00    +0.096 C 
ENDBRANCH   5   8
BRANCH   4  14
ATOM     14  N   UNL     1       0.039  -3.238  -1.545  0.00  0.00    -0.342 N 
ATOM     15  H   UNL     1       0.033  -3.135  -2.510  0.00  0.00    +0.144 HD
ATOM     16  H   UNL     1       0.052  -4.125  -1.152  0.00  0.00    +0.144 HD
ENDBRANCH   4  14
TORSDOF 2
