REMARK  Name = ZINC35456697
REMARK  14 active torsions:
REMARK  status: ('A' for Active; 'I' for Inactive)
REMARK    1  A    between atoms: C_1  and  O_2
REMARK    2  A    between atoms: O_2  and  C_3
REMARK    3  A    between atoms: C_5  and  C_10
REMARK    4  A    between atoms: C_8  and  O_9
REMARK    5  A    between atoms: C_12  and  C_31
REMARK    6  A    between atoms: C_16  and  C_23
REMARK    7  A    between atoms: C_18  and  O_21
REMARK    8  A    between atoms: O_21  and  C_22
REMARK    9  A    between atoms: C_23  and  C_25
REMARK   10  A    between atoms: C_23  and  O_30
REMARK   11  A    between atoms: C_25  and  C_27
REMARK   12  A    between atoms: C_25  and  O_29
REMARK   13  A    between atoms: C_27  and  O_28
REMARK   14  A    between atoms: C_31  and  O_32
REMARK                            x       y       z     vdW  Elec       q    Type
REMARK                         _______ _______ _______ _____ _____    ______ ____
ROOT
ATOM      1  C   UNL     1      -4.871   0.257   0.037  0.00  0.00    +0.214 C 
ATOM      2  C   UNL     1      -5.513   0.286  -1.370  0.00  0.00    +0.093 C 
ATOM      3  C   UNL     1      -6.470  -0.888  -1.303  0.00  0.00    +0.007 A 
ATOM      4  C   UNL     1      -7.145  -1.588  -2.280  0.00  0.00    +0.014 A 
ATOM      5  C   UNL     1      -7.968  -2.645  -1.933  0.00  0.00    -0.013 A 
ATOM      6  C   UNL     1      -8.111  -2.996  -0.604  0.00  0.00    +0.055 A 
ATOM      7  C   UNL     1      -7.439  -2.294   0.380  0.00  0.00    +0.162 A 
ATOM      8  C   UNL     1      -6.609  -1.223   0.036  0.00  0.00    +0.166 A 
ATOM      9  O   UNL     1      -5.876  -0.392   0.835  0.00  0.00    -0.480 OA
ENDROOT
BRANCH   1  12
ATOM     10  C   UNL     1      -1.201  -0.638   0.010  0.00  0.00    +0.162 A 
ATOM     11  C   UNL     1      -2.374   0.099   0.019  0.00  0.00    +0.056 A 
ATOM     12  C   UNL     1      -3.596  -0.546   0.027  0.00  0.00    -0.003 A 
ATOM     13  C   UNL     1      -3.652  -1.928   0.026  0.00  0.00    +0.011 A 
ATOM     14  C   UNL     1      -2.485  -2.669   0.017  0.00  0.00    +0.049 A 
ATOM     15  C   UNL     1      -1.257  -2.028   0.003  0.00  0.00    +0.158 A 
BRANCH  10  17
ATOM     16  C   UNL     1      -0.017   1.425   0.010  0.00  0.00    +0.277 C 
ATOM     17  O   UNL     1       0.002  -0.004   0.002  0.00  0.00    -0.491 OA
ENDBRANCH  10  17
BRANCH  15  18
ATOM     18  O   UNL     1      -0.108  -2.756  -0.012  0.00  0.00    -0.503 OA
ATOM     19  H   UNL     1       0.232  -2.972   0.867  0.00  0.00    +0.292 HD
ENDBRANCH  15  18
ENDBRANCH   1  12
BRANCH   7  20
ATOM     20  O   UNL     1      -7.586  -2.645   1.685  0.00  0.00    -0.491 OA
ATOM     21  C   UNL     1      -8.450  -3.748   1.967  0.00  0.00    +0.277 C 
ENDBRANCH   7  20
BRANCH   5  22
ATOM     22  C   UNL     1      -8.705  -3.410  -3.002  0.00  0.00    +0.175 C 
BRANCH  22  23
ATOM     23  O   UNL     1     -10.024  -3.715  -2.544  0.00  0.00    -0.385 OA
ATOM     24  H   UNL     1     -10.048  -4.252  -1.740  0.00  0.00    +0.210 HD
ENDBRANCH  22  23
BRANCH  22  25
ATOM     25  C   UNL     1      -7.958  -4.710  -3.305  0.00  0.00    +0.173 C 
BRANCH  25  26
ATOM     26  O   UNL     1      -6.639  -4.406  -3.762  0.00  0.00    -0.387 OA
ATOM     27  H   UNL     1      -6.615  -3.869  -4.566  0.00  0.00    +0.210 HD
ENDBRANCH  25  26
BRANCH  25  28
ATOM     28  C   UNL     1      -8.707  -5.488  -4.389  0.00  0.00    +0.190 C 
BRANCH  28  29
ATOM     29  O   UNL     1      -8.075  -6.754  -4.590  0.00  0.00    -0.392 OA
ATOM     30  H   UNL     1      -8.498  -7.301  -5.266  0.00  0.00    +0.210 HD
ENDBRANCH  28  29
ENDBRANCH  25  28
ENDBRANCH  22  25
ENDBRANCH   5  22
BRANCH   2  31
ATOM     31  C   UNL     1      -6.268   1.596  -1.600  0.00  0.00    +0.168 C 
BRANCH  31  32
ATOM     32  O   UNL     1      -6.747   1.640  -2.946  0.00  0.00    -0.394 OA
ATOM     33  H   UNL     1      -7.237   2.445  -3.163  0.00  0.00    +0.209 HD
ENDBRANCH  31  32
ENDBRANCH   2  31
TORSDOF 12
