REMARK  Name = ZINC16492820
REMARK  5 active torsions:
REMARK  status: ('A' for Active; 'I' for Inactive)
REMARK    1  A    between atoms: C_1  and  C_2
REMARK    2  A    between atoms: C_5  and  N_9
REMARK    3  A    between atoms: C_18  and  C_22
REMARK    4  A    between atoms: N_24  and  C_25
REMARK    5  A    between atoms: C_25  and  C_26
REMARK                            x       y       z     vdW  Elec       q    Type
REMARK                         _______ _______ _______ _____ _____    ______ ____
ROOT
ATOM      1  N   UNL     1      -7.069   7.309   1.013  0.00  0.00    -0.269 N 
ATOM      2  C   UNL     1      -6.501   7.013  -0.172  0.00  0.00    +0.306 C 
ATOM      3  O   UNL     1      -7.013   7.400  -1.205  0.00  0.00    -0.252 OA
ATOM      4  N   UNL     1      -5.365   6.288  -0.213  0.00  0.00    -0.285 N 
ATOM      5  C   UNL     1      -4.800   5.856  -1.499  0.00  0.00    +0.109 C 
ATOM      6  C   UNL     1      -3.343   6.324  -1.578  0.00  0.00    +0.017 C 
ATOM      7  C   UNL     1      -2.589   5.845  -0.345  0.00  0.00    -0.016 C 
ATOM      8  C   UNL     1      -3.214   6.384   0.933  0.00  0.00    +0.017 C 
ATOM      9  C   UNL     1      -4.671   5.916   1.027  0.00  0.00    +0.109 C 
ATOM     10  C   UNL     1      -1.145   3.822  -0.237  0.00  0.00    +0.028 C 
ATOM     11  C   UNL     1      -0.124   4.753  -0.957  0.00  0.00    +0.061 C 
ATOM     12  S   UNL     1      -0.835   6.383  -0.449  0.00  0.00    -0.174 S 
ATOM     13  H   UNL     1      -6.606   7.097   1.839  0.00  0.00    +0.156 HD
ATOM     14  N   UNL     1      -2.536   4.350  -0.317  0.00  0.00    +0.397 N 
ATOM     15  H   UNL     1      -2.975   3.990  -1.172  0.00  0.00    -0.083 HD
ATOM     16  H   UNL     1      -3.060   4.019   0.502  0.00  0.00    -0.083 HD
ENDROOT
BRANCH   1  21
ATOM     17  C   UNL     1     -12.167   9.794   1.177  0.00  0.00    +0.045 C 
ATOM     18  C   UNL     1     -10.813   9.134   1.133  0.00  0.00    -0.032 A 
ATOM     19  C   UNL     1      -9.876   9.416   2.110  0.00  0.00    +0.006 A 
ATOM     20  C   UNL     1      -8.634   8.813   2.073  0.00  0.00    +0.024 A 
ATOM     21  C   UNL     1      -8.326   7.921   1.053  0.00  0.00    +0.036 A 
ATOM     22  C   UNL     1      -9.267   7.643   0.070  0.00  0.00    +0.043 A 
ATOM     23  C   UNL     1     -10.510   8.246   0.115  0.00  0.00    +0.046 A 
ATOM     24 CL   UNL     1     -11.689   7.895  -1.109  0.00  0.00    -0.083 Cl
ENDBRANCH   1  21
BRANCH  10  25
ATOM     25  C   UNL     1      -1.125   2.465  -0.891  0.00  0.00    +0.200 C 
ATOM     26  O   UNL     1      -2.141   2.009  -1.372  0.00  0.00    -0.278 OA
ATOM     27  N   UNL     1       0.021   1.757  -0.941  0.00  0.00    -0.313 N 
ATOM     28  H   UNL     1       0.834   2.124  -0.559  0.00  0.00    +0.149 HD
BRANCH  27  29
ATOM     29  C   UNL     1       0.040   0.437  -1.576  0.00  0.00    +0.139 C 
BRANCH  29  30
ATOM     30  C   UNL     1       1.432  -0.135  -1.505  0.00  0.00    -0.027 A 
ATOM     31  C   UNL     1       1.807  -0.906  -0.421  0.00  0.00    +0.009 A 
ATOM     32  C   UNL     1       3.083  -1.433  -0.351  0.00  0.00    +0.050 A 
ATOM     33  C   UNL     1       3.990  -1.189  -1.369  0.00  0.00    +0.166 A 
ATOM     34  C   UNL     1       3.613  -0.411  -2.461  0.00  0.00    +0.167 A 
ATOM     35  C   UNL     1       2.331   0.109  -2.527  0.00  0.00    +0.054 A 
ATOM     36  O   UNL     1       4.673  -0.318  -3.317  0.00  0.00    -0.453 OA
ATOM     37  C   UNL     1       5.825  -0.704  -2.545  0.00  0.00    +0.466 C 
ATOM     38  O   UNL     1       5.286  -1.583  -1.540  0.00  0.00    -0.453 OA
ENDBRANCH  29  30
ENDBRANCH  27  29
ENDBRANCH  10  25
TORSDOF 4
