REMARK  Name = ZINC09471249
REMARK  7 active torsions:
REMARK  status: ('A' for Active; 'I' for Inactive)
REMARK    1  A    between atoms: C_1  and  C_2
REMARK    2  A    between atoms: N_10  and  C_23
REMARK    3  A    between atoms: C_11  and  C_13
REMARK    4  A    between atoms: C_16  and  O_21
REMARK    5  A    between atoms: C_17  and  O_19
REMARK    6  A    between atoms: O_19  and  C_20
REMARK    7  A    between atoms: O_21  and  C_22
REMARK                            x       y       z     vdW  Elec       q    Type
REMARK                         _______ _______ _______ _____ _____    ______ ____
ROOT
ATOM      1  C   UNL     1      -0.018   1.503   0.010  0.00  0.00    +0.065 C 
ATOM      2  C   UNL     1       0.002  -0.004   0.002  0.00  0.00    +0.039 A 
ATOM      3  C   UNL     1       0.008  -0.797  -1.084  0.00  0.00    +0.030 A 
ATOM      4  C   UNL     1       0.028  -2.127  -0.596  0.00  0.00    +0.153 A 
ATOM      5  N   UNL     1       0.033  -2.046   0.718  0.00  0.00    -0.169 NA
ATOM      6  N   UNL     1       0.024  -0.813   1.085  0.00  0.00    -0.281 N 
ATOM      7  H   UNL     1       0.029  -0.508   2.006  0.00  0.00    +0.189 HD
ATOM      8  C   UNL     1       0.036  -3.034  -1.757  0.00  0.00    +0.272 C 
ATOM      9  O   UNL     1       0.052  -4.248  -1.688  0.00  0.00    -0.268 OA
ATOM     10  N   UNL     1       0.021  -2.332  -2.902  0.00  0.00    -0.254 N 
ATOM     11  C   UNL     1       0.003  -0.899  -2.585  0.00  0.00    +0.146 C 
ENDROOT
BRANCH  10  12
ATOM     12  C   UNL     1       0.024  -2.878  -4.190  0.00  0.00    +0.038 A 
ATOM     13  C   UNL     1       0.014  -2.044  -5.300  0.00  0.00    +0.024 A 
ATOM     14  C   UNL     1       0.018  -2.586  -6.570  0.00  0.00    +0.017 A 
ATOM     15  C   UNL     1       0.031  -3.959  -6.737  0.00  0.00    +0.018 A 
ATOM     16  C   UNL     1       0.040  -4.793  -5.633  0.00  0.00    +0.017 A 
ATOM     17  C   UNL     1       0.043  -4.256  -4.361  0.00  0.00    +0.024 A 
ATOM     18 BR   UNL     1       0.035  -4.698  -8.478  0.00  0.00    -0.050 Br
ENDBRANCH  10  12
BRANCH  11  19
ATOM     19  C   UNL     1      -1.244  -0.261  -3.143  0.00  0.00    -0.018 A 
ATOM     20  C   UNL     1      -2.439  -0.955  -3.127  0.00  0.00    +0.009 A 
ATOM     21  C   UNL     1      -3.586  -0.375  -3.637  0.00  0.00    +0.050 A 
ATOM     22  C   UNL     1      -3.538   0.906  -4.165  0.00  0.00    +0.162 A 
ATOM     23  C   UNL     1      -2.335   1.604  -4.180  0.00  0.00    +0.162 A 
ATOM     24  C   UNL     1      -1.190   1.018  -3.663  0.00  0.00    +0.055 A 
BRANCH  23  25
ATOM     25  O   UNL     1      -2.283   2.861  -4.697  0.00  0.00    -0.491 OA
ATOM     26  C   UNL     1      -1.014   3.518  -4.679  0.00  0.00    +0.277 C 
ENDBRANCH  23  25
BRANCH  22  27
ATOM     27  O   UNL     1      -4.665   1.478  -4.668  0.00  0.00    -0.491 OA
ATOM     28  C   UNL     1      -5.864   0.702  -4.620  0.00  0.00    +0.277 C 
ENDBRANCH  22  27
ENDBRANCH  11  19
TORSDOF 4
