REMARK  Name = ZINC11123190
REMARK  9 active torsions:
REMARK  status: ('A' for Active; 'I' for Inactive)
REMARK    1  A    between atoms: C_1  and  C_2
REMARK    2  A    between atoms: C_2  and  C_33
REMARK    3  A    between atoms: C_5  and  C_31
REMARK    4  A    between atoms: C_6  and  N_12
REMARK    5  A    between atoms: C_9  and  C_10
REMARK    6  A    between atoms: C_9  and  C_11
REMARK    7  A    between atoms: C_13  and  C_15
REMARK    8  A    between atoms: N_18  and  S_21
REMARK    9  A    between atoms: S_21  and  C_24
REMARK                            x       y       z     vdW  Elec       q    Type
REMARK                         _______ _______ _______ _____ _____    ______ ____
ROOT
ATOM      1  N   UNL     1       0.201   3.409   6.585  0.00  0.00    -0.279 N 
ATOM      2  C   UNL     1       1.206   3.279   5.696  0.00  0.00    +0.221 C 
ATOM      3  O   UNL     1       2.129   2.527   5.930  0.00  0.00    -0.275 OA
ATOM      4  H   UNL     1      -0.536   4.011   6.397  0.00  0.00    +0.155 HD
ENDROOT
BRANCH   1  10
ATOM      5  C   UNL     1      -1.973   0.111  12.983  0.00  0.00    -0.010 C 
ATOM      6  C   UNL     1      -1.166   0.241  11.678  0.00  0.00    -0.069 C 
ATOM      7  C   UNL     1      -1.343   1.672  11.157  0.00  0.00    +0.024 C 
ATOM      8  C   UNL     1      -0.454   1.827   9.931  0.00  0.00    -0.021 A 
ATOM      9  C   UNL     1      -0.713   2.685   8.796  0.00  0.00    +0.084 A 
ATOM     10  C   UNL     1       0.222   2.684   7.768  0.00  0.00    +0.090 A 
ATOM     11  S   UNL     1       1.419   1.560   8.321  0.00  0.00    -0.078 S 
ATOM     12  C   UNL     1       0.695   1.111   9.872  0.00  0.00    -0.015 A 
ATOM     13  C   UNL     1       1.210   0.169  10.910  0.00  0.00    -0.041 C 
ATOM     14  C   UNL     1       1.609  -1.155  10.242  0.00  0.00    -0.005 C 
ATOM     15  C   UNL     1       2.475   0.784  11.538  0.00  0.00    -0.005 C 
ATOM     16  C   UNL     1      -1.754  -0.743  10.662  0.00  0.00    -0.010 C 
ATOM     17  N   UNL     1       0.242  -0.092  12.014  0.00  0.00    +0.389 N 
ATOM     18  H   UNL     1       0.289  -1.089  12.255  0.00  0.00    -0.084 HD
ATOM     19  H   UNL     1       0.521   0.470  12.827  0.00  0.00    -0.084 HD
BRANCH   9  20
ATOM     20  C   UNL     1      -1.881   3.511   8.723  0.00  0.00    +0.102 C 
ATOM     21  N   UNL     1      -2.807   4.166   8.665  0.00  0.00    -0.191 NA
ENDBRANCH   9  20
ENDBRANCH   1  10
BRANCH   2  22
ATOM     22  C   UNL     1       1.184   4.067   4.412  0.00  0.00    +0.078 C 
ATOM     23  C   UNL     1       2.431   3.736   3.589  0.00  0.00    +0.030 C 
ATOM     24  C   UNL     1       2.422   4.565   2.300  0.00  0.00    +0.110 C 
ATOM     25  N   UNL     1       1.154   4.329   1.596  0.00  0.00    -0.177 NA
ATOM     26  C   UNL     1      -0.107   4.535   2.322  0.00  0.00    +0.110 C 
ATOM     27  C   UNL     1      -0.069   3.702   3.612  0.00  0.00    +0.030 C 
BRANCH  25  28
ATOM     28  S   UNL     1       1.146   3.847   0.011  0.00  0.00    +0.061 S 
ATOM     29  O   UNL     1       2.380   4.274  -0.549  0.00  0.00    -0.153 OA
ATOM     30  O   UNL     1      -0.110   4.239  -0.526  0.00  0.00    -0.153 OA
BRANCH  28  31
ATOM     31  C   UNL     1       1.171   2.086   0.002  0.00  0.00    +0.106 A 
ATOM     32  C   UNL     1      -0.017   1.378   0.010  0.00  0.00    +0.030 A 
ATOM     33  C   UNL     1       0.002  -0.004   0.002  0.00  0.00    +0.022 A 
ATOM     34  C   UNL     1       1.210  -0.679  -0.013  0.00  0.00    +0.041 A 
ATOM     35  C   UNL     1       2.398   0.030  -0.021  0.00  0.00    +0.022 A 
ATOM     36  C   UNL     1       2.378   1.412  -0.013  0.00  0.00    +0.030 A 
ATOM     37 CL   UNL     1       1.234  -2.415  -0.022  0.00  0.00    -0.084 Cl
ENDBRANCH  28  31
ENDBRANCH  25  28
ENDBRANCH   2  22
TORSDOF 5
