REMARK  Name = ZINC53071750
REMARK  6 active torsions:
REMARK  status: ('A' for Active; 'I' for Inactive)
REMARK    1  A    between atoms: C_1  and  N_2
REMARK    2  A    between atoms: C_5  and  S_8
REMARK    3  A    between atoms: S_8  and  N_11
REMARK    4  A    between atoms: N_11  and  C_12
REMARK    5  A    between atoms: C_12  and  C_17
REMARK    6  A    between atoms: C_17  and  O_18
REMARK                            x       y       z     vdW  Elec       q    Type
REMARK                         _______ _______ _______ _____ _____    ______ ____
ROOT
ATOM      1  S   UNL     1       0.115  -4.513   2.122  0.00  0.00    +0.079 S 
ATOM      2  O   UNL     1       0.989  -5.631   2.196  0.00  0.00    -0.151 OA
ATOM      3  O   UNL     1      -0.702  -4.112   3.213  0.00  0.00    -0.151 OA
ENDROOT
BRANCH   1   8
ATOM      4  C   UNL     1       3.076  -0.165   2.339  0.00  0.00    +0.151 C 
ATOM      5  N   UNL     1       2.336  -1.320   1.826  0.00  0.00    -0.323 N 
ATOM      6  C   UNL     1       2.218  -1.686   0.530  0.00  0.00    +0.202 A 
ATOM      7  N   UNL     1       1.486  -2.764   0.465  0.00  0.00    -0.215 NA
ATOM      8  C   UNL     1       1.113  -3.122   1.703  0.00  0.00    +0.230 A 
ATOM      9  C   UNL     1       1.639  -2.234   2.570  0.00  0.00    +0.156 A 
ATOM     10 CL   UNL     1       1.464  -2.246   4.297  0.00  0.00    -0.060 Cl
ENDBRANCH   1   8
BRANCH   1  11
ATOM     11  N   UNL     1      -0.901  -4.789   0.845  0.00  0.00    -0.180 NA
ATOM     12  H   UNL     1      -1.859  -4.673   0.953  0.00  0.00    +0.149 HD
BRANCH  11  13
ATOM     13  C   UNL     1      -0.356  -5.210  -0.448  0.00  0.00    +0.063 C 
ATOM     14  C   UNL     1      -0.139  -3.983  -1.369  0.00  0.00    +0.026 C 
ATOM     15  C   UNL     1      -1.558  -3.722  -1.931  0.00  0.00    +0.002 C 
ATOM     16  C   UNL     1      -2.143  -5.132  -2.152  0.00  0.00    +0.002 C 
ATOM     17  C   UNL     1      -1.379  -6.078  -1.209  0.00  0.00    +0.026 C 
BRANCH  13  18
ATOM     18  C   UNL     1       0.955  -5.974  -0.252  0.00  0.00    +0.179 C 
BRANCH  18  19
ATOM     19  O   UNL     1       1.947  -5.091   0.276  0.00  0.00    -0.393 OA
ATOM     20  H   UNL     1       2.806  -5.510   0.426  0.00  0.00    +0.209 HD
ENDBRANCH  18  19
ENDBRANCH  13  18
ENDBRANCH  11  13
ENDBRANCH   1  11
TORSDOF 5
