REMARK  Name = ZINC53003363
REMARK  3 active torsions:
REMARK  status: ('A' for Active; 'I' for Inactive)
REMARK    1  A    between atoms: C_1  and  C_2
REMARK    2  A    between atoms: C_5  and  N_21
REMARK    3  A    between atoms: C_6  and  C_8
REMARK                            x       y       z     vdW  Elec       q    Type
REMARK                         _______ _______ _______ _____ _____    ______ ____
ROOT
ATOM      1  C   UNL     1       0.406  -3.125   2.241  0.00  0.00    +0.249 C 
ATOM      2  O   UNL     1       0.466  -4.328   2.077  0.00  0.00    -0.270 OA
ATOM      3  N   UNL     1       0.510  -2.609   3.482  0.00  0.00    -0.290 N 
ATOM      4  C   UNL     1       0.311  -1.169   3.704  0.00  0.00    +0.136 C 
ATOM      5  C   UNL     1      -0.686  -1.013   4.860  0.00  0.00    +0.179 C 
ATOM      6  O   UNL     1      -0.190  -1.733   5.988  0.00  0.00    -0.373 OA
ATOM      7  C   UNL     1      -0.090  -3.147   5.817  0.00  0.00    +0.139 C 
ATOM      8  C   UNL     1       0.814  -3.475   4.615  0.00  0.00    +0.105 C 
ATOM      9  C   UNL     1       2.243  -3.231   5.127  0.00  0.00    +0.025 C 
ATOM     10  C   UNL     1       2.184  -3.372   6.660  0.00  0.00    +0.004 C 
ATOM     11  C   UNL     1       0.730  -3.700   7.014  0.00  0.00    +0.033 C 
ENDROOT
BRANCH   1  17
ATOM     12  C   UNL     1       1.747   0.929  -0.332  0.00  0.00    +0.044 C 
ATOM     13  C   UNL     1       0.862  -0.278  -0.161  0.00  0.00    -0.050 A 
ATOM     14  C   UNL     1      -0.127  -0.546  -1.094  0.00  0.00    +0.005 A 
ATOM     15  C   UNL     1      -0.944  -1.648  -0.949  0.00  0.00    +0.024 A 
ATOM     16  C   UNL     1      -0.780  -2.499   0.137  0.00  0.00    +0.037 A 
ATOM     17  C   UNL     1       0.221  -2.231   1.084  0.00  0.00    +0.058 A 
ATOM     18  C   UNL     1       1.044  -1.113   0.920  0.00  0.00    +0.018 A 
BRANCH  16  19
ATOM     19  N   UNL     1      -1.602  -3.608   0.286  0.00  0.00    -0.357 N 
ATOM     20  H   UNL     1      -2.228  -3.846  -0.416  0.00  0.00    +0.142 HD
ATOM     21  H   UNL     1      -1.550  -4.146   1.091  0.00  0.00    +0.142 HD
ENDBRANCH  16  19
ENDBRANCH   1  17
TORSDOF 2
