REMARK  Name = ZINC43756896
REMARK  4 active torsions:
REMARK  status: ('A' for Active; 'I' for Inactive)
REMARK    1  A    between atoms: C_1  and  C_2
REMARK    2  A    between atoms: C_16  and  O_28
REMARK    3  A    between atoms: C_19  and  C_27
REMARK    4  A    between atoms: C_24  and  O_26
REMARK                            x       y       z     vdW  Elec       q    Type
REMARK                         _______ _______ _______ _____ _____    ______ ____
ROOT
ATOM      1  C   UNL     1      -0.641   2.163   0.733  0.00  0.00    +0.012 C 
ATOM      2  C   UNL     1      -0.351   0.653   0.701  0.00  0.00    -0.023 C 
ATOM      3  C   UNL     1       0.654   0.383  -0.423  0.00  0.00    +0.015 C 
ATOM      4  C   UNL     1       1.914   1.232  -0.225  0.00  0.00    +0.075 C 
ATOM      5  C   UNL     1       2.466   0.942   1.153  0.00  0.00    +0.134 C 
ATOM      6  O   UNL     1       3.636   0.672   1.302  0.00  0.00    -0.297 OA
ATOM      7  C   UNL     1       1.531   0.998   2.337  0.00  0.00    +0.078 C 
ATOM      8  C   UNL     1       0.252   0.215   2.029  0.00  0.00    +0.002 C 
ATOM      9  C   UNL     1      -0.748   0.448   3.165  0.00  0.00    +0.005 C 
ATOM     10  C   UNL     1      -2.014  -0.350   2.882  0.00  0.00    +0.004 C 
ATOM     11  C   UNL     1      -2.661   0.110   1.563  0.00  0.00    -0.001 C 
ATOM     12  C   UNL     1      -1.677  -0.058   0.411  0.00  0.00    +0.027 C 
ATOM     13  C   UNL     1      -1.509  -1.497  -0.027  0.00  0.00    +0.119 C 
ATOM     14  C   UNL     1      -2.837  -2.218  -0.315  0.00  0.00    +0.041 C 
ATOM     15  C   UNL     1      -4.020  -1.333  -0.036  0.00  0.00    -0.001 C 
ATOM     16  C   UNL     1      -3.895  -0.737   1.377  0.00  0.00    +0.001 C 
ATOM     17  C   UNL     1      -5.255  -0.050   1.554  0.00  0.00    +0.007 C 
ATOM     18  C   UNL     1      -6.239  -1.071   0.917  0.00  0.00    +0.032 C 
ATOM     19  C   UNL     1      -5.372  -2.070   0.107  0.00  0.00    +0.121 C 
ATOM     20  C   UNL     1      -4.222  -0.283  -1.125  0.00  0.00    +0.014 C 
ENDROOT
BRANCH  19  21
ATOM     21  O   UNL     1      -5.195  -3.283   0.831  0.00  0.00    -0.391 OA
ATOM     22  H   UNL     1      -6.009  -3.790   0.953  0.00  0.00    +0.210 HD
ENDBRANCH  19  21
BRANCH  13  23
ATOM     23  O   UNL     1      -0.738  -1.566  -1.239  0.00  0.00    -0.391 OA
ATOM     24  H   UNL     1      -0.599  -2.466  -1.566  0.00  0.00    +0.210 HD
ENDBRANCH  13  23
TORSDOF 2
