REMARK  Name = ZINC40731116
REMARK  4 active torsions:
REMARK  status: ('A' for Active; 'I' for Inactive)
REMARK    1  A    between atoms: C_1  and  C_2
REMARK    2  A    between atoms: C_10  and  N_22
REMARK    3  A    between atoms: C_11  and  S_15
REMARK    4  A    between atoms: S_15  and  C_16
REMARK                            x       y       z     vdW  Elec       q    Type
REMARK                         _______ _______ _______ _____ _____    ______ ____
ROOT
ATOM      1  C   UNL     1       3.638   0.569   0.754  0.00  0.00    +0.009 C 
ATOM      2  C   UNL     1       2.212   0.047   0.943  0.00  0.00    +0.003 C 
ATOM      3  C   UNL     1       1.366   0.419  -0.278  0.00  0.00    +0.006 C 
ATOM      4  C   UNL     1      -0.068  -0.075  -0.076  0.00  0.00    +0.019 C 
ATOM      5  C   UNL     1      -0.065  -1.600   0.063  0.00  0.00    +0.106 C 
ATOM      6  N   UNL     1       0.860  -1.975   1.142  0.00  0.00    -0.313 N 
ATOM      7  C   UNL     1       2.241  -1.478   1.093  0.00  0.00    +0.109 C 
ATOM      8  C   UNL     1       0.435  -2.784   2.189  0.00  0.00    +0.146 A 
ATOM      9  C   UNL     1       0.464  -4.175   2.067  0.00  0.00    +0.098 A 
ATOM     10  C   UNL     1       0.027  -4.940   3.149  0.00  0.00    +0.127 A 
ATOM     11  N   UNL     1      -0.398  -4.320   4.248  0.00  0.00    -0.227 NA
ATOM     12  C   UNL     1      -0.410  -3.005   4.322  0.00  0.00    +0.224 A 
ATOM     13  N   UNL     1      -0.001  -2.245   3.325  0.00  0.00    -0.219 NA
ENDROOT
BRANCH   9  14
ATOM     14  N   UNL     1       0.921  -4.786   0.888  0.00  0.00    -0.353 N 
ATOM     15  H   UNL     1       1.295  -4.245   0.175  0.00  0.00    +0.142 HD
ATOM     16  H   UNL     1       0.863  -5.749   0.788  0.00  0.00    +0.142 HD
ENDBRANCH   9  14
BRANCH  10  17
ATOM     17  S   UNL     1       0.037  -6.700   3.062  0.00  0.00    -0.068 S 
BRANCH  17  18
ATOM     18  C   UNL     1      -0.732  -7.206   4.565  0.00  0.00    +0.014 A 
ATOM     19  C   UNL     1      -2.116  -7.295   4.643  0.00  0.00    +0.015 A 
ATOM     20  C   UNL     1      -2.716  -7.691   5.823  0.00  0.00    +0.001 A 
ATOM     21  C   UNL     1      -1.939  -7.999   6.925  0.00  0.00    +0.000 A 
ATOM     22  C   UNL     1      -0.561  -7.912   6.851  0.00  0.00    +0.001 A 
ATOM     23  C   UNL     1       0.045  -7.521   5.673  0.00  0.00    +0.015 A 
ENDBRANCH  17  18
ENDBRANCH  10  17
TORSDOF 3
