REMARK  Name = ZINC13101248
REMARK  7 active torsions:
REMARK  status: ('A' for Active; 'I' for Inactive)
REMARK    1  A    between atoms: C_1  and  C_2
REMARK    2  A    between atoms: C_15  and  C_17
REMARK    3  A    between atoms: C_17  and  C_19
REMARK    4  A    between atoms: C_17  and  S_20
REMARK    5  A    between atoms: S_20  and  C_21
REMARK    6  A    between atoms: C_24  and  C_27
REMARK    7  A    between atoms: N_25  and  N_26
REMARK                            x       y       z     vdW  Elec       q    Type
REMARK                         _______ _______ _______ _____ _____    ______ ____
ROOT
ATOM      1  C   UNL     1       9.894  16.409  -1.426  0.00  0.00    +0.008 C 
ATOM      2  C   UNL     1       8.660  15.612  -0.998  0.00  0.00    -0.009 C 
ATOM      3  C   UNL     1       7.585  15.707  -2.085  0.00  0.00    +0.008 C 
ATOM      4  C   UNL     1       6.268  15.128  -1.567  0.00  0.00    +0.037 C 
ATOM      5  C   UNL     1       6.528  13.728  -1.018  0.00  0.00    -0.023 A 
ATOM      6  C   UNL     1       7.779  13.335  -0.697  0.00  0.00    -0.004 A 
ATOM      7  S   UNL     1       7.601  11.670  -0.114  0.00  0.00    -0.073 S 
ATOM      8  C   UNL     1       5.844  11.508  -0.303  0.00  0.00    +0.116 A 
ATOM      9  C   UNL     1       5.455  12.756  -0.815  0.00  0.00    +0.075 A 
ATOM     10  C   UNL     1       4.053  12.912  -1.070  0.00  0.00    +0.260 A 
ATOM     11  O   UNL     1       3.616  13.959  -1.516  0.00  0.00    -0.267 OA
ATOM     12  N   UNL     1       3.227  11.880  -0.815  0.00  0.00    -0.309 N 
ATOM     13  H   UNL     1       2.277  11.977  -0.988  0.00  0.00    +0.170 HD
ATOM     14  C   UNL     1       3.694  10.708  -0.314  0.00  0.00    +0.124 A 
ATOM     15  N   UNL     1       4.966  10.536  -0.071  0.00  0.00    -0.225 NA
ATOM     16  C   UNL     1       9.040  14.136  -0.810  0.00  0.00    +0.046 C 
ENDROOT
BRANCH  14  17
ATOM     17  C   UNL     1       2.730   9.583  -0.038  0.00  0.00    +0.117 C 
ATOM     18  C   UNL     1       2.310   9.620   1.433  0.00  0.00    +0.027 C 
BRANCH  17  19
ATOM     19  S   UNL     1       3.530   8.000  -0.397  0.00  0.00    -0.074 S 
BRANCH  19  20
ATOM     20  C   UNL     1       2.172   6.906  -0.144  0.00  0.00    +0.209 A 
ATOM     21  N   UNL     1       0.953   7.247   0.208  0.00  0.00    -0.121 NA
ATOM     22  N   UNL     1       0.212   6.201   0.304  0.00  0.00    -0.126 NA
ATOM     23  C   UNL     1       0.914   5.126   0.019  0.00  0.00    +0.188 A 
ATOM     24  N   UNL     1       2.193   5.545  -0.272  0.00  0.00    -0.223 N 
BRANCH  23  25
ATOM     25  C   UNL     1       0.426   3.737   0.017  0.00  0.00    +0.058 A 
ATOM     26  C   UNL     1      -0.866   3.275   0.026  0.00  0.00    +0.019 A 
ATOM     27  C   UNL     1      -1.081   1.915   0.017  0.00  0.00    +0.008 A 
ATOM     28  C   UNL     1      -0.013   1.076   0.008  0.00  0.00    +0.046 A 
ATOM     29  S   UNL     1       1.361   2.216   0.001  0.00  0.00    -0.093 S 
ENDBRANCH  23  25
BRANCH  24  30
ATOM     30  N   UNL     1       3.259   4.764  -0.618  0.00  0.00    -0.295 N 
ATOM     31  H   UNL     1       3.308   4.641  -1.618  0.00  0.00    +0.163 HD
ATOM     32  H   UNL     1       4.120   5.149  -0.259  0.00  0.00    +0.163 HD
ENDBRANCH  24  30
ENDBRANCH  19  20
ENDBRANCH  17  19
ENDBRANCH  14  17
TORSDOF 5
