REMARK  Name = ZINC34904342
REMARK  3 active torsions:
REMARK  status: ('A' for Active; 'I' for Inactive)
REMARK    1  A    between atoms: C_1  and  C_2
REMARK    2  A    between atoms: C_2  and  N_3
REMARK    3  A    between atoms: C_8  and  C_25
REMARK                            x       y       z     vdW  Elec       q    Type
REMARK                         _______ _______ _______ _____ _____    ______ ____
ROOT
ATOM      1  N   UNL     1       0.711  -0.489   1.189  0.00  0.00    -0.242 N 
ATOM      2  C   UNL     1       2.057  -0.718   1.225  0.00  0.00    +0.227 C 
ATOM      3  O   UNL     1       2.889  -0.316   0.441  0.00  0.00    -0.275 OA
ATOM      4  C   UNL     1       2.293  -1.571   2.441  0.00  0.00    +0.107 C 
ATOM      5  C   UNL     1       3.486  -1.260   3.354  0.00  0.00    +0.064 C 
ATOM      6  N   UNL     1       2.958  -1.602   4.716  0.00  0.00    -0.296 NA
ATOM      7  C   UNL     1       1.474  -1.420   4.676  0.00  0.00    +0.136 C 
ATOM      8  C   UNL     1       1.176  -0.895   3.333  0.00  0.00    +0.122 C 
ATOM      9  C   UNL     1       0.094  -0.758   2.386  0.00  0.00    +0.228 C 
ATOM     10  O   UNL     1      -1.095  -0.859   2.600  0.00  0.00    -0.275 OA
ATOM     11  C   UNL     1       0.799  -2.736   4.965  0.00  0.00    +0.003 A 
ATOM     12  C   UNL     1       0.783  -3.950   4.315  0.00  0.00    +0.008 A 
ATOM     13  C   UNL     1       0.050  -5.003   4.834  0.00  0.00    +0.000 A 
ATOM     14  C   UNL     1      -0.664  -4.832   6.006  0.00  0.00    +0.002 A 
ATOM     15  C   UNL     1      -0.648  -3.619   6.661  0.00  0.00    +0.023 A 
ATOM     16  C   UNL     1       0.086  -2.553   6.145  0.00  0.00    +0.039 A 
ATOM     17  N   UNL     1       0.257  -1.250   6.615  0.00  0.00    -0.283 N 
ATOM     18  C   UNL     1       1.055  -0.521   5.815  0.00  0.00    +0.243 C 
ATOM     19  O   UNL     1       1.377   0.637   5.977  0.00  0.00    -0.273 OA
ATOM     20  C   UNL     1       4.686  -2.140   2.997  0.00  0.00    +0.025 C 
ATOM     21  H   UNL     1       3.199  -2.548   4.971  0.00  0.00    +0.123 HD
ATOM     22  H   UNL     1      -0.153  -0.910   7.426  0.00  0.00    +0.155 HD
ENDROOT
BRANCH   1  24
ATOM     23  C   UNL     1      -0.019   1.526   0.010  0.00  0.00    +0.025 C 
ATOM     24  C   UNL     1       0.002  -0.004   0.002  0.00  0.00    +0.113 C 
ENDBRANCH   1  24
TORSDOF 1
