REMARK  Name = ZINC37288761
REMARK  4 active torsions:
REMARK  status: ('A' for Active; 'I' for Inactive)
REMARK    1  A    between atoms: C_5  and  O_8
REMARK    2  A    between atoms: C_6  and  N_7
REMARK    3  A    between atoms: O_8  and  C_9
REMARK    4  A    between atoms: C_9  and  C_10
REMARK                            x       y       z     vdW  Elec       q    Type
REMARK                         _______ _______ _______ _____ _____    ______ ____
ROOT
ATOM      1  C   UNL     1      -0.017   1.383   0.010  0.00  0.00    +0.064 A 
ATOM      2  C   UNL     1       1.173   2.091   0.002  0.00  0.00    +0.126 A 
ATOM      3  C   UNL     1       2.382   1.417  -0.013  0.00  0.00    +0.057 A 
ATOM      4  C   UNL     1       2.406   0.033  -0.021  0.00  0.00    +0.064 A 
ATOM      5  C   UNL     1       1.220  -0.681  -0.014  0.00  0.00    +0.156 A 
ATOM      6  C   UNL     1       0.002  -0.004   0.002  0.00  0.00    +0.071 A 
ATOM      7 BR   UNL     1       4.061  -0.883  -0.043  0.00  0.00    -0.046 Br
ATOM      8  F   UNL     1       1.154   3.442   0.009  0.00  0.00    -0.205 F 
ENDROOT
BRANCH   6   9
ATOM      9  N   UNL     1      -1.199  -0.722   0.010  0.00  0.00    -0.355 N 
ATOM     10  H   UNL     1      -2.046  -0.249   0.020  0.00  0.00    +0.142 HD
ATOM     11  H   UNL     1      -1.185  -1.692   0.004  0.00  0.00    +0.142 HD
ENDBRANCH   6   9
BRANCH   5  12
ATOM     12  O   UNL     1       1.243  -2.042  -0.022  0.00  0.00    -0.480 OA
BRANCH  12  13
ATOM     13  C   UNL     1       1.266  -2.698   1.247  0.00  0.00    +0.324 C 
BRANCH  13  14
ATOM     14  C   UNL     1       1.290  -4.191   1.040  0.00  0.00    +0.253 C 
ATOM     15  O   UNL     1       1.287  -4.647  -0.083  0.00  0.00    -0.272 OA
ATOM     16  N   UNL     1       1.315  -5.018   2.104  0.00  0.00    -0.299 N 
ATOM     17  C   UNL     1       1.313  -4.480   3.471  0.00  0.00    +0.108 C 
ATOM     18  C   UNL     1       0.164  -5.124   4.253  0.00  0.00    +0.019 C 
ATOM     19  C   UNL     1       0.292  -6.647   4.177  0.00  0.00    +0.003 C 
ATOM     20  C   UNL     1       0.195  -7.097   2.718  0.00  0.00    +0.019 C 
ATOM     21  C   UNL     1       1.338  -6.475   1.919  0.00  0.00    +0.108 C 
ENDBRANCH  13  14
ENDBRANCH  12  13
ENDBRANCH   5  12
TORSDOF 4
