REMARK  Name = ZINC37673470
REMARK  4 active torsions:
REMARK  status: ('A' for Active; 'I' for Inactive)
REMARK    1  A    between atoms: C_1  and  C_2
REMARK    2  A    between atoms: C_2  and  C_4
REMARK    3  A    between atoms: C_2  and  N_11
REMARK    4  A    between atoms: C_9  and  N_10
REMARK                            x       y       z     vdW  Elec       q    Type
REMARK                         _______ _______ _______ _____ _____    ______ ____
ROOT
ATOM      1  N   UNL     1       0.625  -0.492   1.235  0.00  0.00    -0.321 N 
ATOM      2  C   UNL     1      -0.145  -0.705   2.358  0.00  0.00    +0.150 C 
ATOM      3  N   UNL     1      -1.420  -0.481   2.330  0.00  0.00    -0.113 NA
ATOM      4  S   UNL     1      -1.983  -0.854   3.861  0.00  0.00    +0.101 S 
ATOM      5  O   UNL     1      -2.806  -2.007   3.751  0.00  0.00    -0.146 OA
ATOM      6  O   UNL     1      -2.408   0.356   4.473  0.00  0.00    -0.146 OA
ATOM      7  C   UNL     1      -0.465  -1.345   4.632  0.00  0.00    +0.123 A 
ATOM      8  C   UNL     1       0.472  -1.194   3.600  0.00  0.00    +0.043 A 
ATOM      9  C   UNL     1       1.807  -1.514   3.890  0.00  0.00    +0.013 A 
ATOM     10  C   UNL     1       2.159  -1.962   5.144  0.00  0.00    +0.001 A 
ATOM     11  C   UNL     1       1.210  -2.105   6.141  0.00  0.00    +0.002 A 
ATOM     12  C   UNL     1      -0.114  -1.784   5.875  0.00  0.00    +0.030 A 
ATOM     13  H   UNL     1       1.579  -0.665   1.261  0.00  0.00    +0.148 HD
ENDROOT
BRANCH   1  15
ATOM     14  C   UNL     1      -0.042   1.525   0.024  0.00  0.00    +0.033 C 
ATOM     15  C   UNL     1       0.002  -0.004   0.002  0.00  0.00    +0.101 C 
BRANCH  15  16
ATOM     16  C   UNL     1       0.808  -0.467  -1.185  0.00  0.00    -0.007 A 
ATOM     17  C   UNL     1       2.159  -0.718  -1.048  0.00  0.00    +0.007 A 
ATOM     18  C   UNL     1       2.899  -1.142  -2.136  0.00  0.00    +0.000 A 
ATOM     19  C   UNL     1       2.289  -1.316  -3.365  0.00  0.00    +0.002 A 
ATOM     20  C   UNL     1       0.939  -1.067  -3.509  0.00  0.00    +0.023 A 
ATOM     21  C   UNL     1       0.191  -0.646  -2.416  0.00  0.00    +0.030 A 
BRANCH  21  22
ATOM     22  N   UNL     1      -1.176  -0.398  -2.557  0.00  0.00    -0.358 N 
ATOM     23  H   UNL     1      -1.696  -0.100  -1.794  0.00  0.00    +0.142 HD
ATOM     24  H   UNL     1      -1.606  -0.523  -3.418  0.00  0.00    +0.142 HD
ENDBRANCH  21  22
ENDBRANCH  15  16
ENDBRANCH   1  15
TORSDOF 3
