REMARK  Name = ZINC56052808
REMARK  4 active torsions:
REMARK  status: ('A' for Active; 'I' for Inactive)
REMARK    1  A    between atoms: C_1  and  C_2
REMARK    2  A    between atoms: C_8  and  C_10
REMARK    3  A    between atoms: C_11  and  C_26
REMARK    4  A    between atoms: C_16  and  C_18
REMARK                            x       y       z     vdW  Elec       q    Type
REMARK                         _______ _______ _______ _____ _____    ______ ____
ROOT
ATOM      1  C   UNL     1      -3.708  -4.253   0.026  0.00  0.00    +0.056 C 
ATOM      2  C   UNL     1      -5.049  -4.093   0.008  0.00  0.00    +0.017 C 
ATOM      3  N   UNL     1      -5.888  -5.169   0.048  0.00  0.00    -0.300 N 
ATOM      4  C   UNL     1      -5.466  -6.438   0.106  0.00  0.00    +0.135 C 
ATOM      5  S   UNL     1      -6.627  -7.696   0.151  0.00  0.00    -0.019 S 
ATOM      6  N   UNL     1      -4.157  -6.758   0.130  0.00  0.00    -0.315 N 
ATOM      7  C   UNL     1      -3.168  -5.668   0.085  0.00  0.00    +0.139 C 
ATOM      8  C   UNL     1      -5.628  -2.703  -0.056  0.00  0.00    +0.061 C 
ATOM      9  H   UNL     1      -6.844  -5.005   0.033  0.00  0.00    +0.154 HD
ATOM     10  H   UNL     1      -3.873  -7.685   0.172  0.00  0.00    +0.149 HD
ENDROOT
BRANCH   1  18
ATOM     11  C   UNL     1       0.208   1.322   0.385  0.00  0.00    +0.089 C 
ATOM     12  C   UNL     1      -0.635   0.412  -0.471  0.00  0.00    +0.136 A 
ATOM     13  C   UNL     1      -1.254  -0.709  -0.058  0.00  0.00    +0.091 A 
ATOM     14  C   UNL     1      -1.936  -1.265  -1.164  0.00  0.00    +0.168 A 
ATOM     15  N   UNL     1      -1.723  -0.492  -2.198  0.00  0.00    -0.063 NA
ATOM     16  O   UNL     1      -0.903   0.582  -1.775  0.00  0.00    -0.358 OA
ATOM     17  N   UNL     1      -2.699  -2.432  -1.155  0.00  0.00    -0.264 N 
ATOM     18  C   UNL     1      -2.837  -3.138  -0.015  0.00  0.00    +0.249 C 
ATOM     19  O   UNL     1      -2.212  -2.817   0.979  0.00  0.00    -0.270 OA
ATOM     20  H   UNL     1      -3.131  -2.735  -1.968  0.00  0.00    +0.157 HD
ENDBRANCH   1  18
BRANCH   7  21
ATOM     21  C   UNL     1      -2.290  -5.880  -1.122  0.00  0.00    -0.020 A 
ATOM     22  C   UNL     1      -2.854  -6.236  -2.333  0.00  0.00    +0.026 A 
ATOM     23  C   UNL     1      -2.048  -6.431  -3.440  0.00  0.00    +0.043 A 
ATOM     24  C   UNL     1      -0.678  -6.270  -3.336  0.00  0.00    +0.040 A 
ATOM     25  C   UNL     1      -0.115  -5.914  -2.124  0.00  0.00    +0.043 A 
ATOM     26  C   UNL     1      -0.922  -5.714  -1.018  0.00  0.00    +0.026 A 
ATOM     27 CL   UNL     1       1.605  -5.712  -1.991  0.00  0.00    -0.083 Cl
ATOM     28 CL   UNL     1      -2.756  -6.879  -4.961  0.00  0.00    -0.083 Cl
ENDBRANCH   7  21
TORSDOF 2
