REMARK  Name = ZINC35607984
REMARK  6 active torsions:
REMARK  status: ('A' for Active; 'I' for Inactive)
REMARK    1  A    between atoms: C_1  and  C_2
REMARK    2  A    between atoms: C_2  and  C_3
REMARK    3  A    between atoms: C_2  and  C_4
REMARK    4  A    between atoms: C_2  and  N_6
REMARK    5  A    between atoms: C_4  and  O_5
REMARK    6  A    between atoms: C_7  and  C_9
REMARK                            x       y       z     vdW  Elec       q    Type
REMARK                         _______ _______ _______ _____ _____    ______ ____
ROOT
ATOM      1  C   UNL     1       2.675  -0.617  -2.669  0.00  0.00    +0.092 C 
ATOM      2  C   UNL     1       4.111  -0.088  -2.680  0.00  0.00    +0.016 C 
ATOM      3  C   UNL     1       4.819  -0.554  -3.955  0.00  0.00    +0.020 C 
ATOM      4  C   UNL     1       4.867  -2.086  -3.976  0.00  0.00    +0.109 C 
ATOM      5  N   UNL     1       3.501  -2.604  -3.820  0.00  0.00    -0.285 N 
ATOM      6  C   UNL     1       2.699  -2.148  -2.676  0.00  0.00    +0.122 C 
ATOM      7  C   UNL     1       2.994  -3.481  -4.708  0.00  0.00    +0.300 C 
ATOM      8  O   UNL     1       1.898  -3.972  -4.520  0.00  0.00    -0.253 OA
ATOM      9  N   UNL     1       3.701  -3.812  -5.807  0.00  0.00    -0.313 N 
ATOM     10  H   UNL     1       4.604  -3.478  -5.921  0.00  0.00    +0.146 HD
ATOM     11  H   UNL     1       3.307  -4.385  -6.483  0.00  0.00    +0.146 HD
ENDROOT
BRANCH   1  13
ATOM     12  N   UNL     1       0.686  -0.475  -1.206  0.00  0.00    -0.308 N 
ATOM     13  C   UNL     1       1.969  -0.130  -1.430  0.00  0.00    +0.218 C 
ATOM     14  O   UNL     1       2.556   0.572  -0.634  0.00  0.00    -0.275 OA
ATOM     15  H   UNL     1       0.216  -1.036  -1.843  0.00  0.00    +0.149 HD
BRANCH  12  17
ATOM     16  C   UNL     1      -0.022   1.528   0.006  0.00  0.00    +0.033 C 
ATOM     17  C   UNL     1      -0.000  -0.002  -0.001  0.00  0.00    +0.052 C 
ATOM     18  C   UNL     1       0.740  -0.507   1.239  0.00  0.00    +0.033 C 
BRANCH  17  19
ATOM     19  C   UNL     1      -1.435  -0.532   0.010  0.00  0.00    +0.181 C 
BRANCH  19  20
ATOM     20  O   UNL     1      -2.105  -0.070   1.185  0.00  0.00    -0.393 OA
ATOM     21  H   UNL     1      -3.022  -0.369   1.258  0.00  0.00    +0.209 HD
ENDBRANCH  19  20
ENDBRANCH  17  19
ENDBRANCH  12  17
ENDBRANCH   1  13
TORSDOF 4
