REMARK  Name = ZINC37181267
REMARK  12 active torsions:
REMARK  status: ('A' for Active; 'I' for Inactive)
REMARK    1  A    between atoms: C_1  and  C_2
REMARK    2  A    between atoms: C_2  and  C_4
REMARK    3  A    between atoms: C_2  and  N_10
REMARK    4  A    between atoms: C_11  and  C_13
REMARK    5  A    between atoms: C_13  and  C_15
REMARK    6  A    between atoms: C_13  and  N_16
REMARK    7  A    between atoms: N_16  and  C_17
REMARK    8  A    between atoms: N_16  and  C_18
REMARK    9  A    between atoms: C_18  and  C_19
REMARK   10  A    between atoms: N_21  and  C_22
REMARK   11  A    between atoms: C_27  and  O_28
REMARK   12  A    between atoms: O_28  and  C_29
REMARK                            x       y       z     vdW  Elec       q    Type
REMARK                         _______ _______ _______ _____ _____    ______ ____
ROOT
ATOM      1  N   UNL     1      -0.253  -1.210  -4.694  0.00  0.00    +0.391 N 
ATOM      2  C   UNL     1      -1.350  -2.098  -4.288  0.00  0.00    -0.094 C 
ATOM      3  H   UNL     1      -0.622  -0.296  -4.911  0.00  0.00    -0.080 HD
ENDROOT
BRANCH   1   4
ATOM      4  C   UNL     1       0.718  -1.098  -3.598  0.00  0.00    +0.016 C 
ATOM      5  C   UNL     1       1.928  -0.288  -4.069  0.00  0.00    -0.004 C 
BRANCH   4   7
ATOM      6  N   UNL     1       0.671  -0.427  -1.217  0.00  0.00    -0.310 N 
ATOM      7  C   UNL     1       0.074  -0.403  -2.426  0.00  0.00    +0.200 C 
ATOM      8  O   UNL     1      -0.981   0.178  -2.570  0.00  0.00    -0.278 OA
ATOM      9  H   UNL     1       1.514  -0.892  -1.102  0.00  0.00    +0.149 HD
BRANCH   6  11
ATOM     10  C   UNL     1       0.441   1.726  -0.081  0.00  0.00    +0.033 C 
ATOM     11  C   UNL     1       0.045   0.248  -0.078  0.00  0.00    +0.100 C 
BRANCH  11  12
ATOM     12  C   UNL     1       0.510  -0.394   1.204  0.00  0.00    -0.027 A 
ATOM     13  C   UNL     1       1.830  -0.777   1.345  0.00  0.00    +0.005 A 
ATOM     14  C   UNL     1       2.257  -1.366   2.521  0.00  0.00    +0.000 A 
ATOM     15  C   UNL     1       1.363  -1.571   3.555  0.00  0.00    +0.000 A 
ATOM     16  C   UNL     1       0.042  -1.187   3.414  0.00  0.00    +0.000 A 
ATOM     17  C   UNL     1      -0.383  -0.594   2.240  0.00  0.00    +0.005 A 
ENDBRANCH  11  12
ENDBRANCH   6  11
ENDBRANCH   4   7
ENDBRANCH   1   4
BRANCH   1  18
ATOM     18  C   UNL     1       0.411  -1.764  -5.882  0.00  0.00    +0.020 C 
BRANCH  18  19
ATOM     19  C   UNL     1      -0.551  -1.765  -7.041  0.00  0.00    +0.201 C 
ATOM     20  O   UNL     1      -1.680  -1.345  -6.893  0.00  0.00    -0.278 OA
ATOM     21  N   UNL     1      -0.159  -2.232  -8.243  0.00  0.00    -0.284 N 
ATOM     22  H   UNL     1       0.764  -2.498  -8.382  0.00  0.00    +0.155 HD
BRANCH  21  23
ATOM     23  C   UNL     1      -1.082  -2.332  -9.292  0.00  0.00    +0.077 A 
ATOM     24  C   UNL     1      -2.107  -1.404  -9.407  0.00  0.00    +0.047 A 
ATOM     25  C   UNL     1      -3.017  -1.505 -10.443  0.00  0.00    +0.043 A 
ATOM     26  C   UNL     1      -2.909  -2.530 -11.366  0.00  0.00    +0.024 A 
ATOM     27  C   UNL     1      -1.890  -3.459 -11.256  0.00  0.00    +0.049 A 
ATOM     28  C   UNL     1      -0.971  -3.361 -10.225  0.00  0.00    +0.141 A 
ATOM     29 CL   UNL     1      -4.299  -0.343 -10.587  0.00  0.00    -0.083 Cl
BRANCH  28  30
ATOM     30  O   UNL     1       0.035  -4.270 -10.119  0.00  0.00    -0.493 OA
ATOM     31  C   UNL     1       0.088  -5.297 -11.111  0.00  0.00    +0.277 C 
ENDBRANCH  28  30
ENDBRANCH  21  23
ENDBRANCH  18  19
ENDBRANCH   1  18
TORSDOF 8
