REMARK  Name = ZINC13407153
REMARK  12 active torsions:
REMARK  status: ('A' for Active; 'I' for Inactive)
REMARK    1  A    between atoms: C_1  and  C_2
REMARK    2  A    between atoms: C_2  and  O_4
REMARK    3  A    between atoms: O_4  and  C_5
REMARK    4  A    between atoms: C_9  and  C_37
REMARK    5  A    between atoms: C_9  and  C_38
REMARK    6  A    between atoms: C_12  and  C_36
REMARK    7  A    between atoms: C_15  and  O_32
REMARK    8  A    between atoms: C_18  and  O_31
REMARK    9  A    between atoms: C_19  and  O_30
REMARK   10  A    between atoms: C_22  and  O_25
REMARK   11  A    between atoms: O_32  and  C_33
REMARK   12  A    between atoms: C_33  and  C_35
REMARK                            x       y       z     vdW  Elec       q    Type
REMARK                         _______ _______ _______ _____ _____    ______ ____
ROOT
ATOM      1  C   UNL     1      -3.212   0.245   3.651  0.00  0.00    +0.183 C 
ATOM      2  C   UNL     1      -2.989  -0.592   4.910  0.00  0.00    +0.046 C 
ATOM      3  C   UNL     1      -4.150  -1.556   5.112  0.00  0.00    +0.010 C 
ATOM      4  C   UNL     1      -5.491  -0.827   5.196  0.00  0.00    -0.031 C 
ATOM      5  C   UNL     1      -5.659   0.171   4.074  0.00  0.00    +0.007 C 
ATOM      6  C   UNL     1      -4.479   1.101   3.822  0.00  0.00    +0.016 C 
ATOM      7  C   UNL     1      -4.725   1.868   2.528  0.00  0.00    +0.058 C 
ATOM      8  C   UNL     1      -3.597   2.813   2.167  0.00  0.00    +0.184 C 
ATOM      9  C   UNL     1      -3.895   4.288   2.366  0.00  0.00    +0.087 C 
ATOM     10  C   UNL     1      -5.321   4.655   1.960  0.00  0.00    +0.124 C 
ATOM     11  C   UNL     1      -6.278   3.869   2.903  0.00  0.00    +0.167 C 
ATOM     12  C   UNL     1      -6.105   2.453   2.331  0.00  0.00    +0.095 C 
ATOM     13  C   UNL     1      -7.238   1.552   2.781  0.00  0.00    +0.131 C 
ATOM     14  C   UNL     1      -6.947   0.987   4.180  0.00  0.00    +0.037 C 
ATOM     15  C   UNL     1      -6.222   2.723   0.824  0.00  0.00    +0.173 C 
ATOM     16  O   UNL     1      -6.700   1.971   0.009  0.00  0.00    -0.292 OA
ATOM     17  C   UNL     1      -5.646   4.058   0.600  0.00  0.00    +0.023 C 
ATOM     18  C   UNL     1      -5.447   4.646  -0.582  0.00  0.00    +0.019 C 
ATOM     19  C   UNL     1      -4.230   2.071   4.974  0.00  0.00    +0.015 C 
ATOM     20  C   UNL     1      -5.660  -0.202   6.580  0.00  0.00    +0.011 C 
ATOM     21  C   UNL     1      -6.587  -1.911   5.051  0.00  0.00    +0.011 C 
ENDROOT
BRANCH  13  22
ATOM     22  O   UNL     1      -8.465   2.280   2.807  0.00  0.00    -0.391 OA
ATOM     23  H   UNL     1      -9.227   1.757   3.088  0.00  0.00    +0.210 HD
ENDBRANCH  13  22
BRANCH  11  24
ATOM     24  O   UNL     1      -5.971   4.036   4.273  0.00  0.00    -0.388 OA
ATOM     25  H   UNL     1      -6.092   4.939   4.597  0.00  0.00    +0.210 HD
ENDBRANCH  11  24
BRANCH  10  26
ATOM     26  O   UNL     1      -5.558   6.066   2.005  0.00  0.00    -0.381 OA
ATOM     27  H   UNL     1      -4.977   6.581   1.427  0.00  0.00    +0.211 HD
ENDBRANCH  10  26
BRANCH   1  28
ATOM     28  O   UNL     1      -3.362  -0.631   2.506  0.00  0.00    -0.461 OA
BRANCH  28  30
ATOM     29  C   UNL     1      -2.321  -1.867   0.639  0.00  0.00    +0.136 C 
ATOM     30  C   UNL     1      -2.243  -0.961   1.840  0.00  0.00    +0.304 C 
ATOM     31  O   UNL     1      -1.175  -0.530   2.204  0.00  0.00    -0.251 OA
ENDBRANCH  28  30
ENDBRANCH   1  28
BRANCH   8  32
ATOM     32  O   UNL     1      -3.220   2.588   0.778  0.00  0.00    -0.461 OA
BRANCH  32  33
ATOM     33  C   UNL     1      -1.940   2.822   0.448  0.00  0.00    +0.304 C 
ATOM     34  O   UNL     1      -1.159   3.201   1.288  0.00  0.00    -0.251 OA
ATOM     35  C   UNL     1      -1.476   2.611  -0.970  0.00  0.00    +0.136 C 
ENDBRANCH  32  33
ENDBRANCH   8  32
TORSDOF 7
