REMARK  Name = ZINC16916109
REMARK  3 active torsions:
REMARK  status: ('A' for Active; 'I' for Inactive)
REMARK    1  A    between atoms: C_1  and  C_2
REMARK    2  A    between atoms: N_13  and  C_14
REMARK    3  A    between atoms: C_18  and  C_20
REMARK                            x       y       z     vdW  Elec       q    Type
REMARK                         _______ _______ _______ _____ _____    ______ ____
ROOT
ATOM      1  C   UNL     1      -4.320   8.190  -1.204  0.00  0.00    +0.063 C 
ATOM      2  C   UNL     1      -3.090   7.363  -0.930  0.00  0.00    +0.021 A 
ATOM      3  C   UNL     1      -1.869   7.937  -0.928  0.00  0.00    +0.093 A 
ATOM      4  C   UNL     1      -0.729   7.134  -0.665  0.00  0.00    +0.275 A 
ATOM      5  O   UNL     1       0.386   7.633  -0.659  0.00  0.00    -0.266 OA
ATOM      6  N   UNL     1      -0.882   5.827  -0.421  0.00  0.00    -0.175 NA
ATOM      7  C   UNL     1      -2.086   5.275  -0.431  0.00  0.00    +0.212 A 
ATOM      8  N   UNL     1      -3.201   6.024  -0.680  0.00  0.00    -0.329 N 
ATOM      9  H   UNL     1      -4.191   5.545  -0.679  0.00  0.00    +0.168 HD
ATOM     10  N   UNL     1      -2.213   3.960  -0.188  0.00  0.00    -0.297 N 
ATOM     11  C   UNL     1      -1.136   3.203  -0.071  0.00  0.00    +0.201 C 
ATOM     12  N   UNL     1       0.097   3.722  -0.344  0.00  0.00    -0.268 NA
ATOM     13  N   UNL     1      -1.257   1.899   0.324  0.00  0.00    -0.326 N 
ATOM     14  H   UNL     1       0.994   3.092  -0.246  0.00  0.00    +0.190 HD
ATOM     15  H   UNL     1      -2.234   1.511   0.646  0.00  0.00    +0.169 HD
ATOM     16  H   UNL     1      -3.213   3.514  -0.086  0.00  0.00    +0.172 HD
ENDROOT
BRANCH  13  17
ATOM     17  C   UNL     1      -0.137   1.060   0.318  0.00  0.00    +0.042 A 
ATOM     18  C   UNL     1       0.853   1.228  -0.641  0.00  0.00    +0.027 A 
ATOM     19  C   UNL     1       1.954   0.395  -0.648  0.00  0.00    +0.018 A 
ATOM     20  C   UNL     1       2.071  -0.607   0.300  0.00  0.00    +0.030 A 
ATOM     21  C   UNL     1       1.087  -0.776   1.257  0.00  0.00    +0.071 A 
ATOM     22  C   UNL     1      -0.017   0.055   1.268  0.00  0.00    +0.039 A 
ATOM     23 BR   UNL     1       3.581  -1.746   0.288  0.00  0.00    -0.050 Br
BRANCH  21  24
ATOM     24  C   UNL     1       1.218  -1.867   2.288  0.00  0.00    +0.419 C 
ATOM     25  F   UNL     1       0.108  -1.840   3.140  0.00  0.00    -0.166 F 
ATOM     26  F   UNL     1       1.283  -3.109   1.647  0.00  0.00    -0.166 F 
ATOM     27  F   UNL     1       2.384  -1.666   3.034  0.00  0.00    -0.166 F 
ENDBRANCH  21  24
ENDBRANCH  13  17
TORSDOF 2
