REMARK  Name = ZINC17429977
REMARK  1 active torsions:
REMARK  status: ('A' for Active; 'I' for Inactive)
REMARK    1  A    between atoms: C_1  and  C_2
REMARK                            x       y       z     vdW  Elec       q    Type
REMARK                         _______ _______ _______ _____ _____    ______ ____
ROOT
ATOM      1  C   UNL     1      -0.248   4.492   2.519  0.00  0.00    +0.009 C 
ATOM      2  C   UNL     1      -0.059   5.353   1.269  0.00  0.00    +0.014 C 
ATOM      3  C   UNL     1       1.282   6.088   1.346  0.00  0.00    +0.031 C 
ATOM      4  C   UNL     1       1.590   6.732   0.025  0.00  0.00    -0.031 C 
ATOM      5  C   UNL     1       0.996   6.418  -1.083  0.00  0.00    -0.030 C 
ATOM      6  C   UNL     1      -0.082   5.379  -1.187  0.00  0.00    +0.052 C 
ATOM      7  C   UNL     1      -0.059   4.462   0.029  0.00  0.00    +0.129 C 
ATOM      8  C   UNL     1       1.241   3.690   0.011  0.00  0.00    +0.234 C 
ATOM      9  O   UNL     1       2.313   4.257   0.005  0.00  0.00    -0.274 OA
ATOM     10  N   UNL     1       1.158   2.340   0.004  0.00  0.00    -0.267 N 
ATOM     11  C   UNL     1      -0.021   1.708   0.011  0.00  0.00    +0.143 C 
ATOM     12  S   UNL     1       0.002  -0.004   0.002  0.00  0.00    -0.018 S 
ATOM     13  N   UNL     1      -1.217   2.308   0.021  0.00  0.00    -0.267 N 
ATOM     14  C   UNL     1      -1.337   3.655   0.035  0.00  0.00    +0.234 C 
ATOM     15  O   UNL     1      -2.424   4.192   0.048  0.00  0.00    -0.274 OA
ATOM     16  H   UNL     1       1.974   1.817  -0.008  0.00  0.00    +0.157 HD
ATOM     17  H   UNL     1      -2.019   1.763   0.021  0.00  0.00    +0.157 HD
ENDROOT
TORSDOF 0
