REMARK  Name = ZINC08295940
REMARK  6 active torsions:
REMARK  status: ('A' for Active; 'I' for Inactive)
REMARK    1  A    between atoms: C_6  and  N_7
REMARK    2  A    between atoms: N_9  and  C_27
REMARK    3  A    between atoms: C_12  and  O_26
REMARK    4  A    between atoms: C_14  and  O_25
REMARK    5  A    between atoms: C_17  and  C_22
REMARK    6  A    between atoms: C_27  and  C_28
REMARK                            x       y       z     vdW  Elec       q    Type
REMARK                         _______ _______ _______ _____ _____    ______ ____
ROOT
ATOM      1  N   UNL     1      -1.368   3.975  -1.992  0.00  0.00    -0.226 NA
ATOM      2  C   UNL     1      -0.634   3.175  -1.253  0.00  0.00    +0.158 C 
ATOM      3  N   UNL     1      -1.013   1.977  -0.699  0.00  0.00    -0.303 N 
ATOM      4  C   UNL     1      -0.084   1.277   0.147  0.00  0.00    +0.120 C 
ATOM      5  C   UNL     1      -0.207  -0.216   0.141  0.00  0.00    +0.164 C 
ATOM      6  C   UNL     1       0.870  -0.892  -0.701  0.00  0.00    +0.146 C 
ATOM      7  C   UNL     1       2.239  -0.434  -0.188  0.00  0.00    +0.048 C 
ATOM      8  C   UNL     1       2.388   1.056  -0.462  0.00  0.00    +0.092 C 
ATOM      9  C   UNL     1       1.306   1.876   0.216  0.00  0.00    +0.089 C 
ATOM     10  S   UNL     1       1.061   3.416  -0.760  0.00  0.00    -0.084 S 
ENDROOT
BRANCH   1  16
ATOM     11  C   UNL     1      -0.090   5.971  -1.632  0.00  0.00    +0.029 A 
ATOM     12  C   UNL     1       0.446   7.144  -2.122  0.00  0.00    +0.022 A 
ATOM     13  C   UNL     1       0.236   7.505  -3.442  0.00  0.00    +0.041 A 
ATOM     14  C   UNL     1      -0.507   6.691  -4.280  0.00  0.00    +0.022 A 
ATOM     15  C   UNL     1      -1.045   5.513  -3.802  0.00  0.00    +0.029 A 
ATOM     16  C   UNL     1      -0.837   5.143  -2.472  0.00  0.00    +0.067 A 
ATOM     17 CL   UNL     1       0.909   8.986  -4.051  0.00  0.00    -0.084 Cl
ENDBRANCH   1  16
BRANCH   8  18
ATOM     18  C   UNL     1       3.733   1.514   0.040  0.00  0.00    +0.215 C 
ATOM     19  O   UNL     1       3.803   2.372   0.894  0.00  0.00    -0.276 OA
ATOM     20  N   UNL     1       4.860   0.969  -0.461  0.00  0.00    -0.329 N 
ATOM     21  H   UNL     1       4.804   0.282  -1.144  0.00  0.00    +0.145 HD
ATOM     22  H   UNL     1       5.726   1.263  -0.138  0.00  0.00    +0.145 HD
ENDBRANCH   8  18
BRANCH   6  23
ATOM     23  O   UNL     1       0.758  -2.312  -0.576  0.00  0.00    -0.389 OA
ATOM     24  H   UNL     1       1.415  -2.804  -1.088  0.00  0.00    +0.210 HD
ENDBRANCH   6  23
BRANCH   5  25
ATOM     25  O   UNL     1      -1.490  -0.571  -0.378  0.00  0.00    -0.387 OA
ATOM     26  H   UNL     1      -1.650  -1.524  -0.414  0.00  0.00    +0.210 HD
ENDBRANCH   5  25
BRANCH   3  27
ATOM     27  C   UNL     1      -2.342   1.421  -0.965  0.00  0.00    +0.111 C 
BRANCH  27  28
ATOM     28  C   UNL     1      -2.314   0.641  -2.281  0.00  0.00    +0.006 C 
ATOM     29  C   UNL     1      -2.072   1.607  -3.442  0.00  0.00    +0.005 C 
ATOM     30  C   UNL     1      -2.044   0.827  -4.758  0.00  0.00    +0.000 C 
ATOM     31  C   UNL     1      -3.384   0.116  -4.957  0.00  0.00    +0.000 C 
ATOM     32  C   UNL     1      -3.626  -0.851  -3.796  0.00  0.00    +0.000 C 
ATOM     33  C   UNL     1      -3.653  -0.071  -2.480  0.00  0.00    +0.005 C 
ENDBRANCH  27  28
ENDBRANCH   3  27
TORSDOF 6
