REMARK  Name = ZINC41600471
REMARK  6 active torsions:
REMARK  status: ('A' for Active; 'I' for Inactive)
REMARK    1  A    between atoms: C_1  and  C_2
REMARK    2  A    between atoms: C_2  and  C_4
REMARK    3  A    between atoms: C_2  and  N_17
REMARK    4  A    between atoms: C_4  and  N_5
REMARK    5  A    between atoms: C_6  and  C_8
REMARK    6  A    between atoms: N_10  and  C_11
REMARK                            x       y       z     vdW  Elec       q    Type
REMARK                         _______ _______ _______ _____ _____    ______ ____
ROOT
ATOM      1  N   UNL     1       0.840  -1.956  -1.210  0.00  0.00    -0.306 N 
ATOM      2  C   UNL     1       1.440  -2.616  -2.220  0.00  0.00    +0.299 C 
ATOM      3  O   UNL     1       1.870  -2.002  -3.175  0.00  0.00    -0.265 OA
ATOM      4  H   UNL     1       0.496  -2.447  -0.447  0.00  0.00    +0.149 HD
ENDROOT
BRANCH   2   5
ATOM      5  C   UNL     1       1.575  -4.103  -2.165  0.00  0.00    +0.303 C 
ATOM      6  O   UNL     1       1.145  -4.716  -1.211  0.00  0.00    -0.265 OA
ATOM      7  N   UNL     1       2.175  -4.762  -3.176  0.00  0.00    -0.278 N 
ATOM      8  H   UNL     1       2.459  -4.280  -3.969  0.00  0.00    +0.155 HD
BRANCH   7   9
ATOM      9  C   UNL     1       2.389  -6.140  -3.082  0.00  0.00    +0.034 A 
ATOM     10  C   UNL     1       3.533  -6.706  -3.629  0.00  0.00    +0.023 A 
ATOM     11  C   UNL     1       3.741  -8.068  -3.534  0.00  0.00    +0.002 A 
ATOM     12  C   UNL     1       2.811  -8.868  -2.895  0.00  0.00    +0.000 A 
ATOM     13  C   UNL     1       1.670  -8.308  -2.350  0.00  0.00    +0.002 A 
ATOM     14  C   UNL     1       1.459  -6.946  -2.436  0.00  0.00    +0.023 A 
ENDBRANCH   7   9
ENDBRANCH   2   5
BRANCH   1  15
ATOM     15  C   UNL     1       0.707  -0.498  -1.263  0.00  0.00    +0.123 C 
BRANCH  15  17
ATOM     16  C   UNL     1      -0.034   1.525   0.001  0.00  0.00    +0.026 C 
ATOM     17  C   UNL     1      -0.005  -0.004  -0.003  0.00  0.00    +0.071 C 
BRANCH  17  18
ATOM     18  N   UNL     1       0.713  -0.484   1.186  0.00  0.00    -0.294 NA
ATOM     19  C   UNL     1       2.045   0.132   1.280  0.00  0.00    +0.113 C 
ATOM     20  C   UNL     1       2.780  -0.439   2.496  0.00  0.00    +0.175 C 
ATOM     21  O   UNL     1       1.995  -0.214   3.670  0.00  0.00    -0.377 OA
ATOM     22  C   UNL     1       0.692  -0.801   3.612  0.00  0.00    +0.175 C 
ATOM     23  C   UNL     1      -0.064  -0.234   2.408  0.00  0.00    +0.113 C 
ENDBRANCH  17  18
ENDBRANCH  15  17
ENDBRANCH   1  15
TORSDOF 5
