REMARK  Name = ZINC39676881
REMARK  11 active torsions:
REMARK  status: ('A' for Active; 'I' for Inactive)
REMARK    1  A    between atoms: C_1  and  C_2
REMARK    2  A    between atoms: C_5  and  C_36
REMARK    3  A    between atoms: C_6  and  C_8
REMARK    4  A    between atoms: C_8  and  C_9
REMARK    5  A    between atoms: C_9  and  N_10
REMARK    6  A    between atoms: C_11  and  C_13
REMARK    7  A    between atoms: C_24  and  C_26
REMARK    8  A    between atoms: C_28  and  O_34
REMARK    9  A    between atoms: C_30  and  O_32
REMARK   10  A    between atoms: O_32  and  C_33
REMARK   11  A    between atoms: O_34  and  C_35
REMARK                            x       y       z     vdW  Elec       q    Type
REMARK                         _______ _______ _______ _____ _____    ______ ____
ROOT
ATOM      1  C   UNL     1       2.451  -5.396   6.521  0.00  0.00    +0.100 C 
ATOM      2  C   UNL     1       1.640  -6.625   6.053  0.00  0.00    +0.121 C 
ATOM      3  N   UNL     1       2.665  -7.625   5.669  0.00  0.00    -0.296 N 
ATOM      4  C   UNL     1       3.724  -7.479   6.696  0.00  0.00    +0.115 C 
ATOM      5  C   UNL     1       3.816  -5.961   6.945  0.00  0.00    -0.004 C 
ATOM      6  C   UNL     1       4.067  -5.683   8.424  0.00  0.00    -0.010 C 
ATOM      7  C   UNL     1       5.455  -6.203   8.809  0.00  0.00    -0.082 C 
ATOM      8  N   UNL     1       6.473  -5.538   7.987  0.00  0.00    +0.379 N 
ATOM      9  C   UNL     1       6.281  -5.886   6.574  0.00  0.00    -0.082 C 
ATOM     10  C   UNL     1       4.928  -5.353   6.095  0.00  0.00    -0.010 C 
ATOM     11  C   UNL     1       2.639  -8.474   4.623  0.00  0.00    +0.247 C 
ATOM     12  O   UNL     1       1.756  -8.389   3.792  0.00  0.00    -0.270 OA
ATOM     13  H   UNL     1       6.395  -4.539   8.099  0.00  0.00    -0.086 HD
ATOM     14  H   UNL     1       7.390  -5.837   8.283  0.00  0.00    -0.086 HD
ENDROOT
BRANCH  11  15
ATOM     15  C   UNL     1       3.685  -9.511   4.486  0.00  0.00    +0.044 A 
ATOM     16  C   UNL     1       4.423  -9.911   5.600  0.00  0.00    +0.059 A 
ATOM     17  C   UNL     1       5.402 -10.882   5.468  0.00  0.00    +0.124 A 
ATOM     18  C   UNL     1       5.648 -11.457   4.229  0.00  0.00    +0.091 A 
ATOM     19  C   UNL     1       4.916 -11.062   3.119  0.00  0.00    +0.124 A 
ATOM     20  C   UNL     1       3.932 -10.095   3.244  0.00  0.00    +0.059 A 
BRANCH  19  21
ATOM     21  O   UNL     1       5.162 -11.628   1.908  0.00  0.00    -0.495 OA
ATOM     22  C   UNL     1       6.187 -12.622   1.852  0.00  0.00    +0.277 C 
ENDBRANCH  19  21
BRANCH  17  23
ATOM     23  O   UNL     1       6.122 -11.272   6.552  0.00  0.00    -0.495 OA
ATOM     24  C   UNL     1       7.115 -12.279   6.344  0.00  0.00    +0.277 C 
ENDBRANCH  17  23
ENDBRANCH  11  15
BRANCH   1  26
ATOM     25  N   UNL     1       2.849  -3.114   5.652  0.00  0.00    -0.315 N 
ATOM     26  C   UNL     1       2.618  -4.415   5.388  0.00  0.00    +0.218 C 
ATOM     27  O   UNL     1       2.544  -4.797   4.240  0.00  0.00    -0.275 OA
ATOM     28  H   UNL     1       2.908  -2.808   6.571  0.00  0.00    +0.149 HD
BRANCH  25  29
ATOM     29  C   UNL     1       3.011  -2.161   4.552  0.00  0.00    +0.109 C 
BRANCH  29  30
ATOM     30  C   UNL     1       3.261  -0.763   5.120  0.00  0.00    +0.054 C 
BRANCH  30  36
ATOM     31  C   UNL     1       6.226   1.787   1.997  0.00  0.00    +0.044 C 
ATOM     32  C   UNL     1       4.847   1.438   2.494  0.00  0.00    -0.050 A 
ATOM     33  C   UNL     1       3.735   2.017   1.912  0.00  0.00    +0.003 A 
ATOM     34  C   UNL     1       2.470   1.697   2.368  0.00  0.00    +0.004 A 
ATOM     35  C   UNL     1       2.317   0.797   3.406  0.00  0.00    -0.047 A 
ATOM     36  C   UNL     1       3.429   0.218   3.988  0.00  0.00    -0.043 A 
ATOM     37  C   UNL     1       4.694   0.534   3.529  0.00  0.00    +0.007 A 
ATOM     38  C   UNL     1       0.938   0.449   3.904  0.00  0.00    +0.044 C 
ENDBRANCH  30  36
ENDBRANCH  29  30
ENDBRANCH  25  29
ENDBRANCH   1  26
TORSDOF 7
