REMARK  Name = ZINC37008574
REMARK  3 active torsions:
REMARK  status: ('A' for Active; 'I' for Inactive)
REMARK    1  A    between atoms: C_1  and  C_2
REMARK    2  A    between atoms: C_2  and  C_4
REMARK    3  A    between atoms: N_6  and  C_7
REMARK                            x       y       z     vdW  Elec       q    Type
REMARK                         _______ _______ _______ _____ _____    ______ ____
ROOT
ATOM      1  C   UNL     1       2.355  -1.860   2.255  0.00  0.00    +0.050 A 
ATOM      2  C   UNL     1       2.049  -1.280   3.477  0.00  0.00    +0.052 A 
ATOM      3  C   UNL     1       2.760  -1.644   4.610  0.00  0.00    +0.069 A 
ATOM      4  C   UNL     1       3.780  -2.593   4.517  0.00  0.00    +0.068 A 
ATOM      5  C   UNL     1       4.082  -3.170   3.293  0.00  0.00    +0.045 A 
ATOM      6  C   UNL     1       3.368  -2.808   2.167  0.00  0.00    +0.041 A 
ATOM      7 BR   UNL     1       3.774  -3.602   0.499  0.00  0.00    -0.048 Br
ATOM      8  N   UNL     1       4.302  -2.749   5.801  0.00  0.00    -0.306 N 
ATOM      9  H   UNL     1       5.027  -3.344   6.051  0.00  0.00    +0.170 HD
ATOM     10  C   UNL     1       3.630  -1.932   6.634  0.00  0.00    +0.325 A 
ATOM     11  O   UNL     1       3.837  -1.825   7.828  0.00  0.00    -0.247 OA
ATOM     12  N   UNL     1       2.693  -1.253   5.946  0.00  0.00    -0.306 N 
ATOM     13  H   UNL     1       2.077  -0.602   6.316  0.00  0.00    +0.170 HD
ENDROOT
BRANCH   1  16
ATOM     14  C   UNL     1       0.388  -1.004   1.223  0.00  0.00    +0.235 C 
ATOM     15  O   UNL     1      -0.155  -0.974   2.307  0.00  0.00    -0.274 OA
ATOM     16  N   UNL     1       1.638  -1.493   1.108  0.00  0.00    -0.283 N 
ATOM     17  H   UNL     1       2.042  -1.592   0.232  0.00  0.00    +0.155 HD
BRANCH  14  19
ATOM     18  C   UNL     1      -1.011   0.840   0.332  0.00  0.00    +0.034 C 
ATOM     19  C   UNL     1      -0.336  -0.494   0.004  0.00  0.00    +0.163 C 
ATOM     20 CL   UNL     1      -1.586  -1.692  -0.498  0.00  0.00    -0.112 Cl
ENDBRANCH  14  19
ENDBRANCH   1  16
TORSDOF 2
