REMARK  Name = ZINC67409077
REMARK  6 active torsions:
REMARK  status: ('A' for Active; 'I' for Inactive)
REMARK    1  A    between atoms: C_1  and  C_2
REMARK    2  A    between atoms: C_2  and  C_4
REMARK    3  A    between atoms: C_2  and  N_12
REMARK    4  A    between atoms: C_4  and  C_5
REMARK    5  A    between atoms: C_8  and  O_11
REMARK    6  A    between atoms: C_19  and  C_22
REMARK                            x       y       z     vdW  Elec       q    Type
REMARK                         _______ _______ _______ _____ _____    ______ ____
ROOT
ATOM      1  N   UNL     1       0.688  -0.477  -1.203  0.00  0.00    -0.296 N 
ATOM      2  C   UNL     1       0.006  -0.608  -2.358  0.00  0.00    +0.303 C 
ATOM      3  O   UNL     1      -1.195  -0.422  -2.380  0.00  0.00    -0.253 OA
ATOM      4  N   UNL     1       0.656  -0.945  -3.490  0.00  0.00    -0.281 N 
ATOM      5  C   UNL     1      -0.044  -0.983  -4.784  0.00  0.00    +0.137 C 
ATOM      6  C   UNL     1       0.770  -0.171  -5.798  0.00  0.00    +0.179 C 
ATOM      7  O   UNL     1       2.123  -0.635  -5.794  0.00  0.00    -0.369 OA
ATOM      8  C   UNL     1       2.798  -0.461  -4.546  0.00  0.00    +0.168 C 
ATOM      9  C   UNL     1       2.089  -1.281  -3.469  0.00  0.00    +0.145 C 
ATOM     10  H   UNL     1       1.632  -0.696  -1.170  0.00  0.00    +0.151 HD
ENDROOT
BRANCH   8  11
ATOM     11  C   UNL     1       4.226  -0.924  -4.678  0.00  0.00    +0.018 A 
ATOM     12  C   UNL     1       4.564  -1.857  -5.640  0.00  0.00    +0.009 A 
ATOM     13  C   UNL     1       5.874  -2.282  -5.760  0.00  0.00    +0.001 A 
ATOM     14  C   UNL     1       6.847  -1.775  -4.919  0.00  0.00    +0.003 A 
ATOM     15  C   UNL     1       6.511  -0.842  -3.957  0.00  0.00    +0.039 A 
ATOM     16  C   UNL     1       5.200  -0.411  -3.839  0.00  0.00    +0.129 A 
ATOM     17  F   UNL     1       4.872   0.505  -2.901  0.00  0.00    -0.205 F 
ENDBRANCH   8  11
BRANCH   1  19
ATOM     18  C   UNL     1      -0.016   1.527   0.009  0.00  0.00    +0.028 C 
ATOM     19  C   UNL     1       0.003  -0.002   0.002  0.00  0.00    +0.076 C 
BRANCH  19  20
ATOM     20  C   UNL     1       0.742  -0.509   1.242  0.00  0.00    +0.057 C 
BRANCH  20  21
ATOM     21  C   UNL     1       0.654  -2.013   1.299  0.00  0.00    -0.045 A 
ATOM     22  C   UNL     1      -0.401  -2.618   1.957  0.00  0.00    +0.007 A 
ATOM     23  C   UNL     1      -0.483  -3.996   2.011  0.00  0.00    +0.045 A 
ATOM     24  C   UNL     1       0.493  -4.773   1.404  0.00  0.00    +0.117 A 
ATOM     25  C   UNL     1       1.550  -4.163   0.744  0.00  0.00    +0.045 A 
ATOM     26  C   UNL     1       1.625  -2.785   0.688  0.00  0.00    +0.007 A 
BRANCH  24  27
ATOM     27  O   UNL     1       0.415  -6.128   1.457  0.00  0.00    -0.507 OA
ATOM     28  H   UNL     1      -0.075  -6.523   0.722  0.00  0.00    +0.292 HD
ENDBRANCH  24  27
ENDBRANCH  20  21
ENDBRANCH  19  20
ENDBRANCH   1  19
TORSDOF 5
