REMARK  Name = ZINC44490284
REMARK  6 active torsions:
REMARK  status: ('A' for Active; 'I' for Inactive)
REMARK    1  A    between atoms: C_1  and  C_2
REMARK    2  A    between atoms: C_4  and  C_20
REMARK    3  A    between atoms: C_5  and  N_9
REMARK    4  A    between atoms: C_6  and  C_8
REMARK    5  A    between atoms: C_10  and  C_12
REMARK    6  A    between atoms: C_17  and  O_18
REMARK                            x       y       z     vdW  Elec       q    Type
REMARK                         _______ _______ _______ _____ _____    ______ ____
ROOT
ATOM      1  N   UNL     1       0.240  -4.138   0.376  0.00  0.00    -0.281 N 
ATOM      2  C   UNL     1       0.789  -4.888  -0.599  0.00  0.00    +0.252 C 
ATOM      3  O   UNL     1       1.116  -4.374  -1.651  0.00  0.00    -0.270 OA
ATOM      4  H   UNL     1      -0.080  -4.558   1.190  0.00  0.00    +0.155 HD
ENDROOT
BRANCH   1   9
ATOM      5  C   UNL     1      -0.202   1.480  -0.276  0.00  0.00    +0.044 C 
ATOM      6  C   UNL     1      -0.085  -0.013  -0.102  0.00  0.00    -0.050 A 
ATOM      7  C   UNL     1      -0.682  -0.862  -1.016  0.00  0.00    +0.008 A 
ATOM      8  C   UNL     1      -0.576  -2.230  -0.860  0.00  0.00    -0.029 A 
ATOM      9  C   UNL     1       0.131  -2.753   0.215  0.00  0.00    +0.040 A 
ATOM     10  C   UNL     1       0.729  -1.896   1.131  0.00  0.00    -0.029 A 
ATOM     11  C   UNL     1       0.624  -0.529   0.967  0.00  0.00    +0.008 A 
ATOM     12  C   UNL     1       1.496  -2.459   2.300  0.00  0.00    +0.045 C 
ATOM     13  C   UNL     1      -1.226  -3.156  -1.856  0.00  0.00    +0.045 C 
ENDBRANCH   1   9
BRANCH   2  14
ATOM     14  C   UNL     1       0.994  -6.333  -0.390  0.00  0.00    +0.078 A 
ATOM     15  C   UNL     1       0.615  -6.930   0.816  0.00  0.00    +0.018 A 
ATOM     16  C   UNL     1       0.808  -8.280   1.005  0.00  0.00    +0.016 A 
ATOM     17  C   UNL     1       1.378  -9.052   0.004  0.00  0.00    +0.021 A 
ATOM     18  C   UNL     1       1.758  -8.475  -1.193  0.00  0.00    +0.061 A 
ATOM     19  C   UNL     1       1.565  -7.118  -1.402  0.00  0.00    +0.130 A 
ATOM     20 BR   UNL     1       1.639 -10.905   0.278  0.00  0.00    -0.050 Br
BRANCH  19  21
ATOM     21  O   UNL     1       1.932  -6.551  -2.578  0.00  0.00    -0.506 OA
ATOM     22  H   UNL     1       2.842  -6.225  -2.591  0.00  0.00    +0.292 HD
ENDBRANCH  19  21
ENDBRANCH   2  14
TORSDOF 3
