REMARK  Name = ZINC16990497
REMARK  6 active torsions:
REMARK  status: ('A' for Active; 'I' for Inactive)
REMARK    1  A    between atoms: C_1  and  C_2
REMARK    2  A    between atoms: C_17  and  C_30
REMARK    3  A    between atoms: C_23  and  C_24
REMARK    4  A    between atoms: C_23  and  O_28
REMARK    5  A    between atoms: C_24  and  C_26
REMARK    6  A    between atoms: C_26  and  O_27
REMARK                            x       y       z     vdW  Elec       q    Type
REMARK                         _______ _______ _______ _____ _____    ______ ____
ROOT
ATOM      1  C   UNL     1      -1.943   0.277   1.433  0.00  0.00    +0.016 C 
ATOM      2  C   UNL     1      -1.733   1.760   1.124  0.00  0.00    -0.007 C 
ATOM      3  C   UNL     1      -2.233   2.550   2.321  0.00  0.00    +0.019 C 
ATOM      4  C   UNL     1      -1.195   2.576   3.454  0.00  0.00    +0.080 C 
ATOM      5  C   UNL     1       0.077   3.179   2.891  0.00  0.00    +0.156 C 
ATOM      6  O   UNL     1       0.665   4.075   3.459  0.00  0.00    -0.293 OA
ATOM      7  C   UNL     1       0.560   2.622   1.623  0.00  0.00    +0.046 C 
ATOM      8  C   UNL     1      -0.279   1.969   0.819  0.00  0.00    -0.060 C 
ATOM      9  C   UNL     1       0.282   1.399  -0.472  0.00  0.00    +0.032 C 
ATOM     10  C   UNL     1      -0.633   1.800  -1.630  0.00  0.00    +0.008 C 
ATOM     11  C   UNL     1      -2.062   1.340  -1.324  0.00  0.00    -0.003 C 
ATOM     12  C   UNL     1      -2.584   2.112  -0.103  0.00  0.00    +0.002 C 
ATOM     13  C   UNL     1      -4.045   1.784   0.192  0.00  0.00    +0.005 C 
ATOM     14  C   UNL     1      -4.936   1.996  -1.042  0.00  0.00    +0.010 C 
ATOM     15  C   UNL     1      -4.381   1.123  -2.151  0.00  0.00    +0.010 C 
ATOM     16  C   UNL     1      -2.969   1.669  -2.496  0.00  0.00    +0.004 C 
ATOM     17  C   UNL     1      -2.662   0.928  -3.803  0.00  0.00    +0.045 C 
ATOM     18  C   UNL     1      -4.014   0.990  -4.564  0.00  0.00    +0.206 C 
ATOM     19  C   UNL     1      -5.113   1.173  -3.487  0.00  0.00    +0.162 C 
ATOM     20  F   UNL     1      -4.224  -0.201  -5.267  0.00  0.00    -0.242 F 
ATOM     21  C   UNL     1      -4.274  -0.324  -1.667  0.00  0.00    +0.015 C 
ENDROOT
BRANCH  19  22
ATOM     22  C   UNL     1      -6.120   0.055  -3.573  0.00  0.00    +0.193 C 
ATOM     23  O   UNL     1      -5.781  -1.033  -3.972  0.00  0.00    -0.292 OA
BRANCH  22  24
ATOM     24  C   UNL     1      -7.550   0.295  -3.162  0.00  0.00    +0.233 C 
BRANCH  24  25
ATOM     25  O   UNL     1      -8.303  -0.907  -3.333  0.00  0.00    -0.387 OA
ATOM     26  H   UNL     1      -9.235  -0.826  -3.087  0.00  0.00    +0.210 HD
ENDBRANCH  24  25
ENDBRANCH  22  24
ENDBRANCH  19  22
BRANCH  19  27
ATOM     27  O   UNL     1      -5.760   2.437  -3.651  0.00  0.00    -0.378 OA
ATOM     28  H   UNL     1      -6.243   2.527  -4.484  0.00  0.00    +0.211 HD
ENDBRANCH  19  27
TORSDOF 4
