REMARK  Name = ZINC67481871
REMARK  9 active torsions:
REMARK  status: ('A' for Active; 'I' for Inactive)
REMARK    1  A    between atoms: C_1  and  N_2
REMARK    2  A    between atoms: C_3  and  C_5
REMARK    3  A    between atoms: C_8  and  C_10
REMARK    4  A    between atoms: C_10  and  N_11
REMARK    5  A    between atoms: N_11  and  C_12
REMARK    6  A    between atoms: N_15  and  C_16
REMARK    7  A    between atoms: C_16  and  C_17
REMARK    8  A    between atoms: N_22  and  C_23
REMARK    9  A    between atoms: C_23  and  C_24
REMARK                            x       y       z     vdW  Elec       q    Type
REMARK                         _______ _______ _______ _____ _____    ______ ____
ROOT
ATOM      1  N   UNL     1       0.377  -5.593  -1.453  0.00  0.00    -0.281 N 
ATOM      2  C   UNL     1       1.336  -4.760  -2.183  0.00  0.00    +0.134 C 
ATOM      3  C   UNL     1      -0.203  -6.646  -2.063  0.00  0.00    +0.302 C 
ATOM      4  O   UNL     1      -0.999  -7.337  -1.457  0.00  0.00    -0.253 OA
ATOM      5  N   UNL     1       0.101  -6.933  -3.344  0.00  0.00    -0.301 N 
ATOM      6  H   UNL     1       0.736  -6.382  -3.828  0.00  0.00    +0.150 HD
ENDROOT
BRANCH   1   7
ATOM      7  C   UNL     1       0.047  -5.280  -0.060  0.00  0.00    +0.183 C 
BRANCH   7  11
ATOM      8  C   UNL     1      -2.298  -2.481   0.015  0.00  0.00    +0.189 A 
ATOM      9  C   UNL     1      -3.186  -3.518   0.052  0.00  0.00    +0.055 A 
ATOM     10  C   UNL     1      -2.428  -4.699   0.028  0.00  0.00    +0.047 A 
ATOM     11  C   UNL     1      -1.127  -4.336  -0.021  0.00  0.00    +0.123 A 
ATOM     12  O   UNL     1      -1.053  -2.999  -0.034  0.00  0.00    -0.453 OA
BRANCH   8  15
ATOM     13  C   UNL     1      -2.000   1.297  -0.018  0.00  0.00    +0.128 C 
ATOM     14  N   UNL     1      -1.660  -0.128  -0.024  0.00  0.00    -0.312 N 
ATOM     15  C   UNL     1      -2.638  -1.055   0.021  0.00  0.00    +0.279 C 
ATOM     16  O   UNL     1      -3.804  -0.707   0.067  0.00  0.00    -0.267 OA
ATOM     17  H   UNL     1      -0.731  -0.405  -0.061  0.00  0.00    +0.149 HD
ENDBRANCH   8  15
ENDBRANCH   7  11
ENDBRANCH   1   7
BRANCH   5  18
ATOM     18  C   UNL     1      -0.529  -8.078  -4.007  0.00  0.00    +0.090 C 
BRANCH  18  19
ATOM     19  C   UNL     1      -0.070  -8.139  -5.465  0.00  0.00    -0.051 C 
ATOM     20  C   UNL     1      -0.887  -9.201  -6.229  0.00  0.00    -0.016 C 
ATOM     21  C   UNL     1       0.168  -9.848  -7.165  0.00  0.00    -0.020 C 
ATOM     22  C   UNL     1       1.434  -9.822  -6.274  0.00  0.00    -0.078 C 
ATOM     23  N   UNL     1       1.347  -8.544  -5.529  0.00  0.00    +0.383 N 
ATOM     24  H   UNL     1       1.882  -7.833  -6.005  0.00  0.00    -0.081 HD
BRANCH  23  25
ATOM     25  C   UNL     1       1.870  -8.726  -4.168  0.00  0.00    -0.075 C 
BRANCH  25  26
ATOM     26  C   UNL     1       3.383  -8.947  -4.229  0.00  0.00    -0.028 C 
ATOM     27  C   UNL     1       3.673 -10.328  -4.820  0.00  0.00    +0.002 C 
ATOM     28  C   UNL     1       5.186 -10.549  -4.881  0.00  0.00    +0.000 C 
ATOM     29  C   UNL     1       5.771 -10.464  -3.470  0.00  0.00    +0.000 C 
ATOM     30  C   UNL     1       5.481  -9.083  -2.879  0.00  0.00    +0.000 C 
ATOM     31  C   UNL     1       3.968  -8.862  -2.818  0.00  0.00    +0.002 C 
ENDBRANCH  25  26
ENDBRANCH  23  25
ENDBRANCH  18  19
ENDBRANCH   5  18
TORSDOF 7
