REMARK  Name = ZINC19595121
REMARK  4 active torsions:
REMARK  status: ('A' for Active; 'I' for Inactive)
REMARK    1  A    between atoms: C_6  and  C_7
REMARK    2  A    between atoms: C_7  and  C_9
REMARK    3  A    between atoms: C_10  and  N_21
REMARK    4  A    between atoms: C_13  and  C_19
REMARK                            x       y       z     vdW  Elec       q    Type
REMARK                         _______ _______ _______ _____ _____    ______ ____
ROOT
ATOM      1  C   UNL     1      -6.048   2.557   0.020  0.00  0.00    +0.083 A 
ATOM      2  C   UNL     1      -5.021   3.481  -0.015  0.00  0.00    +0.052 A 
ATOM      3  C   UNL     1      -3.652   2.989  -0.045  0.00  0.00    +0.030 A 
ATOM      4  C   UNL     1      -2.451   3.737  -0.083  0.00  0.00    +0.034 A 
ATOM      5  C   UNL     1      -1.238   3.062  -0.101  0.00  0.00    +0.092 A 
ATOM      6  C   UNL     1      -1.217   1.651  -0.094  0.00  0.00    +0.135 A 
ATOM      7  N   UNL     1      -2.351   0.972  -0.059  0.00  0.00    -0.224 NA
ATOM      8  C   UNL     1      -3.520   1.580  -0.035  0.00  0.00    +0.113 A 
ATOM      9  S   UNL     1      -5.195   0.992   0.014  0.00  0.00    -0.063 S 
ATOM     10  N   UNL     1      -0.010   0.979  -0.118  0.00  0.00    -0.342 N 
ATOM     11  H   UNL     1       0.007  -0.121  -0.112  0.00  0.00    +0.144 HD
ATOM     12  H   UNL     1       0.934   1.544  -0.143  0.00  0.00    +0.144 HD
ENDROOT
BRANCH   2  13
ATOM     13  N   UNL     1      -5.287   4.840  -0.021  0.00  0.00    -0.356 N 
ATOM     14  H   UNL     1      -4.459   5.563  -0.049  0.00  0.00    +0.142 HD
ATOM     15  H   UNL     1      -6.328   5.197   0.003  0.00  0.00    +0.142 HD
ENDBRANCH   2  13
BRANCH   1  16
ATOM     16  C   UNL     1      -7.439   2.796   0.053  0.00  0.00    +0.202 C 
ATOM     17  O   UNL     1      -7.860   3.933   0.175  0.00  0.00    -0.286 OA
BRANCH  16  23
ATOM     18  C   UNL     1      -7.992   0.479  -0.681  0.00  0.00    +0.013 A 
ATOM     19  C   UNL     1      -8.878  -0.573  -0.779  0.00  0.00    +0.016 A 
ATOM     20  C   UNL     1     -10.160  -0.451  -0.272  0.00  0.00    +0.018 A 
ATOM     21  C   UNL     1     -10.559   0.724   0.342  0.00  0.00    +0.016 A 
ATOM     22  C   UNL     1      -9.681   1.781   0.451  0.00  0.00    +0.013 A 
ATOM     23  C   UNL     1      -8.387   1.665  -0.059  0.00  0.00    +0.023 A 
ATOM     24 BR   UNL     1     -11.371  -1.897  -0.416  0.00  0.00    -0.050 Br
ENDBRANCH  16  23
ENDBRANCH   1  16
BRANCH   5  25
ATOM     25  C   UNL     1      -0.010   3.798  -0.133  0.00  0.00    +0.103 C 
ATOM     26  N   UNL     1       0.965   4.381  -0.158  0.00  0.00    -0.191 NA
ENDBRANCH   5  25
TORSDOF 4
