REMARK  Name = ZINC43668122
REMARK  7 active torsions:
REMARK  status: ('A' for Active; 'I' for Inactive)
REMARK    1  A    between atoms: C_1  and  C_2
REMARK    2  A    between atoms: C_4  and  N_19
REMARK    3  A    between atoms: N_5  and  C_7
REMARK    4  A    between atoms: C_13  and  C_15
REMARK    5  A    between atoms: C_15  and  C_16
REMARK    6  A    between atoms: C_15  and  C_17
REMARK    7  A    between atoms: C_15  and  C_18
REMARK                            x       y       z     vdW  Elec       q    Type
REMARK                         _______ _______ _______ _____ _____    ______ ____
ROOT
ATOM      1  C   UNL     1      -0.455   1.923   2.181  0.00  0.00    +0.069 C 
ATOM      2  C   UNL     1      -0.147   0.484   1.857  0.00  0.00    +0.076 A 
ATOM      3  C   UNL     1       0.464   0.022   0.688  0.00  0.00    +0.080 A 
ATOM      4  C   UNL     1       0.564  -1.334   0.777  0.00  0.00    +0.129 A 
ATOM      5  N   UNL     1       0.030  -1.704   1.970  0.00  0.00    -0.246 N 
ATOM      6  N   UNL     1      -0.401  -0.544   2.626  0.00  0.00    -0.173 NA
ATOM      7 BR   UNL     1       1.046   1.088  -0.761  0.00  0.00    -0.045 Br
ENDROOT
BRANCH   5   8
ATOM      8  C   UNL     1      -0.071  -3.073   2.482  0.00  0.00    +0.113 C 
ATOM      9  C   UNL     1       0.850  -3.234   3.694  0.00  0.00    +0.027 C 
ATOM     10  C   UNL     1       0.431  -2.248   4.787  0.00  0.00    +0.002 C 
ATOM     11  C   UNL     1      -1.014  -2.531   5.203  0.00  0.00    +0.000 C 
ATOM     12  C   UNL     1      -1.934  -2.371   3.991  0.00  0.00    +0.006 C 
ATOM     13  C   UNL     1      -1.516  -3.356   2.899  0.00  0.00    +0.019 C 
BRANCH  13  14
ATOM     14  C   UNL     1      -2.436  -3.196   1.687  0.00  0.00    -0.033 C 
ATOM     15  C   UNL     1      -1.903  -4.039   0.527  0.00  0.00    +0.011 C 
ATOM     16  C   UNL     1      -3.846  -3.664   2.052  0.00  0.00    +0.011 C 
ATOM     17  C   UNL     1      -2.479  -1.724   1.271  0.00  0.00    +0.011 C 
ENDBRANCH  13  14
ENDBRANCH   5   8
BRANCH   4  18
ATOM     18  N   UNL     1       1.113  -2.184  -0.179  0.00  0.00    -0.342 N 
ATOM     19  H   UNL     1       1.471  -1.819  -1.004  0.00  0.00    +0.144 HD
ATOM     20  H   UNL     1       1.138  -3.141  -0.021  0.00  0.00    +0.144 HD
ENDBRANCH   4  18
TORSDOF 3
