REMARK  Name = ZINC37950835
REMARK  7 active torsions:
REMARK  status: ('A' for Active; 'I' for Inactive)
REMARK    1  A    between atoms: C_1  and  C_2
REMARK    2  A    between atoms: C_2  and  C_3
REMARK    3  A    between atoms: C_2  and  C_12
REMARK    4  A    between atoms: C_2  and  N_15
REMARK    5  A    between atoms: C_6  and  O_11
REMARK    6  A    between atoms: C_7  and  O_9
REMARK    7  A    between atoms: O_9  and  C_10
REMARK                            x       y       z     vdW  Elec       q    Type
REMARK                         _______ _______ _______ _____ _____    ______ ____
ROOT
ATOM      1  C   UNL     1      -0.644   1.280   0.506  0.00  0.00    +0.043 C 
ATOM      2  C   UNL     1       0.020  -0.002   0.001  0.00  0.00    +0.121 C 
ENDROOT
BRANCH   2   3
ATOM      3  N   UNL     1       0.808   0.296  -1.203  0.00  0.00    -0.287 NA
ATOM      4  C   UNL     1      -0.024   0.659  -2.269  0.00  0.00    +0.084 C 
ATOM      5  C   UNL     1       0.772   0.784  -3.589  0.00  0.00    -0.004 C 
ATOM      6  C   UNL     1       1.555   2.073  -3.563  0.00  0.00    -0.081 C 
ATOM      7  N   UNL     1       2.933   1.906  -3.053  0.00  0.00    +0.380 N 
ATOM      8  C   UNL     1       3.010   1.017  -1.878  0.00  0.00    -0.067 C 
ATOM      9  C   UNL     1       1.884   1.264  -0.905  0.00  0.00    +0.067 C 
ATOM     10  H   UNL     1       3.507   1.523  -3.789  0.00  0.00    -0.086 HD
ATOM     11  H   UNL     1       3.298   2.812  -2.799  0.00  0.00    -0.086 HD
ENDBRANCH   2   3
BRANCH   2  12
ATOM     12  C   UNL     1       0.927  -0.554   1.070  0.00  0.00    -0.015 A 
ATOM     13  C   UNL     1       2.102  -1.192   0.717  0.00  0.00    +0.010 A 
ATOM     14  C   UNL     1       2.938  -1.699   1.695  0.00  0.00    +0.049 A 
ATOM     15  C   UNL     1       2.599  -1.569   3.032  0.00  0.00    +0.158 A 
ATOM     16  C   UNL     1       1.417  -0.926   3.387  0.00  0.00    +0.162 A 
ATOM     17  C   UNL     1       0.586  -0.415   2.403  0.00  0.00    +0.055 A 
BRANCH  16  18
ATOM     18  O   UNL     1       1.079  -0.795   4.698  0.00  0.00    -0.491 OA
ATOM     19  C   UNL     1      -0.148  -0.125   4.989  0.00  0.00    +0.277 C 
ENDBRANCH  16  18
BRANCH  15  20
ATOM     20  O   UNL     1       3.419  -2.067   3.995  0.00  0.00    -0.503 OA
ATOM     21  H   UNL     1       4.086  -1.441   4.307  0.00  0.00    +0.292 HD
ENDBRANCH  15  20
ENDBRANCH   2  12
BRANCH   2  22
ATOM     22  C   UNL     1      -1.040  -1.020  -0.332  0.00  0.00    +0.235 C 
ATOM     23  O   UNL     1      -2.142  -0.934   0.168  0.00  0.00    -0.274 OA
ATOM     24  N   UNL     1      -0.765  -2.026  -1.185  0.00  0.00    -0.328 N 
ATOM     25  H   UNL     1       0.135  -2.136  -1.531  0.00  0.00    +0.145 HD
ATOM     26  H   UNL     1      -1.466  -2.640  -1.454  0.00  0.00    +0.145 HD
ENDBRANCH   2  22
TORSDOF 5
