REMARK  Name = ZINC49569181
REMARK  1 active torsions:
REMARK  status: ('A' for Active; 'I' for Inactive)
REMARK    1  A    between atoms: C_5  and  N_11
REMARK                            x       y       z     vdW  Elec       q    Type
REMARK                         _______ _______ _______ _____ _____    ______ ____
ROOT
ATOM      1  C   UNL     1      -0.019   1.532   0.011  0.00  0.00    -0.020 C 
ATOM      2  C   UNL     1       1.458   1.969  -0.001  0.00  0.00    -0.015 C 
ATOM      3  C   UNL     1       2.242   0.710   0.422  0.00  0.00    -0.048 C 
ATOM      4  C   UNL     1       3.555   0.658  -0.384  0.00  0.00    +0.057 C 
ATOM      5  C   UNL     1       3.393  -0.539  -1.348  0.00  0.00    +0.002 C 
ATOM      6  C   UNL     1       1.856  -0.720  -1.423  0.00  0.00    -0.077 C 
ATOM      7  N   UNL     1       1.407  -0.435  -0.016  0.00  0.00    +0.383 N 
ATOM      8  C   UNL     1       0.002  -0.004   0.002  0.00  0.00    -0.078 C 
ATOM      9  H   UNL     1       1.553  -1.235   0.582  0.00  0.00    -0.081 HD
ENDROOT
BRANCH   4  10
ATOM     10  N   UNL     1       4.693   0.441   0.513  0.00  0.00    -0.321 N 
ATOM     11  C   UNL     1       5.964   0.861   0.138  0.00  0.00    +0.183 A 
ATOM     12  N   UNL     1       6.350   1.472  -0.965  0.00  0.00    -0.125 NA
ATOM     13  N   UNL     1       7.674   1.803  -1.136  0.00  0.00    -0.132 NA
ATOM     14  C   UNL     1       8.551   1.508  -0.196  0.00  0.00    +0.171 A 
ATOM     15  S   UNL     1       7.508   0.725   1.024  0.00  0.00    -0.024 S 
ATOM     16  S   UNL     1      10.287   1.811  -0.153  0.00  0.00    -0.021 SA
ATOM     17  H   UNL     1       4.559   0.003   1.368  0.00  0.00    +0.148 HD
ENDBRANCH   4  10
TORSDOF 1
