REMARK  Name = ZINC62384123
REMARK  10 active torsions:
REMARK  status: ('A' for Active; 'I' for Inactive)
REMARK    1  A    between atoms: C_1  and  C_2
REMARK    2  A    between atoms: N_8  and  C_9
REMARK    3  A    between atoms: C_9  and  C_10
REMARK    4  A    between atoms: C_11  and  O_24
REMARK    5  A    between atoms: C_15  and  C_22
REMARK    6  A    between atoms: N_16  and  C_17
REMARK    7  A    between atoms: C_17  and  C_18
REMARK    8  A    between atoms: C_18  and  C_20
REMARK    9  A    between atoms: C_18  and  O_21
REMARK   10  A    between atoms: C_22  and  O_23
REMARK                            x       y       z     vdW  Elec       q    Type
REMARK                         _______ _______ _______ _____ _____    ______ ____
ROOT
ATOM      1  C   UNL     1       2.658   0.195   1.857  0.00  0.00    +0.048 A 
ATOM      2  C   UNL     1       3.874  -0.340   1.591  0.00  0.00    +0.181 A 
ATOM      3  C   UNL     1       4.714  -0.716   2.669  0.00  0.00    +0.223 A 
ATOM      4  O   UNL     1       5.817  -1.200   2.461  0.00  0.00    -0.284 OA
ATOM      5  C   UNL     1       4.251  -0.519   3.989  0.00  0.00    +0.078 A 
ATOM      6  C   UNL     1       3.027   0.019   4.188  0.00  0.00    +0.048 A 
ATOM      7  N   UNL     1       2.247   0.375   3.139  0.00  0.00    -0.342 N 
ENDROOT
BRANCH   2   8
ATOM      8  O   UNL     1       4.284  -0.514   0.305  0.00  0.00    -0.502 OA
ATOM      9  H   UNL     1       5.165  -0.902   0.222  0.00  0.00    +0.292 HD
ENDBRANCH   2   8
BRANCH   1  10
ATOM     10  C   UNL     1       1.755   0.599   0.719  0.00  0.00    -0.020 C 
BRANCH  10  17
ATOM     11  C   UNL     1      -0.814   1.362  -0.117  0.00  0.00    -0.013 C 
ATOM     12  C   UNL     1      -0.213   0.013  -0.516  0.00  0.00    -0.071 C 
ATOM     13  C   UNL     1      -1.334  -1.019  -0.668  0.00  0.00    -0.016 C 
ATOM     14  C   UNL     1      -0.728  -2.367  -1.067  0.00  0.00    -0.003 C 
ATOM     15  C   UNL     1       0.305  -2.783  -0.016  0.00  0.00    -0.019 C 
ATOM     16  C   UNL     1       1.365  -1.686   0.112  0.00  0.00    -0.078 C 
ATOM     17  N   UNL     1       0.726  -0.430   0.522  0.00  0.00    +0.385 N 
ATOM     18  H   UNL     1       0.226  -0.574   1.387  0.00  0.00    -0.081 HD
ENDBRANCH  10  17
ENDBRANCH   1  10
BRANCH   7  19
ATOM     19  C   UNL     1       0.928   0.961   3.393  0.00  0.00    +0.152 C 
BRANCH  19  20
ATOM     20  C   UNL     1       1.034   2.487   3.363  0.00  0.00    +0.131 C 
ATOM     21  C   UNL     1      -0.358   3.098   3.537  0.00  0.00    +0.039 C 
BRANCH  20  22
ATOM     22  O   UNL     1       1.883   2.926   4.425  0.00  0.00    -0.390 OA
ATOM     23  H   UNL     1       1.531   2.750   5.309  0.00  0.00    +0.210 HD
ENDBRANCH  20  22
ENDBRANCH  19  20
ENDBRANCH   7  19
BRANCH   6  24
ATOM     24  C   UNL     1       2.526   0.232   5.593  0.00  0.00    +0.209 C 
BRANCH  24  25
ATOM     25  O   UNL     1       3.532  -0.175   6.524  0.00  0.00    -0.389 OA
ATOM     26  H   UNL     1       3.277  -0.065   7.450  0.00  0.00    +0.210 HD
ENDBRANCH  24  25
ENDBRANCH   6  24
TORSDOF 8
