REMARK  Name = ZINC36860580
REMARK  6 active torsions:
REMARK  status: ('A' for Active; 'I' for Inactive)
REMARK    1  A    between atoms: C_1  and  C_2
REMARK    2  A    between atoms: C_2  and  N_3
REMARK    3  A    between atoms: C_7  and  C_8
REMARK    4  A    between atoms: N_10  and  C_11
REMARK    5  A    between atoms: C_11  and  C_13
REMARK    6  A    between atoms: C_11  and  C_14
REMARK                            x       y       z     vdW  Elec       q    Type
REMARK                         _______ _______ _______ _____ _____    ______ ____
ROOT
ATOM      1  C   UNL     1      -1.284  -0.643   2.753  0.00  0.00    +0.261 C 
ATOM      2  O   UNL     1      -1.647  -0.786   3.905  0.00  0.00    -0.269 OA
ATOM      3  N   UNL     1      -2.187  -0.370   1.790  0.00  0.00    -0.299 N 
ATOM      4  H   UNL     1      -1.909  -0.331   0.862  0.00  0.00    +0.150 HD
ENDROOT
BRANCH   1   9
ATOM      5  N   UNL     1       1.150  -1.140   3.266  0.00  0.00    -0.342 N 
ATOM      6  C   UNL     1       2.318  -1.143   2.578  0.00  0.00    +0.101 A 
ATOM      7  C   UNL     1       2.074  -0.776   1.297  0.00  0.00    +0.036 A 
ATOM      8  C   UNL     1       0.702  -0.532   1.175  0.00  0.00    +0.047 A 
ATOM      9  C   UNL     1       0.137  -0.768   2.411  0.00  0.00    +0.105 A 
ATOM     10 BR   UNL     1       3.359  -0.620  -0.082  0.00  0.00    -0.049 Br
BRANCH   5  12
ATOM     11  C   UNL     1       0.502  -2.925   4.806  0.00  0.00    +0.027 C 
ATOM     12  C   UNL     1       0.991  -1.481   4.682  0.00  0.00    +0.118 C 
ENDBRANCH   5  12
ENDBRANCH   1   9
BRANCH   3  13
ATOM     13  C   UNL     1      -3.588  -0.133   2.147  0.00  0.00    +0.156 C 
ATOM     14  C   UNL     1      -3.774   1.335   2.533  0.00  0.00    +0.038 C 
BRANCH  13  15
ATOM     15  C   UNL     1      -4.468  -0.458   0.967  0.00  0.00    +0.231 C 
ATOM     16  O   UNL     1      -3.974  -0.849  -0.069  0.00  0.00    -0.274 OA
ATOM     17  N   UNL     1      -5.805  -0.314   1.064  0.00  0.00    -0.328 N 
ATOM     18  H   UNL     1      -6.200  -0.001   1.893  0.00  0.00    +0.145 HD
ATOM     19  H   UNL     1      -6.371  -0.522   0.305  0.00  0.00    +0.145 HD
ENDBRANCH  13  15
ENDBRANCH   3  13
TORSDOF 4
