REMARK  Name = ZINC43735374
REMARK  7 active torsions:
REMARK  status: ('A' for Active; 'I' for Inactive)
REMARK    1  A    between atoms: C_1  and  C_2
REMARK    2  A    between atoms: C_17  and  C_31
REMARK    3  A    between atoms: C_23  and  C_30
REMARK    4  A    between atoms: C_24  and  C_25
REMARK    5  A    between atoms: C_24  and  O_29
REMARK    6  A    between atoms: C_25  and  C_27
REMARK    7  A    between atoms: C_27  and  O_28
REMARK                            x       y       z     vdW  Elec       q    Type
REMARK                         _______ _______ _______ _____ _____    ______ ____
ROOT
ATOM      1  C   UNL     1       0.004   1.547   0.035  0.00  0.00    +0.011 C 
ATOM      2  C   UNL     1       0.017   0.019   0.003  0.00  0.00    +0.026 C 
ATOM      3  C   UNL     1      -1.433  -0.532   0.050  0.00  0.00    +0.011 C 
ATOM      4  C   UNL     1      -1.252  -1.851   0.824  0.00  0.00    +0.004 C 
ATOM      5  C   UNL     1      -2.525  -2.486   1.311  0.00  0.00    +0.029 C 
ATOM      6  C   UNL     1      -3.636  -1.476   1.593  0.00  0.00    +0.011 C 
ATOM      7  C   UNL     1      -4.949  -2.263   1.698  0.00  0.00    +0.032 C 
ATOM      8  C   UNL     1      -4.825  -3.303   2.781  0.00  0.00    -0.053 C 
ATOM      9  C   UNL     1      -5.968  -3.856   3.226  0.00  0.00    +0.051 C 
ATOM     10  C   UNL     1      -5.880  -4.908   4.265  0.00  0.00    +0.179 C 
ATOM     11  O   UNL     1      -6.807  -5.127   5.036  0.00  0.00    -0.288 OA
ATOM     12  C   UNL     1      -4.620  -5.684   4.327  0.00  0.00    +0.047 C 
ATOM     13  C   UNL     1      -3.496  -5.113   3.874  0.00  0.00    -0.009 C 
ATOM     14  C   UNL     1      -3.522  -3.696   3.382  0.00  0.00    +0.039 C 
ATOM     15  C   UNL     1      -2.298  -3.381   2.530  0.00  0.00    +0.111 C 
ATOM     16  C   UNL     1      -0.915  -3.502   3.152  0.00  0.00    +0.153 C 
ATOM     17  O   UNL     1      -1.439  -4.521   2.292  0.00  0.00    -0.363 OA
ATOM     18  C   UNL     1       0.264  -2.700   2.574  0.00  0.00    +0.044 C 
ATOM     19  C   UNL     1      -0.307  -1.425   1.970  0.00  0.00    +0.010 C 
ATOM     20  C   UNL     1       0.728  -0.537   1.260  0.00  0.00    +0.134 C 
ATOM     21  C   UNL     1      -1.002  -0.594   3.054  0.00  0.00    +0.015 C 
ATOM     22  C   UNL     1      -3.378  -2.837   4.645  0.00  0.00    +0.023 C 
ENDROOT
BRANCH  20  23
ATOM     23  C   UNL     1       1.952  -1.311   0.861  0.00  0.00    +0.190 C 
ATOM     24  O   UNL     1       1.978  -1.899  -0.194  0.00  0.00    -0.292 OA
BRANCH  23  25
ATOM     25  C   UNL     1       3.148  -1.354   1.776  0.00  0.00    +0.233 C 
BRANCH  25  26
ATOM     26  O   UNL     1       4.177  -2.146   1.179  0.00  0.00    -0.387 OA
ATOM     27  H   UNL     1       4.979  -2.218   1.715  0.00  0.00    +0.210 HD
ENDBRANCH  25  26
ENDBRANCH  23  25
ENDBRANCH  20  23
BRANCH  20  28
ATOM     28  O   UNL     1       1.095   0.547   2.121  0.00  0.00    -0.380 OA
ATOM     29  H   UNL     1       1.713   1.175   1.721  0.00  0.00    +0.211 HD
ENDBRANCH  20  28
TORSDOF 4
