REMARK  Name = ZINC43410978
REMARK  5 active torsions:
REMARK  status: ('A' for Active; 'I' for Inactive)
REMARK    1  A    between atoms: C_1  and  C_2
REMARK    2  A    between atoms: C_3  and  C_21
REMARK    3  A    between atoms: C_6  and  C_7
REMARK    4  A    between atoms: C_9  and  C_18
REMARK    5  A    between atoms: C_18  and  N_20
REMARK                            x       y       z     vdW  Elec       q    Type
REMARK                         _______ _______ _______ _____ _____    ______ ____
ROOT
ATOM      1  C   UNL     1       2.565   0.225  -1.235  0.00  0.00    +0.047 C 
ATOM      2  C   UNL     1       1.507  -0.609  -0.560  0.00  0.00    -0.007 A 
ATOM      3  C   UNL     1       0.125  -0.396  -0.625  0.00  0.00    +0.064 A 
ATOM      4  N   UNL     1      -0.469  -1.320   0.084  0.00  0.00    -0.170 NA
ATOM      5  N   UNL     1       0.515  -2.157   0.627  0.00  0.00    -0.218 N 
ATOM      6  C   UNL     1       1.725  -1.700   0.209  0.00  0.00    +0.047 A 
ATOM      7  C   UNL     1       3.067  -2.297   0.546  0.00  0.00    +0.066 C 
ATOM      8  C   UNL     1       0.293  -3.264   1.444  0.00  0.00    +0.164 A 
ATOM      9  C   UNL     1      -0.032  -4.503   0.870  0.00  0.00    +0.047 A 
ATOM     10  C   UNL     1      -0.251  -5.593   1.717  0.00  0.00    +0.019 A 
ATOM     11  C   UNL     1      -0.138  -5.408   3.090  0.00  0.00    -0.025 A 
ATOM     12  C   UNL     1       0.189  -4.162   3.581  0.00  0.00    +0.047 A 
ATOM     13  N   UNL     1       0.393  -3.145   2.753  0.00  0.00    -0.232 NA
ATOM     14  C   UNL     1       0.345  -3.895   5.057  0.00  0.00    +0.056 C 
ATOM     15  C   UNL     1      -0.323  -4.997   5.876  0.00  0.00    +0.006 C 
ATOM     16  C   UNL     1       0.187  -6.352   5.374  0.00  0.00    +0.005 C 
ATOM     17  C   UNL     1      -0.388  -6.596   3.980  0.00  0.00    +0.037 C 
ATOM     18  C   UNL     1      -0.562   0.712  -1.382  0.00  0.00    +0.068 C 
ENDROOT
BRANCH   9  19
ATOM     19  C   UNL     1      -0.138  -4.652  -0.593  0.00  0.00    +0.080 C 
ATOM     20  S   UNL     1      -0.032  -3.275  -1.604  0.00  0.00    -0.035 S 
BRANCH  19  21
ATOM     21  N   UNL     1      -0.320  -5.873  -1.134  0.00  0.00    -0.352 N 
ATOM     22  H   UNL     1      -0.380  -6.654  -0.562  0.00  0.00    +0.143 HD
ATOM     23  H   UNL     1      -0.390  -5.971  -2.097  0.00  0.00    +0.143 HD
ENDBRANCH  19  21
ENDBRANCH   9  19
TORSDOF 2
