REMARK  Name = ZINC66599165
REMARK  12 active torsions:
REMARK  status: ('A' for Active; 'I' for Inactive)
REMARK    1  A    between atoms: C_1  and  C_2
REMARK    2  A    between atoms: C_2  and  C_3
REMARK    3  A    between atoms: C_3  and  C_5
REMARK    4  A    between atoms: C_3  and  N_6
REMARK    5  A    between atoms: N_6  and  C_7
REMARK    6  A    between atoms: N_6  and  C_8
REMARK    7  A    between atoms: C_8  and  C_9
REMARK    8  A    between atoms: C_9  and  N_10
REMARK    9  A    between atoms: N_16  and  C_19
REMARK   10  A    between atoms: C_19  and  C_20
REMARK   11  A    between atoms: N_22  and  C_23
REMARK   12  A    between atoms: C_28  and  C_31
REMARK                            x       y       z     vdW  Elec       q    Type
REMARK                         _______ _______ _______ _____ _____    ______ ____
ROOT
ATOM      1  N   UNL     1      -6.162   0.339   5.177  0.00  0.00    -0.301 N 
ATOM      2  C   UNL     1      -6.849  -0.290   4.203  0.00  0.00    +0.302 C 
ATOM      3  O   UNL     1      -6.262  -0.742   3.239  0.00  0.00    -0.253 OA
ATOM      4  N   UNL     1      -8.188  -0.416   4.297  0.00  0.00    -0.283 N 
ATOM      5  C   UNL     1      -8.942  -1.206   3.311  0.00  0.00    +0.124 C 
ATOM      6  C   UNL     1      -9.834  -2.200   4.063  0.00  0.00    +0.104 C 
ATOM      7  N   UNL     1     -10.658  -1.473   5.038  0.00  0.00    -0.291 NA
ATOM      8  C   UNL     1      -9.825  -0.820   6.057  0.00  0.00    +0.104 C 
ATOM      9  C   UNL     1      -8.932   0.225   5.391  0.00  0.00    +0.124 C 
ATOM     10  H   UNL     1      -6.621   0.642   5.976  0.00  0.00    +0.150 HD
ENDROOT
BRANCH   1  11
ATOM     11  C   UNL     1      -4.723   0.566   5.029  0.00  0.00    +0.087 C 
BRANCH  11  12
ATOM     12  C   UNL     1      -4.191   1.293   6.265  0.00  0.00    -0.060 C 
BRANCH  12  13
ATOM     13  N   UNL     1      -2.747   1.520   6.116  0.00  0.00    +0.381 N 
ATOM     14  C   UNL     1      -2.050   0.227   6.071  0.00  0.00    -0.096 C 
ATOM     15  H   UNL     1      -2.572   2.026   5.261  0.00  0.00    -0.082 HD
BRANCH  13  16
ATOM     16  C   UNL     1      -2.254   2.302   7.258  0.00  0.00    -0.072 C 
ATOM     17  C   UNL     1      -2.625   1.591   8.561  0.00  0.00    -0.013 C 
BRANCH  16  19
ATOM     18  C   UNL     1      -2.414   4.453   5.998  0.00  0.00    +0.002 C 
ATOM     19  C   UNL     1      -2.891   3.692   7.237  0.00  0.00    -0.019 C 
ENDBRANCH  16  19
ENDBRANCH  13  16
ENDBRANCH  12  13
ENDBRANCH  11  12
ENDBRANCH   1  11
BRANCH   7  20
ATOM     20  C   UNL     1     -11.648  -2.363   5.659  0.00  0.00    +0.180 C 
BRANCH  20  21
ATOM     21  C   UNL     1     -12.626  -1.545   6.461  0.00  0.00    +0.227 C 
ATOM     22  O   UNL     1     -12.510  -0.339   6.511  0.00  0.00    -0.274 OA
ATOM     23  N   UNL     1     -13.630  -2.154   7.123  0.00  0.00    -0.311 N 
ATOM     24  H   UNL     1     -13.723  -3.118   7.083  0.00  0.00    +0.149 HD
BRANCH  23  25
ATOM     25  C   UNL     1     -14.581  -1.358   7.903  0.00  0.00    +0.073 C 
ATOM     26  C   UNL     1     -14.010  -1.105   9.300  0.00  0.00    +0.022 C 
ATOM     27  C   UNL     1     -15.003  -0.274  10.115  0.00  0.00    +0.002 C 
ATOM     28  C   UNL     1     -16.326  -1.034  10.235  0.00  0.00    +0.003 C 
ATOM     29  C   UNL     1     -16.897  -1.287   8.838  0.00  0.00    -0.012 C 
ATOM     30  C   UNL     1     -15.904  -2.118   8.023  0.00  0.00    +0.025 C 
ATOM     31  C   UNL     1     -18.220  -2.047   8.958  0.00  0.00    +0.007 C 
ENDBRANCH  23  25
ENDBRANCH  20  21
ENDBRANCH   7  20
TORSDOF 8
