REMARK  Name = ZINC61817819
REMARK  3 active torsions:
REMARK  status: ('A' for Active; 'I' for Inactive)
REMARK    1  A    between atoms: C_3  and  N_19
REMARK    2  A    between atoms: C_5  and  C_8
REMARK    3  A    between atoms: C_8  and  N_9
REMARK                            x       y       z     vdW  Elec       q    Type
REMARK                         _______ _______ _______ _____ _____    ______ ____
ROOT
ATOM      1  C   UNL     1       1.244  -2.171  -0.021  0.00  0.00    +0.205 C 
ENDROOT
BRANCH   1   2
ATOM      2  N   UNL     1       1.266  -2.666   1.357  0.00  0.00    -0.207 N 
ATOM      3  C   UNL     1       0.190  -2.962   2.118  0.00  0.00    +0.347 A 
ATOM      4  O   UNL     1      -0.978  -2.845   1.793  0.00  0.00    -0.245 OA
ATOM      5  N   UNL     1       0.646  -3.409   3.300  0.00  0.00    -0.279 N 
ATOM      6  C   UNL     1       2.025  -3.352   3.282  0.00  0.00    +0.134 A 
ATOM      7  N   UNL     1       2.409  -2.927   2.128  0.00  0.00    -0.153 NA
ATOM      8  C   UNL     1       2.894  -3.720   4.463  0.00  0.00    +0.076 C 
ATOM      9  C   UNL     1       2.054  -4.570   5.425  0.00  0.00    +0.009 C 
ATOM     10  C   UNL     1       0.726  -3.854   5.695  0.00  0.00    +0.022 C 
ATOM     11  C   UNL     1      -0.144  -3.902   4.434  0.00  0.00    +0.128 C 
ENDBRANCH   1   2
BRANCH   1  16
ATOM     12  C   UNL     1      -0.017   1.385   0.010  0.00  0.00    +0.025 A 
ATOM     13  C   UNL     1       1.190   2.062   0.002  0.00  0.00    +0.045 A 
ATOM     14  C   UNL     1       2.374   1.333  -0.013  0.00  0.00    +0.117 A 
ATOM     15  N   UNL     1       2.351   0.009  -0.020  0.00  0.00    -0.234 NA
ATOM     16  C   UNL     1       1.216  -0.664  -0.013  0.00  0.00    +0.083 A 
ATOM     17  C   UNL     1       0.002  -0.004   0.002  0.00  0.00    +0.064 A 
ATOM     18 CL   UNL     1      -1.484  -0.901   0.012  0.00  0.00    -0.082 Cl
BRANCH  14  19
ATOM     19  N   UNL     1       3.594   2.000  -0.022  0.00  0.00    -0.343 N 
ATOM     20  H   UNL     1       3.616   2.970  -0.017  0.00  0.00    +0.144 HD
ATOM     21  H   UNL     1       4.423   1.496  -0.033  0.00  0.00    +0.144 HD
ENDBRANCH  14  19
ENDBRANCH   1  16
TORSDOF 3
