REMARK  Name = ZINC40477842
REMARK  7 active torsions:
REMARK  status: ('A' for Active; 'I' for Inactive)
REMARK    1  A    between atoms: C_1  and  C_2
REMARK    2  A    between atoms: C_2  and  C_4
REMARK    3  A    between atoms: C_2  and  N_11
REMARK    4  A    between atoms: N_9  and  C_10
REMARK    5  A    between atoms: C_14  and  N_17
REMARK    6  A    between atoms: N_17  and  S_18
REMARK    7  A    between atoms: S_18  and  C_21
REMARK                            x       y       z     vdW  Elec       q    Type
REMARK                         _______ _______ _______ _____ _____    ______ ____
ROOT
ATOM      1  N   UNL     1       0.878  -0.571   1.036  0.00  0.00    -0.292 NA
ATOM      2  C   UNL     1       1.050  -2.017   0.846  0.00  0.00    +0.087 C 
ATOM      3  C   UNL     1       2.079  -2.546   1.848  0.00  0.00    +0.036 C 
ATOM      4  C   UNL     1       1.595  -2.254   3.271  0.00  0.00    +0.079 C 
ATOM      5  C   UNL     1       1.376  -0.746   3.428  0.00  0.00    +0.036 C 
ATOM      6  C   UNL     1       0.368  -0.270   2.380  0.00  0.00    +0.087 C 
ENDROOT
BRANCH   1   8
ATOM      7  C   UNL     1      -1.453  -0.354   0.318  0.00  0.00    +0.034 C 
ATOM      8  C   UNL     1       0.002  -0.004   0.002  0.00  0.00    +0.140 C 
BRANCH   8   9
ATOM      9  C   UNL     1       0.163   1.494  -0.027  0.00  0.00    +0.237 C 
ATOM     10  O   UNL     1       0.713   2.063   0.892  0.00  0.00    -0.274 OA
ATOM     11  N   UNL     1      -0.303   2.202  -1.075  0.00  0.00    -0.239 N 
ATOM     12  C   UNL     1      -0.159   3.542  -1.101  0.00  0.00    +0.306 C 
ATOM     13  O   UNL     1       0.392   4.112  -0.179  0.00  0.00    -0.252 OA
ATOM     14  N   UNL     1      -0.626   4.249  -2.149  0.00  0.00    -0.302 N 
ATOM     15  C   UNL     1      -0.469   5.706  -2.177  0.00  0.00    +0.129 C 
ATOM     16  H   UNL     1      -0.743   1.747  -1.810  0.00  0.00    +0.159 HD
ATOM     17  H   UNL     1      -1.065   3.794  -2.884  0.00  0.00    +0.150 HD
ENDBRANCH   8   9
ENDBRANCH   1   8
BRANCH   4  18
ATOM     18  N   UNL     1       2.602  -2.706   4.233  0.00  0.00    -0.192 NA
ATOM     19  H   UNL     1       3.545  -2.637   4.016  0.00  0.00    +0.148 HD
BRANCH  18  20
ATOM     20  S   UNL     1       2.132  -3.334   5.691  0.00  0.00    +0.027 S 
ATOM     21  O   UNL     1       3.346  -3.638   6.364  0.00  0.00    -0.158 OA
ATOM     22  O   UNL     1       1.228  -2.376   6.224  0.00  0.00    -0.158 OA
ATOM     23  C   UNL     1       1.248  -4.863   5.276  0.00  0.00    +0.214 C 
ENDBRANCH  18  20
ENDBRANCH   4  18
TORSDOF 4
