REMARK  Name = ZINC01320400
REMARK  2 active torsions:
REMARK  status: ('A' for Active; 'I' for Inactive)
REMARK    1  A    between atoms: C_9  and  C_13
REMARK    2  A    between atoms: C_13  and  O_24
REMARK                            x       y       z     vdW  Elec       q    Type
REMARK                         _______ _______ _______ _____ _____    ______ ____
ROOT
ATOM      1  C   UNL     1       0.002  -0.004   0.002  0.00  0.00    +0.178 C 
ATOM      2  C   UNL     1      -0.018   1.507   0.010  0.00  0.00    +0.016 A 
ATOM      3  C   UNL     1      -1.040   2.429   0.030  0.00  0.00    +0.024 A 
ATOM      4  C   UNL     1      -0.749   3.783   0.030  0.00  0.00    +0.018 A 
ATOM      5  C   UNL     1       0.570   4.203   0.020  0.00  0.00    +0.017 A 
ATOM      6  C   UNL     1       1.595   3.280   0.004  0.00  0.00    +0.025 A 
ATOM      7  C   UNL     1       1.309   1.916  -0.000  0.00  0.00    +0.040 A 
ATOM      8  N   UNL     1       2.155   0.807  -0.014  0.00  0.00    -0.282 N 
ATOM      9  C   UNL     1       1.475  -0.352  -0.014  0.00  0.00    +0.254 C 
ATOM     10  O   UNL     1       1.952  -1.467  -0.025  0.00  0.00    -0.272 OA
ATOM     11 BR   UNL     1      -2.149   5.054   0.051  0.00  0.00    -0.050 Br
ATOM     12  H   UNL     1       3.124   0.865  -0.024  0.00  0.00    +0.155 HD
ENDROOT
BRANCH   1  21
ATOM     13  C   UNL     1      -0.589  -1.987   6.185  0.00  0.00    +0.000 A 
ATOM     14  C   UNL     1      -0.005  -0.733   6.170  0.00  0.00    +0.001 A 
ATOM     15  C   UNL     1       0.191  -0.079   4.971  0.00  0.00    +0.011 A 
ATOM     16  C   UNL     1      -0.204  -0.687   3.776  0.00  0.00    +0.021 A 
ATOM     17  C   UNL     1      -0.797  -1.950   3.795  0.00  0.00    -0.037 A 
ATOM     18  C   UNL     1      -0.983  -2.592   5.006  0.00  0.00    +0.004 A 
ATOM     19  C   UNL     1      -1.246  -2.629   2.530  0.00  0.00    +0.036 C 
ATOM     20  C   UNL     1      -0.505  -2.081   1.313  0.00  0.00    +0.020 C 
ATOM     21  C   UNL     1      -0.666  -0.556   1.263  0.00  0.00    +0.106 C 
ATOM     22  C   UNL     1       0.010   0.012   2.494  0.00  0.00    +0.170 C 
ATOM     23  O   UNL     1       0.702   1.006   2.429  0.00  0.00    -0.292 OA
ENDBRANCH   1  21
BRANCH   1  24
ATOM     24  O   UNL     1      -0.644  -0.507  -1.169  0.00  0.00    -0.374 OA
ATOM     25  H   UNL     1      -0.241  -0.212  -1.998  0.00  0.00    +0.211 HD
ENDBRANCH   1  24
TORSDOF 2
