REMARK  Name = ZINC39676538
REMARK  10 active torsions:
REMARK  status: ('A' for Active; 'I' for Inactive)
REMARK    1  A    between atoms: C_1  and  C_2
REMARK    2  A    between atoms: C_5  and  C_8
REMARK    3  A    between atoms: C_12  and  C_21
REMARK    4  A    between atoms: N_23  and  C_24
REMARK    5  A    between atoms: C_24  and  C_25
REMARK    6  A    between atoms: C_24  and  C_33
REMARK    7  A    between atoms: C_28  and  O_31
REMARK    8  A    between atoms: O_31  and  C_32
REMARK    9  A    between atoms: C_36  and  O_39
REMARK   10  A    between atoms: O_39  and  C_40
REMARK                            x       y       z     vdW  Elec       q    Type
REMARK                         _______ _______ _______ _____ _____    ______ ____
ROOT
ATOM      1  C   UNL     1       0.057  -4.244  -0.019  0.00  0.00    +0.247 C 
ATOM      2  O   UNL     1      -0.048  -4.846  -1.070  0.00  0.00    -0.270 OA
ATOM      3  N   UNL     1       0.175  -4.924   1.138  0.00  0.00    -0.296 N 
ATOM      4  C   UNL     1       0.183  -4.378   2.516  0.00  0.00    +0.121 C 
ATOM      5  C   UNL     1      -0.633  -5.396   3.344  0.00  0.00    +0.100 C 
ATOM      6  C   UNL     1      -0.533  -6.712   2.556  0.00  0.00    -0.004 C 
ATOM      7  C   UNL     1       0.320  -6.388   1.321  0.00  0.00    +0.115 C 
ATOM      8  C   UNL     1      -1.921  -7.175   2.123  0.00  0.00    -0.010 C 
ATOM      9  C   UNL     1      -1.802  -8.515   1.391  0.00  0.00    -0.082 C 
ATOM     10  N   UNL     1      -1.188  -9.508   2.281  0.00  0.00    +0.379 N 
ATOM     11  C   UNL     1       0.181  -9.100   2.618  0.00  0.00    -0.082 C 
ATOM     12  C   UNL     1       0.146  -7.785   3.402  0.00  0.00    -0.010 C 
ATOM     13  H   UNL     1      -1.733  -9.582   3.127  0.00  0.00    -0.086 HD
ATOM     14  H   UNL     1      -1.167 -10.404   1.818  0.00  0.00    -0.086 HD
ENDROOT
BRANCH   1  19
ATOM     15  C   UNL     1       0.043   1.511   0.014  0.00  0.00    +0.044 C 
ATOM     16  C   UNL     1       0.046   0.004   0.005  0.00  0.00    -0.050 A 
ATOM     17  C   UNL     1      -0.557  -0.680  -1.035  0.00  0.00    +0.004 A 
ATOM     18  C   UNL     1      -0.557  -2.060  -1.049  0.00  0.00    +0.013 A 
ATOM     19  C   UNL     1       0.053  -2.765  -0.011  0.00  0.00    +0.037 A 
ATOM     20  C   UNL     1       0.660  -2.069   1.035  0.00  0.00    +0.013 A 
ATOM     21  C   UNL     1       0.658  -0.689   1.034  0.00  0.00    +0.004 A 
ENDBRANCH   1  19
BRANCH   5  22
ATOM     22  C   UNL     1      -0.032  -5.556   4.717  0.00  0.00    +0.219 C 
ATOM     23  O   UNL     1       1.144  -5.323   4.895  0.00  0.00    -0.275 OA
ATOM     24  N   UNL     1      -0.803  -5.960   5.746  0.00  0.00    -0.304 N 
ATOM     25  H   UNL     1      -1.744  -6.147   5.604  0.00  0.00    +0.150 HD
BRANCH  24  26
ATOM     26  C   UNL     1      -0.219  -6.116   7.081  0.00  0.00    +0.134 C 
BRANCH  26  27
ATOM     27  C   UNL     1      -1.298  -5.964   8.122  0.00  0.00    -0.023 A 
ATOM     28  C   UNL     1      -2.546  -6.519   7.910  0.00  0.00    +0.009 A 
ATOM     29  C   UNL     1      -3.536  -6.380   8.862  0.00  0.00    +0.046 A 
ATOM     30  C   UNL     1      -3.278  -5.683  10.033  0.00  0.00    +0.120 A 
ATOM     31  C   UNL     1      -2.025  -5.127  10.245  0.00  0.00    +0.046 A 
ATOM     32  C   UNL     1      -1.036  -5.273   9.291  0.00  0.00    +0.009 A 
BRANCH  30  33
ATOM     33  O   UNL     1      -4.251  -5.544  10.972  0.00  0.00    -0.495 OA
ATOM     34  C   UNL     1      -3.914  -4.814  12.153  0.00  0.00    +0.277 C 
ENDBRANCH  30  33
ENDBRANCH  26  27
BRANCH  26  35
ATOM     35  C   UNL     1       0.404  -7.484   7.200  0.00  0.00    -0.023 A 
ATOM     36  C   UNL     1      -0.230  -8.581   6.647  0.00  0.00    +0.009 A 
ATOM     37  C   UNL     1       0.338  -9.835   6.755  0.00  0.00    +0.046 A 
ATOM     38  C   UNL     1       1.547  -9.993   7.418  0.00  0.00    +0.120 A 
ATOM     39  C   UNL     1       2.181  -8.890   7.971  0.00  0.00    +0.046 A 
ATOM     40  C   UNL     1       1.611  -7.637   7.856  0.00  0.00    +0.009 A 
BRANCH  38  41
ATOM     41  O   UNL     1       2.108 -11.226   7.526  0.00  0.00    -0.495 OA
ATOM     42  C   UNL     1       3.353 -11.314   8.222  0.00  0.00    +0.277 C 
ENDBRANCH  38  41
ENDBRANCH  26  35
ENDBRANCH  24  26
ENDBRANCH   5  22
TORSDOF 7
