REMARK  Name = ZINC56532930
REMARK  4 active torsions:
REMARK  status: ('A' for Active; 'I' for Inactive)
REMARK    1  A    between atoms: C_1  and  C_2
REMARK    2  A    between atoms: C_7  and  N_8
REMARK    3  A    between atoms: C_19  and  N_20
REMARK    4  A    between atoms: C_21  and  C_23
REMARK                            x       y       z     vdW  Elec       q    Type
REMARK                         _______ _______ _______ _____ _____    ______ ____
ROOT
ATOM      1  N   UNL     1       0.069   0.003   2.397  0.00  0.00    -0.269 N 
ATOM      2  C   UNL     1      -0.034  -0.671   3.559  0.00  0.00    +0.307 C 
ATOM      3  O   UNL     1      -0.035  -1.887   3.559  0.00  0.00    -0.252 OA
ATOM      4  N   UNL     1      -0.134   0.003   4.722  0.00  0.00    -0.281 N 
ATOM      5  C   UNL     1      -0.131  -0.700   6.017  0.00  0.00    +0.114 C 
ATOM      6  C   UNL     1       1.119  -0.267   6.783  0.00  0.00    +0.056 C 
ATOM      7  C   UNL     1       1.274   1.231   6.752  0.00  0.00    -0.020 A 
ATOM      8  C   UNL     1       0.660   2.027   5.812  0.00  0.00    -0.025 A 
ATOM      9  C   UNL     1       0.860   3.401   5.832  0.00  0.00    +0.005 A 
ATOM     10  C   UNL     1       1.663   3.981   6.794  0.00  0.00    +0.002 A 
ATOM     11  C   UNL     1       2.275   3.190   7.746  0.00  0.00    +0.023 A 
ATOM     12  C   UNL     1       2.083   1.818   7.726  0.00  0.00    +0.037 A 
ATOM     13  C   UNL     1      -0.244   1.465   4.750  0.00  0.00    +0.144 C 
ATOM     14  H   UNL     1       0.149   0.970   2.402  0.00  0.00    +0.156 HD
ENDROOT
BRANCH   1  21
ATOM     15  C   UNL     1       0.010   1.513  -0.014  0.00  0.00    +0.046 C 
ATOM     16  C   UNL     1       0.031   0.006  -0.018  0.00  0.00    -0.028 A 
ATOM     17  C   UNL     1       0.027  -0.682  -1.216  0.00  0.00    +0.025 A 
ATOM     18  C   UNL     1       0.046  -2.065  -1.221  0.00  0.00    +0.041 A 
ATOM     19  C   UNL     1       0.068  -2.763  -0.026  0.00  0.00    +0.022 A 
ATOM     20  C   UNL     1       0.071  -2.080   1.174  0.00  0.00    +0.025 A 
ATOM     21  C   UNL     1       0.059  -0.692   1.181  0.00  0.00    +0.038 A 
ATOM     22 CL   UNL     1       0.041  -2.927  -2.728  0.00  0.00    -0.084 Cl
ENDBRANCH   1  21
BRANCH  12  23
ATOM     23  N   UNL     1       2.704   1.015   8.689  0.00  0.00    -0.285 N 
ATOM     24  C   UNL     1       3.052   1.540   9.881  0.00  0.00    +0.214 C 
ATOM     25  O   UNL     1       2.729   2.675  10.161  0.00  0.00    -0.276 OA
ATOM     26  C   UNL     1       3.841   0.717  10.866  0.00  0.00    +0.109 C 
ATOM     27  H   UNL     1       2.885   0.081   8.500  0.00  0.00    +0.155 HD
ENDBRANCH  12  23
TORSDOF 2
