REMARK  Name = ZINC66640413
REMARK  11 active torsions:
REMARK  status: ('A' for Active; 'I' for Inactive)
REMARK    1  A    between atoms: C_1  and  C_2
REMARK    2  A    between atoms: C_2  and  C_3
REMARK    3  A    between atoms: C_2  and  C_4
REMARK    4  A    between atoms: C_4  and  C_6
REMARK    5  A    between atoms: C_4  and  N_19
REMARK    6  A    between atoms: N_8  and  C_9
REMARK    7  A    between atoms: C_9  and  C_10
REMARK    8  A    between atoms: N_14  and  C_15
REMARK    9  A    between atoms: C_15  and  C_16
REMARK   10  A    between atoms: C_15  and  C_17
REMARK   11  A    between atoms: C_20  and  C_22
REMARK                            x       y       z     vdW  Elec       q    Type
REMARK                         _______ _______ _______ _____ _____    ______ ____
ROOT
ATOM      1  C   UNL     1      -2.125  -0.137  -1.266  0.00  0.00    +0.234 C 
ATOM      2  O   UNL     1      -3.122   0.552  -1.228  0.00  0.00    -0.274 OA
ATOM      3  N   UNL     1      -1.635  -0.549  -2.452  0.00  0.00    -0.307 N 
ATOM      4  H   UNL     1      -0.837  -1.100  -2.483  0.00  0.00    +0.149 HD
ENDROOT
BRANCH   1   5
ATOM      5  C   UNL     1      -1.433  -0.534   0.013  0.00  0.00    +0.161 C 
BRANCH   5   6
ATOM      6  N   UNL     1      -2.155   0.035   1.154  0.00  0.00    -0.304 N 
ATOM      7  C   UNL     1      -2.067  -0.550   2.366  0.00  0.00    +0.211 C 
ATOM      8  O   UNL     1      -1.391  -1.546   2.511  0.00  0.00    -0.276 OA
ATOM      9  C   UNL     1      -2.809   0.034   3.540  0.00  0.00    +0.109 C 
ATOM     10  H   UNL     1      -2.696   0.831   1.038  0.00  0.00    +0.149 HD
ENDBRANCH   5   6
BRANCH   5  12
ATOM     11  C   UNL     1      -0.019   1.526   0.010  0.00  0.00    +0.009 C 
ATOM     12  C   UNL     1       0.002  -0.004   0.002  0.00  0.00    +0.012 C 
ATOM     13  C   UNL     1       0.742  -0.511   1.242  0.00  0.00    +0.009 C 
ENDBRANCH   5  12
ENDBRANCH   1   5
BRANCH   3  14
ATOM     14  C   UNL     1      -2.307  -0.163  -3.696  0.00  0.00    +0.180 C 
BRANCH  14  15
ATOM     15  C   UNL     1      -1.565  -0.748  -4.870  0.00  0.00    +0.149 A 
ATOM     16  N   UNL     1      -0.502  -1.482  -4.799  0.00  0.00    -0.157 NA
ATOM     17  N   UNL     1      -0.119  -1.824  -6.103  0.00  0.00    -0.254 N 
ATOM     18  C   UNL     1      -1.009  -1.255  -6.944  0.00  0.00    +0.176 A 
ATOM     19  N   UNL     1      -1.909  -0.593  -6.190  0.00  0.00    -0.303 N 
ATOM     20  S   UNL     1      -1.000  -1.362  -8.653  0.00  0.00    -0.011 S 
ATOM     21  H   UNL     1       0.643  -2.368  -6.355  0.00  0.00    +0.191 HD
BRANCH  19  22
ATOM     22  C   UNL     1      -3.057   0.166  -6.694  0.00  0.00    +0.085 C 
ATOM     23  C   UNL     1      -2.564   1.288  -7.609  0.00  0.00    +0.030 C 
ATOM     24  C   UNL     1      -3.979  -0.767  -7.481  0.00  0.00    +0.030 C 
ENDBRANCH  19  22
ENDBRANCH  14  15
ENDBRANCH   3  14
TORSDOF 6
