REMARK  Name = ZINC44463964
REMARK  8 active torsions:
REMARK  status: ('A' for Active; 'I' for Inactive)
REMARK    1  A    between atoms: C_1  and  O_2
REMARK    2  A    between atoms: O_2  and  C_3
REMARK    3  A    between atoms: C_7  and  C_10
REMARK    4  A    between atoms: C_8  and  O_9
REMARK    5  A    between atoms: C_10  and  CA_11
REMARK    6  A    between atoms: CA_11  and  C_13
REMARK    7  A    between atoms: CA_11  and  N_15
REMARK    8  A    between atoms: C_13  and  O_14
REMARK                            x       y       z     vdW  Elec       q    Type
REMARK                         _______ _______ _______ _____ _____    ______ ____
ROOT
ATOM      1  C   UNL     1       0.626  -0.619   1.042  0.00  0.00    +0.163 A 
ATOM      2  C   UNL     1       1.202   0.137   2.051  0.00  0.00    +0.064 A 
ATOM      3  C   UNL     1       1.836  -0.490   3.108  0.00  0.00    +0.022 A 
ATOM      4  C   UNL     1       1.897  -1.871   3.161  0.00  0.00    +0.022 A 
ATOM      5  C   UNL     1       1.325  -2.630   2.158  0.00  0.00    -0.003 A 
ATOM      6  C   UNL     1       0.683  -2.008   1.099  0.00  0.00    +0.162 A 
ATOM      7 BR   UNL     1       2.622   0.543   4.484  0.00  0.00    -0.050 Br
ENDROOT
BRANCH   1   9
ATOM      8  C   UNL     1      -0.017   1.425   0.010  0.00  0.00    +0.277 C 
ATOM      9  O   UNL     1       0.002  -0.004   0.002  0.00  0.00    -0.491 OA
ENDBRANCH   1   9
BRANCH   6  10
ATOM     10  O   UNL     1       0.115  -2.754   0.113  0.00  0.00    -0.503 OA
ATOM     11  H   UNL     1       0.711  -2.957  -0.620  0.00  0.00    +0.292 HD
ENDBRANCH   6  10
BRANCH   5  12
ATOM     12  C   UNL     1       1.393  -4.134   2.218  0.00  0.00    +0.025 C 
BRANCH  12  13
ATOM     13  CA  UNL     1       2.592  -4.623   1.403  0.00  0.00    -0.045 C 
BRANCH  13  14
ATOM     14  N   UNL     1       2.385  -4.300  -0.015  0.00  0.00    +0.382 N 
ATOM     15  H1  UNL     1       3.175  -4.623  -0.552  0.00  0.00    -0.090 HD
ATOM     16  H2  UNL     1       1.546  -4.755  -0.344  0.00  0.00    -0.090 HD
ATOM     17  H3  UNL     1       2.290  -3.301  -0.122  0.00  0.00    -0.090 HD
ENDBRANCH  13  14
BRANCH  13  18
ATOM     18  C   UNL     1       2.736  -6.138   1.566  0.00  0.00    +0.140 C 
BRANCH  18  19
ATOM     19  O   UNL     1       3.922  -6.578   0.900  0.00  0.00    -0.397 OA
ATOM     20  H   UNL     1       4.077  -7.530   0.962  0.00  0.00    +0.209 HD
ENDBRANCH  18  19
ENDBRANCH  13  18
ENDBRANCH  12  13
ENDBRANCH   5  12
TORSDOF 7
