REMARK  Name = ZINC40472848
REMARK  4 active torsions:
REMARK  status: ('A' for Active; 'I' for Inactive)
REMARK    1  A    between atoms: C_4  and  N_10
REMARK    2  A    between atoms: C_5  and  C_7
REMARK    3  A    between atoms: C_11  and  C_13
REMARK    4  A    between atoms: C_16  and  N_19
REMARK                            x       y       z     vdW  Elec       q    Type
REMARK                         _______ _______ _______ _____ _____    ______ ____
ROOT
ATOM      1  N   UNL     1       3.598  -0.607  -0.041  0.00  0.00    -0.285 N 
ATOM      2  C   UNL     1       4.739   0.103  -0.139  0.00  0.00    +0.220 C 
ATOM      3  O   UNL     1       4.703   1.315  -0.119  0.00  0.00    -0.275 OA
ATOM      4  H   UNL     1       3.632  -1.575   0.009  0.00  0.00    +0.155 HD
ENDROOT
BRANCH   1   8
ATOM      5  C   UNL     1      -0.078   1.360   0.052  0.00  0.00    +0.001 A 
ATOM      6  C   UNL     1       1.034   1.925   0.657  0.00  0.00    +0.002 A 
ATOM      7  C   UNL     1       2.251   1.276   0.628  0.00  0.00    +0.024 A 
ATOM      8  C   UNL     1       2.371   0.049  -0.010  0.00  0.00    +0.048 A 
ATOM      9  C   UNL     1       1.247  -0.527  -0.624  0.00  0.00    +0.084 A 
ATOM     10  C   UNL     1       0.020   0.143  -0.586  0.00  0.00    +0.017 A 
BRANCH   9  11
ATOM     11  C   UNL     1       1.360  -1.827  -1.304  0.00  0.00    +0.388 C 
ATOM     12  O   UNL     1       0.403  -2.283  -1.915  0.00  0.00    -0.241 OA
ATOM     13  O   UNL     1       2.410  -2.452  -1.259  0.00  0.00    -0.241 OA
ENDBRANCH   9  11
ENDBRANCH   1   8
BRANCH   2  14
ATOM     14  C   UNL     1       6.060  -0.609  -0.274  0.00  0.00    +0.075 C 
ATOM     15  C   UNL     1       6.285  -1.502   0.948  0.00  0.00    +0.011 C 
ATOM     16  C   UNL     1       6.296  -0.642   2.213  0.00  0.00    -0.016 C 
ATOM     17  C   UNL     1       7.423   0.388   2.120  0.00  0.00    -0.075 C 
ATOM     18  C   UNL     1       7.199   1.281   0.899  0.00  0.00    -0.016 C 
ATOM     19  C   UNL     1       7.188   0.421  -0.367  0.00  0.00    +0.011 C 
BRANCH  17  20
ATOM     20  N   UNL     1       7.434   1.213   3.335  0.00  0.00    +0.380 N 
ATOM     21  H   UNL     1       7.582   0.624   4.141  0.00  0.00    -0.090 HD
ATOM     22  H   UNL     1       8.177   1.893   3.274  0.00  0.00    -0.090 HD
ATOM     23  H   UNL     1       6.549   1.690   3.425  0.00  0.00    -0.090 HD
ENDBRANCH  17  20
ENDBRANCH   2  14
TORSDOF 4
