REMARK  Name = ZINC03870927
REMARK  6 active torsions:
REMARK  status: ('A' for Active; 'I' for Inactive)
REMARK    1  A    between atoms: N_3  and  C1*_9
REMARK    2  A    between atoms: C_7  and  N_8
REMARK    3  A    between atoms: C2*_11  and  O2*_21
REMARK    4  A    between atoms: C3*_13  and  O3*_20
REMARK    5  A    between atoms: C4*_15  and  C5*_18
REMARK    6  A    between atoms: C5*_18  and  O5*_19
REMARK                            x       y       z     vdW  Elec       q    Type
REMARK                         _______ _______ _______ _____ _____    ______ ____
ROOT
ATOM      1  C1* UNL     1       1.175  -2.130  -0.021  0.00  0.00    +0.253 C 
ATOM      2  C2* UNL     1       1.817  -2.660  -1.323  0.00  0.00    +0.195 C 
ATOM      3  C3* UNL     1       0.977  -3.908  -1.674  0.00  0.00    +0.178 C 
ATOM      4  C4* UNL     1      -0.072  -3.985  -0.543  0.00  0.00    +0.177 C 
ATOM      5  O4* UNL     1      -0.178  -2.633  -0.046  0.00  0.00    -0.346 OA
ENDROOT
BRANCH   1   8
ATOM      6  C   UNL     1       2.392   1.353  -0.013  0.00  0.00    +0.041 A 
ATOM      7  C   UNL     1       2.358   0.004  -0.020  0.00  0.00    +0.093 A 
ATOM      8  N   UNL     1       1.175  -0.665  -0.013  0.00  0.00    -0.286 N 
ATOM      9  C   UNL     1       0.002  -0.004   0.002  0.00  0.00    +0.255 A 
ATOM     10  O   UNL     1      -1.048  -0.627   0.009  0.00  0.00    -0.268 OA
ATOM     11  C   UNL     1      -0.017   1.394   0.010  0.00  0.00    +0.093 A 
ATOM     12  C   UNL     1       1.185   2.084   0.002  0.00  0.00    +0.031 A 
BRANCH  12  13
ATOM     13  N   UNL     1       1.200   3.467   0.009  0.00  0.00    -0.358 N 
ATOM     14  H   UNL     1       0.366   3.962   0.019  0.00  0.00    +0.142 HD
ATOM     15  H   UNL     1       2.046   3.942   0.003  0.00  0.00    +0.142 HD
ENDBRANCH  12  13
ENDBRANCH   1   8
BRANCH   3  16
ATOM     16  O3* UNL     1       0.337  -3.744  -2.941  0.00  0.00    -0.386 OA
ATOM     17  H3* UNL     1      -0.250  -4.474  -3.183  0.00  0.00    +0.210 HD
ENDBRANCH   3  16
BRANCH   2  18
ATOM     18  O2* UNL     1       1.721  -1.683  -2.362  0.00  0.00    -0.385 OA
ATOM     19  H2* UNL     1       2.108  -1.964  -3.203  0.00  0.00    +0.210 HD
ENDBRANCH   2  18
BRANCH   4  20
ATOM     20  C5* UNL     1      -1.419  -4.455  -1.097  0.00  0.00    +0.190 C 
BRANCH  20  21
ATOM     21  O5* UNL     1      -2.363  -4.560  -0.029  0.00  0.00    -0.392 OA
ATOM     22  H5* UNL     1      -3.241  -4.854  -0.308  0.00  0.00    +0.210 HD
ENDBRANCH  20  21
ENDBRANCH   4  20
TORSDOF 6
