REMARK  Name = ZINC40757581
REMARK  7 active torsions:
REMARK  status: ('A' for Active; 'I' for Inactive)
REMARK    1  A    between atoms: C_1  and  C_2
REMARK    2  A    between atoms: C_4  and  O_9
REMARK    3  A    between atoms: O_9  and  C_10
REMARK    4  A    between atoms: C_11  and  N_24
REMARK    5  A    between atoms: C_12  and  N_16
REMARK    6  A    between atoms: N_16  and  N_17
REMARK    7  A    between atoms: N_17  and  C_18
REMARK                            x       y       z     vdW  Elec       q    Type
REMARK                         _______ _______ _______ _____ _____    ______ ____
ROOT
ATOM      1  C   UNL     1       0.152  -4.100  -2.347  0.00  0.00    +0.246 A 
ATOM      2  C   UNL     1       0.271  -4.833  -3.526  0.00  0.00    +0.129 A 
ATOM      3  C   UNL     1       0.396  -6.222  -3.430  0.00  0.00    +0.163 A 
ATOM      4  N   UNL     1       0.395  -6.786  -2.225  0.00  0.00    -0.217 NA
ATOM      5  C   UNL     1       0.280  -6.055  -1.135  0.00  0.00    +0.227 A 
ATOM      6  N   UNL     1       0.166  -4.743  -1.183  0.00  0.00    -0.199 NA
ENDROOT
BRANCH   2   7
ATOM      7  N   UNL     1       0.266  -4.195  -4.776  0.00  0.00    -0.351 N 
ATOM      8  H   UNL     1       0.179  -3.230  -4.828  0.00  0.00    +0.143 HD
ATOM      9  H   UNL     1       0.350  -4.718  -5.589  0.00  0.00    +0.143 HD
ENDBRANCH   2   7
BRANCH   3  10
ATOM     10  N   UNL     1       0.517  -7.000  -4.574  0.00  0.00    -0.249 N 
ATOM     11  H   UNL     1       0.516  -6.580  -5.449  0.00  0.00    +0.172 HD
BRANCH  10  12
ATOM     12  N   UNL     1       0.641  -8.391  -4.465  0.00  0.00    -0.265 N 
ATOM     13  H   UNL     1       0.642  -8.811  -3.591  0.00  0.00    +0.170 HD
BRANCH  12  14
ATOM     14  C   UNL     1       0.764  -9.174  -5.616  0.00  0.00    +0.044 A 
ATOM     15  C   UNL     1       0.769  -8.574  -6.869  0.00  0.00    +0.024 A 
ATOM     16  C   UNL     1       0.890  -9.351  -8.004  0.00  0.00    +0.002 A 
ATOM     17  C   UNL     1       1.007 -10.724  -7.895  0.00  0.00    +0.000 A 
ATOM     18  C   UNL     1       1.003 -11.325  -6.649  0.00  0.00    +0.002 A 
ATOM     19  C   UNL     1       0.887 -10.554  -5.509  0.00  0.00    +0.024 A 
ENDBRANCH  12  14
ENDBRANCH  10  12
ENDBRANCH   3  10
BRANCH   1  20
ATOM     20  O   UNL     1       0.028  -2.749  -2.385  0.00  0.00    -0.436 OA
BRANCH  20  24
ATOM     21  C   UNL     1       2.493  -0.952   1.425  0.00  0.00    +0.045 C 
ATOM     22  C   UNL     1       1.203  -1.179   0.679  0.00  0.00    -0.029 A 
ATOM     23  C   UNL     1       1.211  -1.865  -0.520  0.00  0.00    +0.051 A 
ATOM     24  C   UNL     1       0.023  -2.075  -1.206  0.00  0.00    +0.131 A 
ATOM     25  C   UNL     1      -1.171  -1.595  -0.685  0.00  0.00    +0.048 A 
ATOM     26  C   UNL     1      -1.174  -0.910   0.514  0.00  0.00    +0.024 A 
ATOM     27  C   UNL     1       0.011  -0.706   1.199  0.00  0.00    +0.044 A 
ATOM     28 CL   UNL     1       0.004   0.149   2.710  0.00  0.00    -0.083 Cl
ENDBRANCH  20  24
ENDBRANCH   1  20
TORSDOF 6
