REMARK  Name = ZINC15958025
REMARK  4 active torsions:
REMARK  status: ('A' for Active; 'I' for Inactive)
REMARK    1  A    between atoms: C_1  and  C_2
REMARK    2  A    between atoms: C_2  and  C_4
REMARK    3  A    between atoms: C_2  and  O_35
REMARK    4  A    between atoms: N_12  and  C_15
REMARK                            x       y       z     vdW  Elec       q    Type
REMARK                         _______ _______ _______ _____ _____    ______ ____
ROOT
ATOM      1  C   UNL     1       0.877  -0.685  -0.965  0.00  0.00    +0.096 C 
ATOM      2  C   UNL     1       0.789  -2.189  -1.298  0.00  0.00    +0.110 C 
ATOM      3  C   UNL     1       0.443  -2.244  -2.812  0.00  0.00    +0.123 C 
ATOM      4  C   UNL     1      -0.936  -2.865  -2.831  0.00  0.00    +0.233 C 
ATOM      5  O   UNL     1      -1.585  -3.099  -3.828  0.00  0.00    -0.274 OA
ATOM      6  N   UNL     1      -1.327  -3.119  -1.577  0.00  0.00    -0.210 N 
ATOM      7  C   UNL     1      -0.429  -2.780  -0.624  0.00  0.00    +0.232 C 
ATOM      8  O   UNL     1      -0.569  -2.920   0.572  0.00  0.00    -0.274 OA
ATOM      9  C   UNL     1       0.365  -0.773  -3.243  0.00  0.00    +0.136 C 
ATOM     10  N   UNL     1       0.060  -0.011  -2.009  0.00  0.00    -0.293 NA
ATOM     11  C   UNL     1       1.644  -0.323  -3.890  0.00  0.00    +0.003 A 
ATOM     12  C   UNL     1       2.953  -0.263  -3.466  0.00  0.00    +0.008 A 
ATOM     13  C   UNL     1       3.935   0.213  -4.315  0.00  0.00    +0.000 A 
ATOM     14  C   UNL     1       3.599   0.630  -5.590  0.00  0.00    +0.002 A 
ATOM     15  C   UNL     1       2.290   0.573  -6.020  0.00  0.00    +0.023 A 
ATOM     16  C   UNL     1       1.294   0.095  -5.171  0.00  0.00    +0.039 A 
ATOM     17  N   UNL     1      -0.080  -0.056  -5.370  0.00  0.00    -0.283 N 
ATOM     18  C   UNL     1      -0.698  -0.560  -4.284  0.00  0.00    +0.243 C 
ATOM     19  O   UNL     1      -1.882  -0.795  -4.169  0.00  0.00    -0.273 OA
ATOM     20  H   UNL     1      -0.922  -0.052  -1.782  0.00  0.00    +0.124 HD
ATOM     21  H   UNL     1      -0.536   0.175  -6.194  0.00  0.00    +0.155 HD
ENDROOT
BRANCH   6  22
ATOM     22  C   UNL     1      -2.569  -3.696  -1.272  0.00  0.00    +0.048 A 
ATOM     23  C   UNL     1      -2.830  -5.011  -1.631  0.00  0.00    +0.028 A 
ATOM     24  C   UNL     1      -4.052  -5.582  -1.331  0.00  0.00    +0.051 A 
ATOM     25  C   UNL     1      -5.020  -4.843  -0.670  0.00  0.00    +0.166 A 
ATOM     26  C   UNL     1      -4.762  -3.523  -0.309  0.00  0.00    +0.168 A 
ATOM     27  C   UNL     1      -3.534  -2.954  -0.606  0.00  0.00    +0.073 A 
ATOM     28  O   UNL     1      -5.862  -3.020   0.322  0.00  0.00    -0.453 OA
ATOM     29  C   UNL     1      -6.942  -3.910  -0.018  0.00  0.00    +0.466 C 
ATOM     30  O   UNL     1      -6.284  -5.167  -0.265  0.00  0.00    -0.453 OA
ENDBRANCH   6  22
BRANCH   1  32
ATOM     31  C   UNL     1       0.359   1.087   0.718  0.00  0.00    +0.039 C 
ATOM     32  C   UNL     1       0.296  -0.413   0.424  0.00  0.00    +0.129 C 
BRANCH  32  33
ATOM     33  O   UNL     1       1.054  -1.123   1.405  0.00  0.00    -0.390 OA
ATOM     34  H   UNL     1       0.741  -0.996   2.312  0.00  0.00    +0.210 HD
ENDBRANCH  32  33
ENDBRANCH   1  32
TORSDOF 3
