REMARK  Name = ZINC51001886
REMARK  8 active torsions:
REMARK  status: ('A' for Active; 'I' for Inactive)
REMARK    1  A    between atoms: C_1  and  C_2
REMARK    2  A    between atoms: C_2  and  C_3
REMARK    3  A    between atoms: C_2  and  C_4
REMARK    4  A    between atoms: C_2  and  C_5
REMARK    5  A    between atoms: C_7  and  C_14
REMARK    6  A    between atoms: N_9  and  C_10
REMARK    7  A    between atoms: C_10  and  C_11
REMARK    8  A    between atoms: N_17  and  C_19
REMARK                            x       y       z     vdW  Elec       q    Type
REMARK                         _______ _______ _______ _____ _____    ______ ____
ROOT
ATOM      1  C   UNL     1       0.590  -0.470  -1.306  0.00  0.00    +0.083 C 
ATOM      2  N   UNL     1      -0.073  -1.143  -2.178  0.00  0.00    -0.362 N 
ATOM      3  C   UNL     1       0.834  -1.474  -3.288  0.00  0.00    +0.175 C 
ATOM      4  C   UNL     1       2.155  -0.854  -2.875  0.00  0.00    +0.101 C 
ATOM      5  N   UNL     1       1.894  -0.263  -1.657  0.00  0.00    -0.266 N 
ATOM      6  N   UNL     1       3.274  -0.871  -3.522  0.00  0.00    -0.388 N 
ATOM      7  H   UNL     1       3.331  -1.320  -4.380  0.00  0.00    +0.157 HD
ATOM      8  H   UNL     1       4.056  -0.434  -3.150  0.00  0.00    +0.157 HD
ATOM      9  H   UNL     1      -1.009  -1.389  -2.116  0.00  0.00    +0.162 HD
ENDROOT
BRANCH   3  10
ATOM     10  C   UNL     1       0.972  -2.968  -3.430  0.00  0.00    +0.019 A 
ATOM     11  C   UNL     1       1.037  -3.892  -2.382  0.00  0.00    +0.140 A 
ATOM     12  N   UNL     1       1.155  -5.088  -2.899  0.00  0.00    -0.180 NA
ATOM     13  N   UNL     1       1.169  -4.963  -4.294  0.00  0.00    -0.274 N 
ATOM     14  C   UNL     1       1.050  -3.653  -4.595  0.00  0.00    +0.114 A 
ATOM     15  C   UNL     1       1.286  -6.061  -5.256  0.00  0.00    +0.172 C 
ENDBRANCH   3  10
BRANCH   1  17
ATOM     16  C   UNL     1      -0.063   1.574  -0.063  0.00  0.00    +0.018 C 
ATOM     17  C   UNL     1      -0.013   0.045  -0.025  0.00  0.00    +0.016 C 
ATOM     18  C   UNL     1       0.842  -0.408   1.161  0.00  0.00    +0.018 C 
ATOM     19  C   UNL     1      -1.432  -0.507   0.129  0.00  0.00    +0.018 C 
ENDBRANCH   1  17
BRANCH   5  20
ATOM     20  C   UNL     1       2.873   0.475  -0.855  0.00  0.00    +0.201 C 
BRANCH  20  21
ATOM     21  C   UNL     1       3.665  -0.472  -0.054  0.00  0.00    -0.086 C 
ATOM     22  C   UNL     1       4.296  -1.228   0.585  0.00  0.00    +0.005 C 
ENDBRANCH  20  21
ENDBRANCH   5  20
TORSDOF 4
