REMARK  Name = ZINC39694366
REMARK  10 active torsions:
REMARK  status: ('A' for Active; 'I' for Inactive)
REMARK    1  A    between atoms: C_1  and  C_2
REMARK    2  A    between atoms: C_4  and  C_11
REMARK    3  A    between atoms: N_5  and  C_7
REMARK    4  A    between atoms: C_7  and  C_8
REMARK    5  A    between atoms: C_7  and  C_9
REMARK    6  A    between atoms: C_7  and  C_10
REMARK    7  A    between atoms: C_15  and  C_24
REMARK    8  A    between atoms: N_26  and  C_27
REMARK    9  A    between atoms: C_27  and  C_28
REMARK   10  A    between atoms: C_33  and  N_34
REMARK                            x       y       z     vdW  Elec       q    Type
REMARK                         _______ _______ _______ _____ _____    ______ ____
ROOT
ATOM      1  C   UNL     1      -0.549  -3.551  -1.988  0.00  0.00    +0.265 C 
ATOM      2  O   UNL     1      -0.973  -3.564  -3.128  0.00  0.00    -0.268 OA
ATOM      3  N   UNL     1      -0.669  -4.646  -1.212  0.00  0.00    -0.295 N 
ATOM      4  C   UNL     1      -0.342  -4.781   0.227  0.00  0.00    +0.121 C 
ATOM      5  C   UNL     1      -1.468  -5.668   0.802  0.00  0.00    +0.100 C 
ATOM      6  C   UNL     1      -1.999  -6.460  -0.404  0.00  0.00    -0.004 C 
ATOM      7  C   UNL     1      -1.165  -5.987  -1.604  0.00  0.00    +0.115 C 
ATOM      8  C   UNL     1      -3.473  -6.144  -0.637  0.00  0.00    -0.010 C 
ATOM      9  C   UNL     1      -3.993  -6.985  -1.806  0.00  0.00    -0.082 C 
ATOM     10  N   UNL     1      -3.820  -8.411  -1.499  0.00  0.00    +0.379 N 
ATOM     11  C   UNL     1      -2.392  -8.725  -1.369  0.00  0.00    -0.082 C 
ATOM     12  C   UNL     1      -1.805  -7.957  -0.182  0.00  0.00    -0.010 C 
ATOM     13  H   UNL     1      -4.291  -8.627  -0.634  0.00  0.00    -0.086 HD
ATOM     14  H   UNL     1      -4.218  -8.964  -2.243  0.00  0.00    -0.086 HD
ENDROOT
BRANCH   1  18
ATOM     15  C   UNL     1       1.956  -0.243   0.927  0.00  0.00    +0.067 C 
ATOM     16  C   UNL     1       1.184  -0.884  -0.197  0.00  0.00    +0.061 A 
ATOM     17  C   UNL     1       0.753  -2.212  -0.246  0.00  0.00    +0.057 A 
ATOM     18  C   UNL     1       0.093  -2.339  -1.456  0.00  0.00    +0.124 A 
ATOM     19  N   UNL     1       0.159  -1.114  -2.057  0.00  0.00    -0.254 N 
ATOM     20  N   UNL     1       0.794  -0.295  -1.298  0.00  0.00    -0.175 NA
BRANCH  19  21
ATOM     21  C   UNL     1      -0.411  -0.784  -3.365  0.00  0.00    +0.056 C 
ATOM     22  C   UNL     1      -1.901  -1.131  -3.374  0.00  0.00    +0.036 C 
ATOM     23  C   UNL     1      -0.235   0.712  -3.636  0.00  0.00    +0.036 C 
ATOM     24  C   UNL     1       0.306  -1.587  -4.452  0.00  0.00    +0.036 C 
ENDBRANCH  19  21
ENDBRANCH   1  18
BRANCH   5  25
ATOM     25  C   UNL     1      -0.916  -6.605   1.846  0.00  0.00    +0.218 C 
ATOM     26  O   UNL     1       0.141  -7.169   1.656  0.00  0.00    -0.275 OA
ATOM     27  N   UNL     1      -1.597  -6.817   2.989  0.00  0.00    -0.311 N 
ATOM     28  H   UNL     1      -2.478  -6.429   3.108  0.00  0.00    +0.149 HD
BRANCH  27  29
ATOM     29  C   UNL     1      -1.006  -7.633   4.053  0.00  0.00    +0.141 C 
BRANCH  29  30
ATOM     30  C   UNL     1      -1.964  -7.713   5.214  0.00  0.00    -0.009 A 
ATOM     31  C   UNL     1      -1.783  -6.901   6.317  0.00  0.00    +0.007 A 
ATOM     32  C   UNL     1      -2.661  -6.974   7.383  0.00  0.00    +0.000 A 
ATOM     33  C   UNL     1      -3.722  -7.861   7.349  0.00  0.00    +0.002 A 
ATOM     34  C   UNL     1      -3.908  -8.675   6.250  0.00  0.00    +0.023 A 
ATOM     35  C   UNL     1      -3.032  -8.600   5.175  0.00  0.00    +0.035 A 
BRANCH  35  36
ATOM     36  N   UNL     1      -3.220  -9.419   4.059  0.00  0.00    -0.325 N 
ATOM     37  C   UNL     1      -2.608 -10.756   3.988  0.00  0.00    +0.133 C 
ATOM     38  C   UNL     1      -3.697 -11.767   3.611  0.00  0.00    +0.178 C 
ATOM     39  O   UNL     1      -4.372 -11.314   2.435  0.00  0.00    -0.377 OA
ATOM     40  C   UNL     1      -5.057 -10.069   2.595  0.00  0.00    +0.178 C 
ATOM     41  C   UNL     1      -4.042  -8.974   2.923  0.00  0.00    +0.133 C 
ENDBRANCH  35  36
ENDBRANCH  29  30
ENDBRANCH  27  29
ENDBRANCH   5  25
TORSDOF 6
