REMARK  Name = ZINC53373660
REMARK  5 active torsions:
REMARK  status: ('A' for Active; 'I' for Inactive)
REMARK    1  A    between atoms: C_4  and  C_7
REMARK    2  A    between atoms: C_7  and  C_9
REMARK    3  A    between atoms: C_7  and  N_22
REMARK    4  A    between atoms: C_9  and  N_10
REMARK    5  A    between atoms: C_11  and  C_13
REMARK                            x       y       z     vdW  Elec       q    Type
REMARK                         _______ _______ _______ _____ _____    ______ ____
ROOT
ATOM      1  N   UNL     1       5.308  -1.902   1.288  0.00  0.00    -0.316 N 
ATOM      2  C   UNL     1       5.698  -2.557   2.400  0.00  0.00    +0.216 C 
ATOM      3  O   UNL     1       5.156  -2.327   3.460  0.00  0.00    -0.276 OA
ATOM      4  H   UNL     1       5.741  -2.085   0.440  0.00  0.00    +0.149 HD
ENDROOT
BRANCH   2   5
ATOM      5  C   UNL     1       6.807  -3.574   2.325  0.00  0.00    +0.078 C 
ATOM      6  C   UNL     1       6.410  -4.690   1.356  0.00  0.00    +0.032 C 
ATOM      7  C   UNL     1       7.554  -5.704   1.256  0.00  0.00    +0.110 C 
ATOM      8  N   UNL     1       7.893  -6.170   2.608  0.00  0.00    -0.286 N 
ATOM      9  C   UNL     1       8.203  -5.173   3.642  0.00  0.00    +0.110 C 
ATOM     10  C   UNL     1       7.051  -4.165   3.715  0.00  0.00    +0.032 C 
ATOM     11  C   UNL     1       7.918  -7.487   2.894  0.00  0.00    +0.300 C 
ATOM     12  O   UNL     1       7.570  -8.298   2.058  0.00  0.00    -0.253 OA
ATOM     13  N   UNL     1       8.331  -7.905   4.108  0.00  0.00    -0.313 N 
ATOM     14  H   UNL     1       8.540  -7.257   4.798  0.00  0.00    +0.146 HD
ATOM     15  H   UNL     1       8.418  -8.854   4.290  0.00  0.00    +0.146 HD
ENDBRANCH   2   5
BRANCH   1  16
ATOM     16  C   UNL     1       4.230  -0.913   1.361  0.00  0.00    +0.093 C 
BRANCH  16  17
ATOM     17  C   UNL     1       3.902  -0.411  -0.047  0.00  0.00    -0.020 C 
BRANCH  17  21
ATOM     18  C   UNL     1       7.250   1.727  -1.615  0.00  0.00    +0.000 A 
ATOM     19  C   UNL     1       7.030   0.416  -1.992  0.00  0.00    +0.000 A 
ATOM     20  C   UNL     1       5.946  -0.277  -1.484  0.00  0.00    +0.002 A 
ATOM     21  C   UNL     1       5.083   0.343  -0.600  0.00  0.00    -0.059 A 
ATOM     22  C   UNL     1       5.305   1.654  -0.222  0.00  0.00    +0.002 A 
ATOM     23  C   UNL     1       6.388   2.347  -0.731  0.00  0.00    +0.000 A 
ENDBRANCH  17  21
BRANCH  17  24
ATOM     24  N   UNL     1       2.735   0.480   0.010  0.00  0.00    +0.385 N 
ATOM     25  C   UNL     1       1.595  -0.231   0.628  0.00  0.00    -0.078 C 
ATOM     26  C   UNL     1       0.349   0.283  -0.134  0.00  0.00    -0.020 C 
ATOM     27  C   UNL     1       0.898   0.419  -1.578  0.00  0.00    -0.020 C 
ATOM     28  C   UNL     1       2.352   0.884  -1.355  0.00  0.00    -0.078 C 
ATOM     29  H   UNL     1       2.959   1.298   0.556  0.00  0.00    -0.081 HD
ENDBRANCH  17  24
ENDBRANCH  16  17
ENDBRANCH   1  16
TORSDOF 5
