REMARK  Name = ZINC56806954
REMARK  5 active torsions:
REMARK  status: ('A' for Active; 'I' for Inactive)
REMARK    1  A    between atoms: C_4  and  C_7
REMARK    2  A    between atoms: C_7  and  C_9
REMARK    3  A    between atoms: C_7  and  O_32
REMARK    4  A    between atoms: N_17  and  C_18
REMARK    5  A    between atoms: N_27  and  C_29
REMARK                            x       y       z     vdW  Elec       q    Type
REMARK                         _______ _______ _______ _____ _____    ______ ____
ROOT
ATOM      1  C   UNL     1       4.075  -1.060  -1.481  0.00  0.00    +0.025 C 
ATOM      2  C   UNL     1       2.985  -1.945  -2.088  0.00  0.00    +0.025 C 
ATOM      3  C   UNL     1       3.345  -2.265  -3.543  0.00  0.00    +0.109 C 
ATOM      4  N   UNL     1       4.690  -2.855  -3.578  0.00  0.00    -0.286 N 
ATOM      5  C   UNL     1       5.797  -2.128  -2.941  0.00  0.00    +0.109 C 
ATOM      6  C   UNL     1       5.410  -1.809  -1.494  0.00  0.00    +0.025 C 
ATOM      7  C   UNL     1       4.905  -4.041  -4.182  0.00  0.00    +0.302 C 
ATOM      8  O   UNL     1       3.967  -4.678  -4.621  0.00  0.00    -0.253 OA
ATOM      9  N   UNL     1       6.159  -4.520  -4.299  0.00  0.00    -0.296 N 
ATOM     10  H   UNL     1       6.899  -4.048  -3.886  0.00  0.00    +0.151 HD
ENDROOT
BRANCH   9  11
ATOM     11  C   UNL     1       6.404  -5.751  -5.049  0.00  0.00    +0.077 C 
ATOM     12  C   UNL     1       6.589  -5.440  -6.536  0.00  0.00    -0.007 C 
ATOM     13  C   UNL     1       6.728  -6.745  -7.311  0.00  0.00    +0.003 C 
ATOM     14  C   UNL     1       7.857  -7.620  -6.791  0.00  0.00    +0.001 C 
ATOM     15  C   UNL     1       7.861  -7.760  -5.277  0.00  0.00    +0.003 C 
ATOM     16  C   UNL     1       7.689  -6.425  -4.561  0.00  0.00    -0.007 C 
ATOM     17  C   UNL     1       8.882  -5.509  -4.785  0.00  0.00    -0.073 C 
ATOM     18  N   UNL     1       9.024  -5.072  -6.169  0.00  0.00    +0.382 N 
ATOM     19  C   UNL     1       7.794  -4.535  -6.740  0.00  0.00    -0.073 C 
ATOM     20  H   UNL     1       9.376  -5.825  -6.740  0.00  0.00    -0.081 HD
BRANCH  18  21
ATOM     21  C   UNL     1      10.043  -4.014  -6.209  0.00  0.00    -0.069 C 
ATOM     22  C   UNL     1      11.181  -4.168  -7.220  0.00  0.00    -0.017 C 
ATOM     23  C   UNL     1      11.451  -4.372  -5.728  0.00  0.00    -0.017 C 
ENDBRANCH  18  21
ENDBRANCH   9  11
BRANCH   1  24
ATOM     24  C   UNL     1       3.702  -0.709  -0.039  0.00  0.00    +0.148 C 
BRANCH  24  28
ATOM     25  C   UNL     1      -0.022   1.383  -0.003  0.00  0.00    +0.000 A 
ATOM     26  C   UNL     1       1.167   2.089  -0.006  0.00  0.00    +0.000 A 
ATOM     27  C   UNL     1       2.372   1.412  -0.017  0.00  0.00    +0.006 A 
ATOM     28  C   UNL     1       2.388   0.029  -0.026  0.00  0.00    -0.019 A 
ATOM     29  C   UNL     1       1.200  -0.676  -0.022  0.00  0.00    +0.006 A 
ATOM     30  C   UNL     1      -0.006   0.001  -0.012  0.00  0.00    +0.000 A 
ENDBRANCH  24  28
BRANCH  24  31
ATOM     31  O   UNL     1       3.582  -1.909   0.728  0.00  0.00    -0.387 OA
ATOM     32  H   UNL     1       2.909  -2.519   0.399  0.00  0.00    +0.210 HD
ENDBRANCH  24  31
ENDBRANCH   1  24
TORSDOF 5
