REMARK  Name = ZINC37063947
REMARK  5 active torsions:
REMARK  status: ('A' for Active; 'I' for Inactive)
REMARK    1  A    between atoms: C_1  and  C_2
REMARK    2  A    between atoms: C_7  and  N_8
REMARK    3  A    between atoms: N_8  and  S_9
REMARK    4  A    between atoms: S_9  and  C_12
REMARK    5  A    between atoms: C_13  and  N_20
REMARK                            x       y       z     vdW  Elec       q    Type
REMARK                         _______ _______ _______ _____ _____    ______ ____
ROOT
ATOM      1  S   UNL     1       1.212  -1.438   4.687  0.00  0.00    +0.075 S 
ATOM      2  O   UNL     1       1.353  -1.023   6.038  0.00  0.00    -0.150 OA
ATOM      3  O   UNL     1       0.952  -2.788   4.328  0.00  0.00    -0.150 OA
ENDROOT
BRANCH   1   4
ATOM      4  C   UNL     1       2.698  -0.975   3.860  0.00  0.00    +0.143 A 
ATOM      5  C   UNL     1       3.104  -1.662   2.723  0.00  0.00    +0.054 A 
ATOM      6  C   UNL     1       4.275  -1.293   2.074  0.00  0.00    +0.040 A 
ATOM      7  C   UNL     1       5.033  -0.245   2.560  0.00  0.00    +0.021 A 
ATOM      8  C   UNL     1       4.626   0.437   3.693  0.00  0.00    +0.032 A 
ATOM      9  C   UNL     1       3.457   0.076   4.339  0.00  0.00    +0.047 A 
ATOM     10 BR   UNL     1       2.901   1.017   5.882  0.00  0.00    -0.048 Br
ATOM     11 BR   UNL     1       6.628   0.257   1.677  0.00  0.00    -0.050 Br
BRANCH   5  12
ATOM     12  N   UNL     1       2.336  -2.721   2.234  0.00  0.00    -0.356 N 
ATOM     13  H   UNL     1       1.394  -2.781   2.459  0.00  0.00    +0.142 HD
ATOM     14  H   UNL     1       2.744  -3.396   1.670  0.00  0.00    +0.142 HD
ENDBRANCH   5  12
ENDBRANCH   1   4
BRANCH   1  15
ATOM     15  N   UNL     1      -0.012  -0.530   4.039  0.00  0.00    -0.216 N 
ATOM     16  H   UNL     1      -0.510   0.084   4.600  0.00  0.00    +0.174 HD
BRANCH  15  23
ATOM     17  C   UNL     1      -2.118  -2.295   3.302  0.00  0.00    +0.046 C 
ATOM     18  C   UNL     1      -1.349  -1.500   2.278  0.00  0.00    -0.027 A 
ATOM     19  C   UNL     1      -1.662  -1.612   0.938  0.00  0.00    +0.025 A 
ATOM     20  C   UNL     1      -0.957  -0.882  -0.003  0.00  0.00    +0.041 A 
ATOM     21  C   UNL     1       0.065  -0.038   0.397  0.00  0.00    +0.022 A 
ATOM     22  C   UNL     1       0.383   0.077   1.736  0.00  0.00    +0.026 A 
ATOM     23  C   UNL     1      -0.328  -0.650   2.683  0.00  0.00    +0.051 A 
ATOM     24 CL   UNL     1      -1.354  -1.025  -1.686  0.00  0.00    -0.084 Cl
ENDBRANCH  15  23
ENDBRANCH   1  15
TORSDOF 4
