REMARK  Name = ZINC59464797
REMARK  4 active torsions:
REMARK  status: ('A' for Active; 'I' for Inactive)
REMARK    1  A    between atoms: C_1  and  N_2
REMARK    2  A    between atoms: N_2  and  C_3
REMARK    3  A    between atoms: N_2  and  C_4
REMARK    4  A    between atoms: C_7  and  C_11
REMARK                            x       y       z     vdW  Elec       q    Type
REMARK                         _______ _______ _______ _____ _____    ______ ____
ROOT
ATOM      1  C   UNL     1      -4.870  -2.907   0.032  0.00  0.00    +0.190 C 
ATOM      2  N   UNL     1      -5.002  -3.727   1.284  0.00  0.00    -0.197 N 
ATOM      3  C   UNL     1      -6.087  -3.377   2.070  0.00  0.00    +0.100 C 
ATOM      4  C   UNL     1      -6.937  -2.391   1.733  0.00  0.00    +0.075 C 
ATOM      5  S   UNL     1      -6.307  -1.780   0.183  0.00  0.00    -0.101 S 
ATOM      6  S   UNL     1      -5.942  -4.526   3.442  0.00  0.00    -0.036 S 
ATOM      7  C   UNL     1      -4.479  -5.378   2.890  0.00  0.00    +0.175 C 
ATOM      8  N   UNL     1      -4.210  -4.779   1.776  0.00  0.00    -0.155 NA
ATOM      9  N   UNL     1      -3.798  -6.423   3.501  0.00  0.00    -0.336 N 
ATOM     10  H   UNL     1      -4.114  -6.780   4.345  0.00  0.00    +0.144 HD
ATOM     11  H   UNL     1      -3.005  -6.795   3.083  0.00  0.00    +0.144 HD
ENDROOT
BRANCH   1  15
ATOM     12  C   UNL     1      -1.198  -0.719   0.010  0.00  0.00    +0.043 A 
ATOM     13  C   UNL     1      -1.805  -1.074  -1.188  0.00  0.00    +0.024 A 
ATOM     14  C   UNL     1      -2.991  -1.781  -1.177  0.00  0.00    +0.008 A 
ATOM     15  C   UNL     1      -3.575  -2.136   0.025  0.00  0.00    -0.014 A 
ATOM     16  C   UNL     1      -2.975  -1.785   1.219  0.00  0.00    +0.023 A 
ATOM     17  C   UNL     1      -1.785  -1.082   1.216  0.00  0.00    +0.039 A 
ATOM     18 BR   UNL     1      -0.961  -0.608   2.850  0.00  0.00    -0.048 Br
BRANCH  12  20
ATOM     19  C   UNL     1      -0.018   1.461   0.010  0.00  0.00    +0.129 C 
ATOM     20  N   UNL     1       0.002  -0.004   0.002  0.00  0.00    -0.335 N 
ATOM     21  C   UNL     1       1.281  -0.719  -0.014  0.00  0.00    +0.129 C 
ENDBRANCH  12  20
ENDBRANCH   1  15
TORSDOF 2
