REMARK  Name = ZINC53923964
REMARK  3 active torsions:
REMARK  status: ('A' for Active; 'I' for Inactive)
REMARK    1  A    between atoms: C_4  and  O_22
REMARK    2  A    between atoms: C_6  and  C_9
REMARK    3  A    between atoms: C_9  and  N_10
REMARK                            x       y       z     vdW  Elec       q    Type
REMARK                         _______ _______ _______ _____ _____    ______ ____
ROOT
ATOM      1  N   UNL     1      -0.592  -2.550   1.484  0.00  0.00    -0.294 NA
ATOM      2  C   UNL     1      -1.464  -2.325   0.320  0.00  0.00    +0.113 C 
ATOM      3  C   UNL     1      -2.875  -2.825   0.636  0.00  0.00    +0.175 C 
ATOM      4  O   UNL     1      -2.820  -4.203   1.018  0.00  0.00    -0.374 OA
ATOM      5  C   UNL     1      -1.984  -4.445   2.151  0.00  0.00    +0.135 C 
ATOM      6  C   UNL     1      -0.562  -3.976   1.835  0.00  0.00    +0.085 C 
ATOM      7  C   UNL     1       0.327  -4.198   3.059  0.00  0.00    +0.021 C 
ATOM      8  C   UNL     1       0.351  -5.690   3.401  0.00  0.00    +0.002 C 
ATOM      9  C   UNL     1      -1.068  -6.173   3.700  0.00  0.00    +0.003 C 
ATOM     10  C   UNL     1      -1.960  -5.939   2.478  0.00  0.00    +0.033 C 
ENDROOT
BRANCH   1  11
ATOM     11  C   UNL     1       0.763  -2.041   1.233  0.00  0.00    +0.091 C 
BRANCH  11  16
ATOM     12  C   UNL     1       2.100   1.550   0.856  0.00  0.00    +0.000 C 
ATOM     13  C   UNL     1       1.754   2.044   2.262  0.00  0.00    +0.003 C 
ATOM     14  C   UNL     1       0.377   1.513   2.665  0.00  0.00    +0.031 C 
ATOM     15  C   UNL     1       0.397  -0.017   2.652  0.00  0.00    +0.119 C 
ATOM     16  C   UNL     1       0.743  -0.511   1.246  0.00  0.00    +0.032 C 
ATOM     17  C   UNL     1       2.120   0.020   0.843  0.00  0.00    +0.007 C 
BRANCH  15  18
ATOM     18  O   UNL     1      -0.889  -0.513   3.028  0.00  0.00    -0.391 OA
ATOM     19  H   UNL     1      -1.174  -0.239   3.911  0.00  0.00    +0.210 HD
ENDBRANCH  15  18
ENDBRANCH  11  16
ENDBRANCH   1  11
TORSDOF 3
