REMARK  Name = ZINC48606687
REMARK  3 active torsions:
REMARK  status: ('A' for Active; 'I' for Inactive)
REMARK    1  A    between atoms: C_6  and  C_7
REMARK    2  A    between atoms: C_12  and  C_15
REMARK    3  A    between atoms: C_15  and  C_16
REMARK                            x       y       z     vdW  Elec       q    Type
REMARK                         _______ _______ _______ _____ _____    ______ ____
ROOT
ATOM      1  C   UNL     1      -1.169  -0.887   0.009  0.00  0.00    +0.263 C 
ATOM      2  O   UNL     1      -2.288  -0.408   0.025  0.00  0.00    -0.268 OA
ATOM      3  N   UNL     1      -1.009  -2.220  -0.102  0.00  0.00    -0.296 N 
ATOM      4  C   UNL     1       0.335  -2.814  -0.114  0.00  0.00    +0.108 C 
ATOM      5  C   UNL     1       0.474  -3.697  -1.358  0.00  0.00    +0.023 C 
ATOM      6  C   UNL     1      -0.665  -4.719  -1.382  0.00  0.00    +0.001 C 
ATOM      7  C   UNL     1      -2.008  -3.988  -1.456  0.00  0.00    +0.023 C 
ATOM      8  C   UNL     1      -2.174  -3.109  -0.207  0.00  0.00    +0.108 C 
ENDROOT
BRANCH   1  14
ATOM      9  C   UNL     1       0.087   1.293  -0.328  0.00  0.00    +0.052 A 
ATOM     10  C   UNL     1       1.379   1.743  -0.035  0.00  0.00    +0.059 A 
ATOM     11  C   UNL     1       2.048   0.726   0.562  0.00  0.00    +0.103 A 
ATOM     12  N   UNL     1       1.223  -0.346   0.655  0.00  0.00    -0.356 N 
ATOM     13  H   UNL     1       1.453  -1.205   1.043  0.00  0.00    +0.166 HD
ATOM     14  C   UNL     1       0.004  -0.013   0.109  0.00  0.00    +0.103 A 
ATOM     15 CL   UNL     1       2.013   3.322  -0.376  0.00  0.00    -0.082 Cl
ENDBRANCH   1  14
BRANCH   6  16
ATOM     16  C   UNL     1      -0.511  -5.625  -2.605  0.00  0.00    +0.099 C 
BRANCH  16  17
ATOM     17  C   UNL     1      -1.559  -6.707  -2.565  0.00  0.00    +0.211 C 
ATOM     18  O   UNL     1      -2.351  -6.750  -1.647  0.00  0.00    -0.276 OA
ATOM     19  N   UNL     1      -1.615  -7.628  -3.547  0.00  0.00    -0.329 N 
ATOM     20  H   UNL     1      -0.982  -7.594  -4.281  0.00  0.00    +0.145 HD
ATOM     21  H   UNL     1      -2.290  -8.324  -3.521  0.00  0.00    +0.145 HD
ENDBRANCH  16  17
ENDBRANCH   6  16
TORSDOF 3
