REMARK  Name = ZINC58251493
REMARK  9 active torsions:
REMARK  status: ('A' for Active; 'I' for Inactive)
REMARK    1  A    between atoms: C_1  and  N_2
REMARK    2  A    between atoms: N_2  and  C_3
REMARK    3  A    between atoms: N_2  and  C_4
REMARK    4  A    between atoms: C_4  and  C_6
REMARK    5  A    between atoms: C_4  and  C_26
REMARK    6  A    between atoms: C_6  and  N_7
REMARK    7  A    between atoms: N_10  and  C_11
REMARK    8  A    between atoms: C_14  and  N_21
REMARK    9  A    between atoms: C_16  and  C_17
REMARK                            x       y       z     vdW  Elec       q    Type
REMARK                         _______ _______ _______ _____ _____    ______ ____
ROOT
ATOM      1  N   UNL     1      -1.729   1.313  -1.387  0.00  0.00    -0.300 N 
ATOM      2  C   UNL     1      -2.107   1.932  -2.523  0.00  0.00    +0.304 C 
ATOM      3  O   UNL     1      -2.709   1.315  -3.380  0.00  0.00    -0.253 OA
ATOM      4  N   UNL     1      -1.817   3.235  -2.708  0.00  0.00    -0.269 N 
ATOM      5  H   UNL     1      -1.249   1.805  -0.702  0.00  0.00    +0.150 HD
ATOM      6  H   UNL     1      -1.276   3.709  -2.057  0.00  0.00    +0.156 HD
ENDROOT
BRANCH   4   7
ATOM      7  C   UNL     1      -2.297   3.905  -3.840  0.00  0.00    +0.047 A 
ATOM      8  C   UNL     1      -3.528   3.559  -4.382  0.00  0.00    +0.026 A 
ATOM      9  C   UNL     1      -4.002   4.220  -5.497  0.00  0.00    +0.029 A 
ATOM     10  C   UNL     1      -3.246   5.230  -6.079  0.00  0.00    +0.066 A 
ATOM     11  C   UNL     1      -2.015   5.576  -5.537  0.00  0.00    +0.042 A 
ATOM     12  C   UNL     1      -1.545   4.919  -4.418  0.00  0.00    +0.078 A 
BRANCH  10  13
ATOM     13  N   UNL     1      -3.727   5.901  -7.213  0.00  0.00    -0.240 N 
ATOM     14  C   UNL     1      -4.944   5.736  -7.779  0.00  0.00    +0.114 A 
ATOM     15  C   UNL     1      -5.016   6.563  -8.848  0.00  0.00    +0.041 A 
ATOM     16  C   UNL     1      -3.805   7.257  -8.938  0.00  0.00    +0.135 A 
ATOM     17  N   UNL     1      -3.034   6.866  -7.955  0.00  0.00    -0.175 NA
ENDBRANCH  10  13
BRANCH  12  18
ATOM     18  C   UNL     1      -0.212   5.299  -3.826  0.00  0.00    +0.419 C 
ATOM     19  F   UNL     1       0.352   6.337  -4.576  0.00  0.00    -0.166 F 
ATOM     20  F   UNL     1      -0.391   5.722  -2.505  0.00  0.00    -0.166 F 
ATOM     21  F   UNL     1       0.641   4.191  -3.849  0.00  0.00    -0.166 F 
ENDBRANCH  12  18
ENDBRANCH   4   7
BRANCH   1  22
ATOM     22  C   UNL     1      -2.044  -0.104  -1.185  0.00  0.00    +0.098 C 
BRANCH  22  23
ATOM     23  C   UNL     1      -1.403  -0.589   0.116  0.00  0.00    +0.016 C 
BRANCH  23  24
ATOM     24  C   UNL     1       0.098  -0.528  -0.010  0.00  0.00    +0.093 A 
ATOM     25  C   UNL     1       0.907  -1.567  -0.284  0.00  0.00    +0.043 A 
ATOM     26  C   UNL     1       2.228  -1.062  -0.308  0.00  0.00    +0.041 A 
ATOM     27  C   UNL     1       2.146   0.256  -0.048  0.00  0.00    +0.195 A 
ATOM     28  O   UNL     1       0.853   0.575   0.126  0.00  0.00    -0.469 OA
ENDBRANCH  23  24
BRANCH  23  30
ATOM     29  C   UNL     1      -3.286   0.132   1.415  0.00  0.00    -0.096 C 
ATOM     30  N   UNL     1      -1.836   0.271   1.226  0.00  0.00    +0.384 N 
ATOM     31  C   UNL     1      -1.142  -0.131   2.456  0.00  0.00    -0.096 C 
ATOM     32  H   UNL     1      -1.615   1.232   1.013  0.00  0.00    -0.082 HD
ENDBRANCH  23  30
ENDBRANCH  22  23
ENDBRANCH   1  22
TORSDOF 7
