REMARK  Name = ZINC52004039
REMARK  4 active torsions:
REMARK  status: ('A' for Active; 'I' for Inactive)
REMARK    1  A    between atoms: C_4  and  S_7
REMARK    2  A    between atoms: S_7  and  N_10
REMARK    3  A    between atoms: N_10  and  C_11
REMARK    4  A    between atoms: C_17  and  O_19
REMARK                            x       y       z     vdW  Elec       q    Type
REMARK                         _______ _______ _______ _____ _____    ______ ____
ROOT
ATOM      1  N   UNL     1       3.173  -2.560  -0.043  0.00  0.00    -0.184 NA
ATOM      2  H   UNL     1       3.608  -2.962  -0.811  0.00  0.00    +0.148 HD
ENDROOT
BRANCH   1   3
ATOM      3  C   UNL     1       3.972  -2.115   1.101  0.00  0.00    +0.105 C 
ATOM      4  C   UNL     1       4.216  -3.296   2.043  0.00  0.00    +0.023 C 
ATOM      5  C   UNL     1       5.050  -2.832   3.238  0.00  0.00    +0.002 C 
ATOM      6  C   UNL     1       6.392  -2.288   2.744  0.00  0.00    +0.003 C 
ATOM      7  C   UNL     1       6.148  -1.107   1.802  0.00  0.00    +0.033 C 
ATOM      8  C   UNL     1       5.314  -1.572   0.607  0.00  0.00    +0.133 C 
BRANCH   8   9
ATOM      9  O   UNL     1       5.086  -0.468  -0.273  0.00  0.00    -0.390 OA
ATOM     10  H   UNL     1       5.895  -0.073  -0.625  0.00  0.00    +0.210 HD
ENDBRANCH   8   9
ENDBRANCH   1   3
BRANCH   1  11
ATOM     11  S   UNL     1       1.527  -2.376  -0.026  0.00  0.00    +0.066 S 
ATOM     12  O   UNL     1       1.075  -2.885   1.220  0.00  0.00    -0.153 OA
ATOM     13  O   UNL     1       1.050  -2.870  -1.270  0.00  0.00    -0.153 OA
BRANCH  11  17
ATOM     14  C   UNL     1      -0.017   1.379   0.010  0.00  0.00    +0.025 A 
ATOM     15  C   UNL     1       1.160   2.052   0.002  0.00  0.00    +0.048 A 
ATOM     16  S   UNL     1       2.348   0.720  -0.017  0.00  0.00    -0.076 S 
ATOM     17  C   UNL     1       1.197  -0.645  -0.013  0.00  0.00    +0.156 A 
ATOM     18  C   UNL     1       0.002  -0.004   0.002  0.00  0.00    +0.051 A 
ATOM     19 BR   UNL     1      -1.614  -0.986   0.013  0.00  0.00    -0.048 Br
ENDBRANCH  11  17
ENDBRANCH   1  11
TORSDOF 4
