REMARK  Name = ZINC20267253
REMARK  2 active torsions:
REMARK  status: ('A' for Active; 'I' for Inactive)
REMARK    1  A    between atoms: C_10  and  C_12
REMARK    2  A    between atoms: N_18  and  C_21
REMARK                            x       y       z     vdW  Elec       q    Type
REMARK                         _______ _______ _______ _____ _____    ______ ____
ROOT
ATOM      1  C   UNL     1       5.090  -0.484   1.147  0.00  0.00    +0.072 A 
ATOM      2  C   UNL     1       4.425   0.073   2.254  0.00  0.00    +0.260 A 
ATOM      3  N   UNL     1       4.891   1.210   2.807  0.00  0.00    -0.274 N 
ATOM      4  H   UNL     1       4.435   1.596   3.571  0.00  0.00    +0.173 HD
ATOM      5  C   UNL     1       5.985   1.814   2.307  0.00  0.00    +0.337 A 
ATOM      6  O   UNL     1       6.390   2.839   2.820  0.00  0.00    -0.246 OA
ATOM      7  N   UNL     1       6.637   1.299   1.249  0.00  0.00    -0.229 N 
ATOM      8  C   UNL     1       6.199   0.139   0.658  0.00  0.00    +0.267 A 
ATOM      9  O   UNL     1       6.859  -0.378  -0.400  0.00  0.00    -0.267 OA
ATOM     10  O   UNL     1       3.433  -0.469   2.711  0.00  0.00    -0.267 OA
ENDROOT
BRANCH   1  20
ATOM     11  C   UNL     1       0.771  -0.971  -1.250  0.00  0.00    +0.000 A 
ATOM     12  C   UNL     1       1.794  -0.047  -1.350  0.00  0.00    +0.000 A 
ATOM     13  C   UNL     1       3.020  -0.314  -0.774  0.00  0.00    +0.002 A 
ATOM     14  C   UNL     1       3.232  -1.504  -0.095  0.00  0.00    -0.054 A 
ATOM     15  C   UNL     1       2.209  -2.424   0.006  0.00  0.00    -0.047 A 
ATOM     16  C   UNL     1       0.979  -2.156  -0.573  0.00  0.00    +0.004 A 
ATOM     17  C   UNL     1       2.394  -3.727   0.742  0.00  0.00    +0.016 C 
ATOM     18  C   UNL     1       3.885  -4.000   0.943  0.00  0.00    -0.077 C 
ATOM     19  N   UNL     1       4.507  -2.805   1.534  0.00  0.00    +0.387 N 
ATOM     20  C   UNL     1       4.586  -1.755   0.514  0.00  0.00    +0.001 C 
ATOM     21  H   UNL     1       3.947  -2.482   2.308  0.00  0.00    -0.085 HD
ATOM     22  H   UNL     1       5.435  -3.032   1.857  0.00  0.00    -0.085 HD
ENDBRANCH   1  20
BRANCH   7  23
ATOM     23  C   UNL     1       7.774   1.949   0.749  0.00  0.00    +0.054 A 
ATOM     24  C   UNL     1       9.032   1.627   1.240  0.00  0.00    +0.028 A 
ATOM     25  C   UNL     1      10.150   2.269   0.746  0.00  0.00    +0.022 A 
ATOM     26  C   UNL     1      10.018   3.232  -0.239  0.00  0.00    +0.041 A 
ATOM     27  C   UNL     1       8.766   3.555  -0.731  0.00  0.00    +0.022 A 
ATOM     28  C   UNL     1       7.644   2.911  -0.244  0.00  0.00    +0.028 A 
ATOM     29 CL   UNL     1      11.426   4.036  -0.859  0.00  0.00    -0.084 Cl
ENDBRANCH   7  23
TORSDOF 2
