REMARK  Name = ZINC00033323
REMARK  4 active torsions:
REMARK  status: ('A' for Active; 'I' for Inactive)
REMARK    1  A    between atoms: C_1  and  C_2
REMARK    2  A    between atoms: C_3  and  C_7
REMARK    3  A    between atoms: N_9  and  N_10
REMARK    4  A    between atoms: C_11  and  C_13
REMARK                            x       y       z     vdW  Elec       q    Type
REMARK                         _______ _______ _______ _____ _____    ______ ____
ROOT
ATOM      1  N   UNL     1       2.767   7.730   0.017  0.00  0.00    -0.230 N 
ATOM      2  C   UNL     1       3.140   6.435   0.006  0.00  0.00    +0.268 C 
ATOM      3  O   UNL     1       4.322   6.143  -0.006  0.00  0.00    -0.268 OA
ATOM      4  H   UNL     1       1.825   7.963   0.027  0.00  0.00    +0.173 HD
ENDROOT
BRANCH   2   5
ATOM      5  C   UNL     1       2.122   5.377   0.010  0.00  0.00    +0.095 A 
ATOM      6  C   UNL     1       2.301   4.028   0.001  0.00  0.00    +0.068 A 
ATOM      7  C   UNL     1       1.184   3.173   0.007  0.00  0.00    +0.008 A 
ATOM      8  C   UNL     1       1.164   1.754   0.000  0.00  0.00    +0.010 A 
ATOM      9  C   UNL     1      -0.013   1.076   0.008  0.00  0.00    +0.001 A 
ATOM     10  C   UNL     1      -1.235   1.737   0.017  0.00  0.00    +0.001 A 
ATOM     11  C   UNL     1      -1.261   3.117   0.031  0.00  0.00    +0.016 A 
ATOM     12  C   UNL     1      -0.075   3.819   0.023  0.00  0.00    +0.021 A 
ATOM     13  S   UNL     1       0.346   5.544   0.028  0.00  0.00    -0.082 S 
ATOM     14 CL   UNL     1       3.905   3.364  -0.018  0.00  0.00    -0.082 Cl
ENDBRANCH   2   5
BRANCH   1  17
ATOM     15  C   UNL     1       3.364  10.034   0.024  0.00  0.00    +0.263 C 
ATOM     16  O   UNL     1       2.184  10.327   0.036  0.00  0.00    -0.269 OA
ATOM     17  N   UNL     1       3.738   8.740   0.013  0.00  0.00    -0.230 N 
ATOM     18  H   UNL     1       4.680   8.507   0.004  0.00  0.00    +0.173 HD
BRANCH  15  21
ATOM     19  C   UNL     1       2.831  13.126   0.046  0.00  0.00    +0.087 C 
ATOM     20  C   UNL     1       4.175  12.444   0.029  0.00  0.00    +0.114 A 
ATOM     21  C   UNL     1       4.386  11.097   0.020  0.00  0.00    +0.079 A 
ATOM     22  C   UNL     1       5.846  10.925   0.012  0.00  0.00    +0.054 A 
ATOM     23  C   UNL     1       6.363  12.163   0.009  0.00  0.00    +0.196 A 
ATOM     24  O   UNL     1       5.362  13.057   0.023  0.00  0.00    -0.467 OA
ENDBRANCH  15  21
ENDBRANCH   1  17
TORSDOF 3
