REMARK  Name = ZINC02347917
REMARK  7 active torsions:
REMARK  status: ('A' for Active; 'I' for Inactive)
REMARK    1  A    between atoms: C_1  and  C_2
REMARK    2  A    between atoms: C_11  and  N_27
REMARK    3  A    between atoms: C_13  and  S_15
REMARK    4  A    between atoms: S_15  and  C_16
REMARK    5  A    between atoms: C_16  and  C_17
REMARK    6  A    between atoms: N_19  and  C_20
REMARK    7  A    between atoms: N_19  and  C_21
REMARK                            x       y       z     vdW  Elec       q    Type
REMARK                         _______ _______ _______ _____ _____    ______ ____
ROOT
ATOM      1  C   UNL     1       1.751   5.878 -11.709  0.00  0.00    +0.008 C 
ATOM      2  C   UNL     1       1.778   4.976 -10.474  0.00  0.00    -0.009 C 
ATOM      3  C   UNL     1       0.756   5.478  -9.449  0.00  0.00    +0.008 C 
ATOM      4  C   UNL     1       0.946   4.741  -8.123  0.00  0.00    +0.037 C 
ATOM      5  C   UNL     1       0.930   3.238  -8.388  0.00  0.00    -0.025 A 
ATOM      6  C   UNL     1       1.140   2.755  -9.628  0.00  0.00    -0.004 A 
ATOM      7  S   UNL     1       1.031   0.993  -9.463  0.00  0.00    -0.073 S 
ATOM      8  C   UNL     1       0.703   0.908  -7.722  0.00  0.00    +0.115 A 
ATOM      9  C   UNL     1       0.688   2.260  -7.325  0.00  0.00    +0.051 A 
ATOM     10  C   UNL     1       0.440   2.491  -5.943  0.00  0.00    +0.129 A 
ATOM     11  N   UNL     1       0.239   1.459  -5.141  0.00  0.00    -0.207 NA
ATOM     12  C   UNL     1       0.272   0.207  -5.581  0.00  0.00    +0.191 A 
ATOM     13  N   UNL     1       0.498  -0.068  -6.859  0.00  0.00    -0.214 NA
ATOM     14  C   UNL     1       1.408   3.541 -10.875  0.00  0.00    +0.046 C 
ENDROOT
BRANCH  10  15
ATOM     15  N   UNL     1       0.404   3.781  -5.446  0.00  0.00    -0.343 N 
ATOM     16  H   UNL     1      -0.009   3.958  -4.586  0.00  0.00    +0.144 HD
ATOM     17  H   UNL     1       0.791   4.509  -5.957  0.00  0.00    +0.144 HD
ENDBRANCH  10  15
BRANCH  12  18
ATOM     18  S   UNL     1       0.002  -1.115  -4.447  0.00  0.00    -0.077 S 
BRANCH  18  19
ATOM     19  C   UNL     1      -0.242  -0.174  -2.920  0.00  0.00    +0.173 C 
BRANCH  19  20
ATOM     20  C   UNL     1      -0.497  -1.125  -1.779  0.00  0.00    +0.230 C 
ATOM     21  O   UNL     1      -0.512  -2.322  -1.979  0.00  0.00    -0.274 OA
ATOM     22  N   UNL     1      -0.708  -0.647  -0.537  0.00  0.00    -0.274 N 
ATOM     23  C   UNL     1      -0.799   0.798  -0.315  0.00  0.00    +0.138 C 
BRANCH  22  24
ATOM     24  C   UNL     1      -0.840  -1.530   0.540  0.00  0.00    +0.036 A 
ATOM     25  C   UNL     1      -1.959  -2.346   0.637  0.00  0.00    +0.023 A 
ATOM     26  C   UNL     1      -2.084  -3.222   1.698  0.00  0.00    +0.002 A 
ATOM     27  C   UNL     1      -1.101  -3.277   2.669  0.00  0.00    +0.000 A 
ATOM     28  C   UNL     1       0.012  -2.462   2.579  0.00  0.00    +0.002 A 
ATOM     29  C   UNL     1       0.145  -1.589   1.517  0.00  0.00    +0.023 A 
ENDBRANCH  22  24
ENDBRANCH  19  20
ENDBRANCH  18  19
ENDBRANCH  12  18
TORSDOF 5
