REMARK  Name = ZINC59119961
REMARK  3 active torsions:
REMARK  status: ('A' for Active; 'I' for Inactive)
REMARK    1  A    between atoms: C_4  and  N_8
REMARK    2  A    between atoms: N_11  and  C_12
REMARK    3  A    between atoms: C_13  and  C_21
REMARK                            x       y       z     vdW  Elec       q    Type
REMARK                         _______ _______ _______ _____ _____    ______ ____
ROOT
ATOM      1  N   UNL     1       3.623  -0.652  -0.037  0.00  0.00    -0.268 N 
ATOM      2  C   UNL     1       3.646  -1.996   0.058  0.00  0.00    +0.309 C 
ATOM      3  O   UNL     1       2.604  -2.623   0.065  0.00  0.00    -0.252 OA
ATOM      4  N   UNL     1       4.824  -2.645   0.144  0.00  0.00    -0.262 N 
ATOM      5  H   UNL     1       4.453  -0.158  -0.125  0.00  0.00    +0.156 HD
ATOM      6  H   UNL     1       5.655  -2.145   0.138  0.00  0.00    +0.157 HD
ENDROOT
BRANCH   4   7
ATOM      7  C   UNL     1       4.848  -4.030   0.241  0.00  0.00    +0.091 A 
ATOM      8  C   UNL     1       5.955  -4.858   0.343  0.00  0.00    +0.084 A 
ATOM      9  C   UNL     1       5.709  -6.283   0.432  0.00  0.00    -0.022 A 
ATOM     10  C   UNL     1       4.400  -6.624   0.402  0.00  0.00    -0.021 A 
ATOM     11  S   UNL     1       3.541  -5.085   0.269  0.00  0.00    -0.079 S 
ATOM     12  C   UNL     1       3.847  -8.013   0.470  0.00  0.00    -0.039 C 
ATOM     13  N   UNL     1       4.942  -8.961   0.193  0.00  0.00    +0.382 N 
ATOM     14  C   UNL     1       6.097  -8.643   1.044  0.00  0.00    -0.077 C 
ATOM     15  C   UNL     1       6.777  -7.360   0.554  0.00  0.00    +0.018 C 
ATOM     16  H   UNL     1       4.630  -9.900   0.388  0.00  0.00    -0.085 HD
ATOM     17  H   UNL     1       5.210  -8.890  -0.777  0.00  0.00    -0.085 HD
BRANCH   8  18
ATOM     18  C   UNL     1       7.285  -4.327   0.359  0.00  0.00    +0.102 C 
ATOM     19  N   UNL     1       8.340  -3.907   0.372  0.00  0.00    -0.191 NA
ENDBRANCH   8  18
ENDBRANCH   4   7
BRANCH   1  23
ATOM     20  C   UNL     1      -0.015   1.382   0.049  0.00  0.00    +0.021 A 
ATOM     21  C   UNL     1       1.082   1.956  -0.567  0.00  0.00    +0.023 A 
ATOM     22  C   UNL     1       2.290   1.285  -0.597  0.00  0.00    +0.062 A 
ATOM     23  C   UNL     1       2.401   0.031  -0.007  0.00  0.00    +0.055 A 
ATOM     24  C   UNL     1       1.298  -0.543   0.610  0.00  0.00    +0.044 A 
ATOM     25  C   UNL     1       0.093   0.134   0.636  0.00  0.00    +0.043 A 
ATOM     26 CL   UNL     1      -1.287  -0.583   1.408  0.00  0.00    -0.083 Cl
ATOM     27 CL   UNL     1       3.666   2.006  -1.371  0.00  0.00    -0.082 Cl
ENDBRANCH   1  23
TORSDOF 3
