REMARK  Name = ZINC00523414
REMARK  5 active torsions:
REMARK  status: ('A' for Active; 'I' for Inactive)
REMARK    1  A    between atoms: C_6  and  S_7
REMARK    2  A    between atoms: S_7  and  C_8
REMARK    3  A    between atoms: C_11  and  N_18
REMARK    4  A    between atoms: C_13  and  C_14
REMARK    5  A    between atoms: N_16  and  N_17
REMARK                            x       y       z     vdW  Elec       q    Type
REMARK                         _______ _______ _______ _____ _____    ______ ____
ROOT
ATOM      1  C   UNL     1      -2.213  -2.596  -0.048  0.00  0.00    +0.025 A 
ATOM      2  C   UNL     1      -1.930  -3.956  -0.098  0.00  0.00    +0.018 A 
ATOM      3  C   UNL     1      -0.621  -4.387  -0.161  0.00  0.00    +0.034 A 
ATOM      4  C   UNL     1       0.420  -3.472  -0.183  0.00  0.00    +0.127 A 
ATOM      5  C   UNL     1       0.159  -2.120  -0.141  0.00  0.00    +0.047 A 
ATOM      6  C   UNL     1      -1.161  -1.666  -0.076  0.00  0.00    +0.054 A 
ENDROOT
BRANCH   6   7
ATOM      7  C   UNL     1      -1.447  -0.221  -0.030  0.00  0.00    +0.259 C 
ATOM      8  O   UNL     1      -2.597   0.170   0.027  0.00  0.00    -0.269 OA
ATOM      9  N   UNL     1      -0.433   0.668  -0.051  0.00  0.00    -0.250 N 
ATOM     10  H   UNL     1       0.484   0.356  -0.096  0.00  0.00    +0.169 HD
BRANCH   9  11
ATOM     11  N   UNL     1      -0.698   2.007  -0.009  0.00  0.00    -0.254 NA
ATOM     12  H   UNL     1       0.155   2.545  -0.032  0.00  0.00    +0.140 HD
ATOM     13  H   UNL     1      -1.317   2.277  -0.759  0.00  0.00    +0.140 HD
ENDBRANCH   9  11
ENDBRANCH   6   7
BRANCH   4  14
ATOM     14  N   UNL     1       1.819  -3.950  -0.252  0.00  0.00    +0.056 N 
ATOM     15  O   UNL     1       2.736  -3.149  -0.272  0.00  0.00    -0.126 OA
ATOM     16  O   UNL     1       2.053  -5.145  -0.290  0.00  0.00    -0.126 OA
ENDBRANCH   4  14
BRANCH   1  17
ATOM     17  S   UNL     1      -3.883  -2.041   0.042  0.00  0.00    -0.089 S 
BRANCH  17  23
ATOM     18  C   UNL     1      -3.082  -1.848   2.651  0.00  0.00    +0.016 A 
ATOM     19  C   UNL     1      -3.246  -1.489   3.974  0.00  0.00    +0.021 A 
ATOM     20  C   UNL     1      -4.421  -0.885   4.388  0.00  0.00    +0.041 A 
ATOM     21  C   UNL     1      -5.432  -0.634   3.477  0.00  0.00    +0.021 A 
ATOM     22  C   UNL     1      -5.271  -0.986   2.151  0.00  0.00    +0.016 A 
ATOM     23  C   UNL     1      -4.092  -1.592   1.733  0.00  0.00    +0.013 A 
ATOM     24 CL   UNL     1      -4.627  -0.441   6.054  0.00  0.00    -0.084 Cl
ENDBRANCH  17  23
ENDBRANCH   1  17
TORSDOF 5
