REMARK  Name = ZINC55170308
REMARK  5 active torsions:
REMARK  status: ('A' for Active; 'I' for Inactive)
REMARK    1  A    between atoms: C_1  and  C_2
REMARK    2  A    between atoms: C_2  and  C_3
REMARK    3  A    between atoms: C_3  and  N_4
REMARK    4  A    between atoms: C_12  and  C_13
REMARK    5  A    between atoms: C_14  and  C_19
REMARK                            x       y       z     vdW  Elec       q    Type
REMARK                         _______ _______ _______ _____ _____    ______ ____
ROOT
ATOM      1  N   UNL     1       0.762  -1.976   1.234  0.00  0.00    -0.323 N 
ATOM      2  C   UNL     1      -0.189  -2.813   1.790  0.00  0.00    +0.069 A 
ATOM      3  C   UNL     1      -1.372  -2.597   2.481  0.00  0.00    +0.029 A 
ATOM      4  C   UNL     1      -2.118  -3.672   2.918  0.00  0.00    +0.017 A 
ATOM      5  C   UNL     1      -1.693  -4.970   2.673  0.00  0.00    +0.020 A 
ATOM      6  C   UNL     1      -0.521  -5.204   1.989  0.00  0.00    +0.045 A 
ATOM      7  C   UNL     1       0.247  -4.126   1.538  0.00  0.00    +0.091 A 
ATOM      8  N   UNL     1       1.415  -4.038   0.856  0.00  0.00    -0.227 NA
ATOM      9  C   UNL     1       1.723  -2.774   0.668  0.00  0.00    +0.150 A 
ATOM     10 BR   UNL     1      -2.731  -6.428   3.283  0.00  0.00    -0.050 Br
ENDROOT
BRANCH   9  11
ATOM     11  C   UNL     1       2.916  -2.290  -0.038  0.00  0.00    +0.079 A 
ATOM     12  C   UNL     1       3.927  -3.000  -0.640  0.00  0.00    +0.058 A 
ATOM     13  N   UNL     1       4.884  -2.299  -1.206  0.00  0.00    -0.230 NA
ATOM     14  C   UNL     1       4.867  -0.980  -1.192  0.00  0.00    +0.156 A 
ATOM     15  S   UNL     1       3.451  -0.617  -0.359  0.00  0.00    -0.049 S 
ATOM     16  N   UNL     1       5.789  -0.106  -1.736  0.00  0.00    -0.337 N 
ATOM     17  C   UNL     1       3.939  -4.507  -0.650  0.00  0.00    +0.067 C 
ATOM     18  H   UNL     1       6.568  -0.450  -2.200  0.00  0.00    +0.144 HD
ATOM     19  H   UNL     1       5.656   0.851  -1.655  0.00  0.00    +0.144 HD
ENDBRANCH   9  11
BRANCH   1  20
ATOM     20  C   UNL     1       0.742  -0.511   1.242  0.00  0.00    +0.123 C 
BRANCH  20  22
ATOM     21  C   UNL     1      -0.019   1.526   0.010  0.00  0.00    +0.005 C 
ATOM     22  C   UNL     1       0.002  -0.004   0.002  0.00  0.00    +0.018 C 
ENDBRANCH  20  22
ENDBRANCH   1  20
TORSDOF 3
