REMARK  Name = ZINC40384827
REMARK  6 active torsions:
REMARK  status: ('A' for Active; 'I' for Inactive)
REMARK    1  A    between atoms: C_1  and  C_2
REMARK    2  A    between atoms: C_5  and  C_22
REMARK    3  A    between atoms: C_6  and  S_8
REMARK    4  A    between atoms: S_8  and  N_11
REMARK    5  A    between atoms: C_15  and  S_18
REMARK    6  A    between atoms: S_18  and  N_21
REMARK                            x       y       z     vdW  Elec       q    Type
REMARK                         _______ _______ _______ _____ _____    ______ ____
ROOT
ATOM      1  N   UNL     1      -1.859  -3.929   2.422  0.00  0.00    -0.175 NA
ATOM      2  C   UNL     1      -3.045  -3.222   2.926  0.00  0.00    +0.109 C 
ATOM      3  C   UNL     1      -4.106  -3.191   1.823  0.00  0.00    +0.019 C 
ATOM      4  C   UNL     1      -4.381  -4.619   1.345  0.00  0.00    +0.030 C 
ATOM      5  C   UNL     1      -3.099  -5.221   0.765  0.00  0.00    +0.163 C 
ATOM      6  C   UNL     1      -2.027  -5.272   1.851  0.00  0.00    +0.137 C 
ENDROOT
BRANCH   1   7
ATOM      7  S   UNL     1      -0.363  -3.222   2.491  0.00  0.00    +0.061 S 
ATOM      8  O   UNL     1       0.583  -4.280   2.565  0.00  0.00    -0.153 OA
ATOM      9  O   UNL     1      -0.441  -2.200   3.475  0.00  0.00    -0.153 OA
BRANCH   7  15
ATOM     10  C   UNL     1       2.107  -2.793  -2.096  0.00  0.00    +0.044 C 
ATOM     11  C   UNL     1       1.067  -2.267  -1.140  0.00  0.00    -0.049 A 
ATOM     12  C   UNL     1       0.323  -1.151  -1.475  0.00  0.00    +0.004 A 
ATOM     13  C   UNL     1      -0.630  -0.667  -0.599  0.00  0.00    +0.005 A 
ATOM     14  C   UNL     1      -0.840  -1.300   0.613  0.00  0.00    -0.024 A 
ATOM     15  C   UNL     1      -0.096  -2.416   0.947  0.00  0.00    +0.109 A 
ATOM     16  C   UNL     1       0.854  -2.902   0.069  0.00  0.00    +0.032 A 
ATOM     17  C   UNL     1      -1.879  -0.773   1.569  0.00  0.00    +0.046 C 
ENDBRANCH   7  15
ENDBRANCH   1   7
BRANCH   5  18
ATOM     18  S   UNL     1      -3.437  -6.898   0.163  0.00  0.00    +0.031 S 
ATOM     19  O   UNL     1      -2.308  -7.403  -0.537  0.00  0.00    -0.158 OA
ATOM     20  O   UNL     1      -4.061  -7.668   1.181  0.00  0.00    -0.158 OA
BRANCH  18  21
ATOM     21  N   UNL     1      -4.603  -6.707  -0.998  0.00  0.00    -0.208 NA
ATOM     22  H   UNL     1      -4.649  -7.325  -1.744  0.00  0.00    +0.144 HD
ATOM     23  H   UNL     1      -5.239  -5.978  -0.931  0.00  0.00    +0.144 HD
ENDBRANCH  18  21
ENDBRANCH   5  18
TORSDOF 4
