REMARK  Name = ZINC26240382
REMARK  4 active torsions:
REMARK  status: ('A' for Active; 'I' for Inactive)
REMARK    1  A    between atoms: C_3  and  N_16
REMARK    2  A    between atoms: C_5  and  C_6
REMARK    3  A    between atoms: C_12  and  O_15
REMARK    4  A    between atoms: C_17  and  C_19
REMARK                            x       y       z     vdW  Elec       q    Type
REMARK                         _______ _______ _______ _____ _____    ______ ____
ROOT
ATOM      1  C   UNL     1       2.623  -5.130  -1.432  0.00  0.00    +0.022 A 
ATOM      2  C   UNL     1       2.252  -6.446  -1.363  0.00  0.00    +0.032 A 
ATOM      3  C   UNL     1       0.910  -6.753  -1.281  0.00  0.00    +0.072 A 
ATOM      4  S   UNL     1       0.149  -5.196  -1.290  0.00  0.00    -0.069 S 
ATOM      5  C   UNL     1       1.611  -4.181  -1.402  0.00  0.00    +0.076 A 
ENDROOT
BRANCH   5   6
ATOM      6  C   UNL     1       1.717  -2.724  -1.455  0.00  0.00    +0.253 C 
ATOM      7  O   UNL     1       2.548  -2.200  -2.173  0.00  0.00    -0.269 OA
ATOM      8  N   UNL     1       0.893  -1.961  -0.709  0.00  0.00    -0.295 N 
ATOM      9  C   UNL     1      -0.162  -2.576   0.107  0.00  0.00    +0.108 C 
ATOM     10  C   UNL     1      -0.020  -2.082   1.550  0.00  0.00    +0.021 C 
ATOM     11  C   UNL     1      -0.027  -0.552   1.564  0.00  0.00    +0.034 C 
ATOM     12  C   UNL     1       1.162  -0.028   0.755  0.00  0.00    +0.132 C 
ATOM     13  C   UNL     1       1.034  -0.499  -0.697  0.00  0.00    +0.139 C 
BRANCH  12  14
ATOM     14  O   UNL     1       1.173   1.401   0.793  0.00  0.00    -0.390 OA
ATOM     15  H   UNL     1       1.959   1.960   0.265  0.00  0.00    +0.210 HD
ENDBRANCH  12  14
ENDBRANCH   5   6
BRANCH   3  16
ATOM     16  N   UNL     1       0.314  -8.006  -1.207  0.00  0.00    -0.280 N 
ATOM     17  C   UNL     1      -1.027  -8.111  -1.132  0.00  0.00    +0.221 C 
ATOM     18  O   UNL     1      -1.714  -7.111  -1.128  0.00  0.00    -0.275 OA
ATOM     19  H   UNL     1       0.937  -8.913  -1.211  0.00  0.00    +0.155 HD
BRANCH  17  20
ATOM     20  C   UNL     1      -1.674  -9.469  -1.052  0.00  0.00    +0.075 C 
ATOM     21  C   UNL     1      -2.491  -9.935  -2.259  0.00  0.00    +0.013 C 
ATOM     22  C   UNL     1      -3.201  -9.521  -0.968  0.00  0.00    +0.013 C 
ENDBRANCH  17  20
ENDBRANCH   3  16
TORSDOF 4
