REMARK  Name = ZINC37365725
REMARK  3 active torsions:
REMARK  status: ('A' for Active; 'I' for Inactive)
REMARK    1  A    between atoms: C_6  and  C_7
REMARK    2  A    between atoms: C_7  and  C_9
REMARK    3  A    between atoms: C_7  and  N_17
REMARK                            x       y       z     vdW  Elec       q    Type
REMARK                         _______ _______ _______ _____ _____    ______ ____
ROOT
ATOM      1  C   UNL     1      -1.294  -0.772   0.011  0.00  0.00    -0.012 C 
ENDROOT
BRANCH   1   7
ATOM      2  C   UNL     1      -0.017   1.380   0.010  0.00  0.00    +0.004 A 
ATOM      3  C   UNL     1       1.167   2.093   0.002  0.00  0.00    +0.028 A 
ATOM      4  C   UNL     1       2.378   1.419  -0.013  0.00  0.00    +0.067 A 
ATOM      5  C   UNL     1       2.397   0.022  -0.021  0.00  0.00    +0.067 A 
ATOM      6  C   UNL     1       1.204  -0.684  -0.014  0.00  0.00    +0.030 A 
ATOM      7  C   UNL     1       0.002  -0.004   0.002  0.00  0.00    -0.056 A 
ATOM      8  N   UNL     1       3.736  -0.362  -0.035  0.00  0.00    -0.306 N 
ATOM      9  H   UNL     1       4.064  -1.275  -0.043  0.00  0.00    +0.170 HD
ATOM     10  C   UNL     1       4.496   0.749  -0.035  0.00  0.00    +0.325 A 
ATOM     11  O   UNL     1       5.713   0.766  -0.047  0.00  0.00    -0.247 OA
ATOM     12  N   UNL     1       3.706   1.839  -0.023  0.00  0.00    -0.306 N 
ATOM     13  H   UNL     1       4.010   2.760  -0.020  0.00  0.00    +0.170 HD
ENDBRANCH   1   7
BRANCH   1  14
ATOM     14  C   UNL     1      -1.839  -0.823   1.415  0.00  0.00    -0.039 A 
ATOM     15  C   UNL     1      -2.849   0.040   1.797  0.00  0.00    +0.005 A 
ATOM     16  C   UNL     1      -3.348  -0.007   3.085  0.00  0.00    +0.015 A 
ATOM     17  C   UNL     1      -2.837  -0.917   3.993  0.00  0.00    +0.019 A 
ATOM     18  C   UNL     1      -1.827  -1.781   3.611  0.00  0.00    +0.035 A 
ATOM     19  C   UNL     1      -1.331  -1.738   2.321  0.00  0.00    +0.044 A 
ATOM     20 CL   UNL     1      -0.067  -2.826   1.839  0.00  0.00    -0.083 Cl
ATOM     21 BR   UNL     1      -3.520  -0.980   5.755  0.00  0.00    -0.050 Br
ENDBRANCH   1  14
BRANCH   1  22
ATOM     22  N   UNL     1      -2.265  -0.104  -0.866  0.00  0.00    +0.385 N 
ATOM     23  H   UNL     1      -1.901  -0.070  -1.807  0.00  0.00    -0.089 HD
ATOM     24  H   UNL     1      -3.133  -0.618  -0.861  0.00  0.00    -0.089 HD
ATOM     25  H   UNL     1      -2.428   0.835  -0.534  0.00  0.00    -0.089 HD
ENDBRANCH   1  22
TORSDOF 3
