REMARK  Name = ZINC42430297
REMARK  6 active torsions:
REMARK  status: ('A' for Active; 'I' for Inactive)
REMARK    1  A    between atoms: CG1_1  and  CB_2
REMARK    2  A    between atoms: CB_2  and  CG2_3
REMARK    3  A    between atoms: CB_2  and  CA_4
REMARK    4  A    between atoms: CA_4  and  C_6
REMARK    5  A    between atoms: CA_4  and  N_9
REMARK    6  A    between atoms: C_16  and  N_19
REMARK                            x       y       z     vdW  Elec       q    Type
REMARK                         _______ _______ _______ _____ _____    ______ ____
ROOT
ATOM      1  N   VAL A   1      -1.414  -1.998   0.004  0.00  0.00    -0.286 N 
ATOM      2  C   UNK A   0      -2.457  -2.689   0.504  0.00  0.00    +0.303 C 
ATOM      3  O   UNK A   0      -3.374  -2.100   1.044  0.00  0.00    -0.253 OA
ATOM      4  N   UNK A   0      -2.485  -4.033   0.406  0.00  0.00    -0.287 N 
ATOM      5  C   UNK A   0      -1.335  -4.768  -0.138  0.00  0.00    +0.109 C 
ATOM      6  C   UNK A   0      -1.820  -5.670  -1.277  0.00  0.00    +0.017 C 
ATOM      7  C   UNK A   0      -2.953  -6.564  -0.768  0.00  0.00    -0.013 C 
ATOM      8  C   UNK A   0      -4.125  -5.693  -0.309  0.00  0.00    -0.057 C 
ATOM      9  C   UNK A   0      -3.663  -4.792   0.847  0.00  0.00    +0.093 C 
ATOM     10  H   VAL A   1      -0.649  -2.471  -0.361  0.00  0.00    +0.151 HD
ENDROOT
BRANCH   8  11
ATOM     11  N   UNK A   0      -5.224  -6.553   0.149  0.00  0.00    +0.381 N 
ATOM     12  H   UNK A   0      -4.907  -7.123   0.919  0.00  0.00    -0.090 HD
ATOM     13  H   UNK A   0      -5.996  -5.978   0.452  0.00  0.00    -0.090 HD
ATOM     14  H   UNK A   0      -5.524  -7.148  -0.608  0.00  0.00    -0.090 HD
ENDBRANCH   8  11
BRANCH   1  15
ATOM     15  CA  VAL A   1      -1.435  -0.534   0.011  0.00  0.00    +0.190 C 
BRANCH  15  17
ATOM     16  CG1 VAL A   1      -0.021   1.527   0.006  0.00  0.00    +0.009 C 
ATOM     17  CB  VAL A   1       0.001  -0.003  -0.001  0.00  0.00    +0.014 C 
ATOM     18  CG2 VAL A   1       0.741  -0.508   1.239  0.00  0.00    +0.009 C 
ENDBRANCH  15  17
BRANCH  15  19
ATOM     19  C   VAL A   1      -2.164  -0.036  -1.211  0.00  0.00    +0.376 C 
ATOM     20  O   VAL A   1      -2.147  -0.690  -2.239  0.00  0.00    -0.244 OA
ATOM     21  OXT VAL A   1      -2.771   1.021  -1.170  0.00  0.00    -0.244 OA
ENDBRANCH  15  19
ENDBRANCH   1  15
TORSDOF 4
