REMARK  Name = ZINC25680266
REMARK  6 active torsions:
REMARK  status: ('A' for Active; 'I' for Inactive)
REMARK    1  A    between atoms: C_1  and  C_2
REMARK    2  A    between atoms: C_2  and  C_4
REMARK    3  A    between atoms: C_2  and  N_14
REMARK    4  A    between atoms: N_6  and  C_7
REMARK    5  A    between atoms: C_17  and  C_20
REMARK    6  A    between atoms: C_23  and  O_26
REMARK                            x       y       z     vdW  Elec       q    Type
REMARK                         _______ _______ _______ _____ _____    ______ ____
ROOT
ATOM      1  N   UNL     1       1.490   6.303   0.202  0.00  0.00    +0.390 N 
ATOM      2  C   UNL     1       1.233   5.748  -1.137  0.00  0.00    -0.073 C 
ATOM      3  C   UNL     1       1.713   4.292  -1.156  0.00  0.00    +0.017 C 
ATOM      4  C   UNL     1       1.159   3.563   0.036  0.00  0.00    -0.048 C 
ATOM      5  C   UNL     1       0.667   4.186   1.085  0.00  0.00    -0.041 C 
ATOM      6  C   UNL     1       0.598   5.683   1.190  0.00  0.00    -0.050 C 
ATOM      7  H   UNL     1       2.529   6.075   0.482  0.00  0.00    -0.080 HD
ENDROOT
BRANCH   4   8
ATOM      8  C   UNL     1       1.173   2.085   0.032  0.00  0.00    -0.022 A 
ATOM      9  C   UNL     1      -0.029   1.374   0.033  0.00  0.00    +0.012 A 
ATOM     10  C   UNL     1      -0.012  -0.004   0.029  0.00  0.00    +0.046 A 
ATOM     11  C   UNL     1       1.198  -0.685   0.024  0.00  0.00    +0.117 A 
ATOM     12  C   UNL     1       2.395   0.018   0.024  0.00  0.00    +0.046 A 
ATOM     13  C   UNL     1       2.387   1.397   0.028  0.00  0.00    +0.012 A 
BRANCH  11  14
ATOM     14  O   UNL     1       1.211  -2.044   0.021  0.00  0.00    -0.507 OA
ATOM     15  H   UNL     1       2.169  -2.585   0.017  0.00  0.00    +0.292 HD
ENDBRANCH  11  14
ENDBRANCH   4   8
BRANCH   1  17
ATOM     16  C   UNL     1       1.663   8.309   1.596  0.00  0.00    -0.004 C 
ATOM     17  C   UNL     1       1.341   7.765   0.203  0.00  0.00    +0.017 C 
BRANCH  17  18
ATOM     18  C   UNL     1      -0.075   8.126  -0.163  0.00  0.00    +0.203 C 
ATOM     19  O   UNL     1      -0.882   7.252  -0.401  0.00  0.00    -0.277 OA
ATOM     20  N   UNL     1      -0.446   9.420  -0.225  0.00  0.00    -0.286 N 
ATOM     21  H   UNL     1       0.263  10.210   0.062  0.00  0.00    +0.155 HD
BRANCH  20  22
ATOM     22  C   UNL     1      -1.735   9.759  -0.655  0.00  0.00    +0.052 A 
ATOM     23  C   UNL     1      -2.810   8.937  -0.346  0.00  0.00    +0.025 A 
ATOM     24  C   UNL     1      -4.081   9.277  -0.766  0.00  0.00    +0.002 A 
ATOM     25  C   UNL     1      -4.282  10.428  -1.505  0.00  0.00    +0.002 A 
ATOM     26  C   UNL     1      -3.213  11.247  -1.820  0.00  0.00    +0.022 A 
ATOM     27  C   UNL     1      -1.939  10.916  -1.397  0.00  0.00    +0.062 A 
ATOM     28 CL   UNL     1      -0.597  11.943  -1.793  0.00  0.00    -0.082 Cl
ENDBRANCH  20  22
ENDBRANCH  17  18
ENDBRANCH   1  17
TORSDOF 5
