REMARK  Name = ZINC53109155
REMARK  6 active torsions:
REMARK  status: ('A' for Active; 'I' for Inactive)
REMARK    1  A    between atoms: C_1  and  C_2
REMARK    2  A    between atoms: C_7  and  C_9
REMARK    3  A    between atoms: C_7  and  N_11
REMARK    4  A    between atoms: C_9  and  O_10
REMARK    5  A    between atoms: N_11  and  S_12
REMARK    6  A    between atoms: S_12  and  C_15
REMARK                            x       y       z     vdW  Elec       q    Type
REMARK                         _______ _______ _______ _____ _____    ______ ____
ROOT
ATOM      1  N   UNL     1      -0.618  -2.388   1.363  0.00  0.00    -0.186 NA
ATOM      2  H   UNL     1      -1.251  -1.670   1.207  0.00  0.00    +0.148 HD
ENDROOT
BRANCH   1   8
ATOM      3  C   UNL     1       0.786   0.636  -1.347  0.00  0.00    +0.007 C 
ATOM      4  C   UNL     1       0.536  -0.735  -0.716  0.00  0.00    -0.012 C 
ATOM      5  C   UNL     1       1.251  -1.812  -1.534  0.00  0.00    +0.003 C 
ATOM      6  C   UNL     1       1.000  -3.183  -0.903  0.00  0.00    +0.002 C 
ATOM      7  C   UNL     1       1.537  -3.191   0.530  0.00  0.00    +0.026 C 
ATOM      8  C   UNL     1       0.821  -2.114   1.348  0.00  0.00    +0.063 C 
ATOM      9  C   UNL     1       1.072  -0.743   0.717  0.00  0.00    +0.029 C 
BRANCH   8  10
ATOM     10  C   UNL     1       1.357  -2.122   2.781  0.00  0.00    +0.179 C 
BRANCH  10  11
ATOM     11  O   UNL     1       1.217  -3.432   3.335  0.00  0.00    -0.393 OA
ATOM     12  H   UNL     1       1.466  -3.493   4.267  0.00  0.00    +0.209 HD
ENDBRANCH  10  11
ENDBRANCH   8  10
ENDBRANCH   1   8
BRANCH   1  13
ATOM     13  S   UNL     1      -1.165  -3.925   1.648  0.00  0.00    +0.034 S 
ATOM     14  O   UNL     1      -0.053  -4.607   2.213  0.00  0.00    -0.158 OA
ATOM     15  O   UNL     1      -2.363  -3.752   2.392  0.00  0.00    -0.158 OA
BRANCH  13  16
ATOM     16  C   UNL     1      -1.541  -4.598   0.006  0.00  0.00    +0.170 C 
ATOM     17  C   UNL     1      -2.495  -3.648  -0.738  0.00  0.00    +0.052 C 
ATOM     18  C   UNL     1      -3.071  -4.353  -1.990  0.00  0.00    +0.168 C 
ATOM     19  S   UNL     1      -3.038  -6.127  -1.505  0.00  0.00    -0.029 S 
ATOM     20  O   UNL     1      -4.373  -6.586  -1.340  0.00  0.00    -0.174 OA
ATOM     21  O   UNL     1      -2.161  -6.828  -2.376  0.00  0.00    -0.174 OA
ATOM     22  C   UNL     1      -2.248  -5.976   0.152  0.00  0.00    +0.193 C 
ENDBRANCH  13  16
ENDBRANCH   1  13
TORSDOF 5
