REMARK  Name = ZINC61856973
REMARK  4 active torsions:
REMARK  status: ('A' for Active; 'I' for Inactive)
REMARK    1  A    between atoms: C_3  and  C_19
REMARK    2  A    between atoms: C_6  and  O_7
REMARK    3  A    between atoms: O_7  and  C_8
REMARK    4  A    between atoms: C_11  and  N_15
REMARK                            x       y       z     vdW  Elec       q    Type
REMARK                         _______ _______ _______ _____ _____    ______ ____
ROOT
ATOM      1  C   UNL     1      -0.007   1.249  -0.190  0.00  0.00    +0.047 A 
ATOM      2  C   UNL     1       1.159   1.980  -0.175  0.00  0.00    +0.016 A 
ATOM      3  C   UNL     1       2.390   1.327  -0.081  0.00  0.00    +0.031 A 
ATOM      4  C   UNL     1       2.433  -0.068  -0.001  0.00  0.00    +0.055 A 
ATOM      5  C   UNL     1       1.260  -0.793  -0.016  0.00  0.00    +0.067 A 
ATOM      6  C   UNL     1       0.038  -0.138  -0.110  0.00  0.00    +0.130 A 
ATOM      7 CL   UNL     1       3.959  -0.886   0.117  0.00  0.00    -0.083 Cl
ENDROOT
BRANCH   3   8
ATOM      8  C   UNL     1       3.643   2.109  -0.065  0.00  0.00    +0.096 C 
ATOM      9  N   UNL     1       4.590   1.867  -0.972  0.00  0.00    -0.387 N 
ATOM     10  N   UNL     1       3.827   3.055   0.855  0.00  0.00    -0.345 N 
ATOM     11  H   UNL     1       5.383   2.425  -1.005  0.00  0.00    +0.157 HD
ATOM     12  H   UNL     1       3.138   3.231   1.514  0.00  0.00    +0.144 HD
ATOM     13  H   UNL     1       4.651   3.568   0.865  0.00  0.00    +0.144 HD
ATOM     14  H   UNL     1       4.487   1.133  -1.597  0.00  0.00    +0.157 HD
ENDBRANCH   3   8
BRANCH   6  15
ATOM     15  O   UNL     1      -1.114  -0.855  -0.125  0.00  0.00    -0.456 OA
BRANCH  15  16
ATOM     16  C   UNL     1      -1.557  -1.374   1.050  0.00  0.00    +0.130 A 
ATOM     17  C   UNL     1      -0.906  -1.065   2.236  0.00  0.00    +0.048 A 
ATOM     18  C   UNL     1      -1.358  -1.594   3.429  0.00  0.00    +0.038 A 
ATOM     19  C   UNL     1      -2.458  -2.431   3.444  0.00  0.00    +0.145 A 
ATOM     20  C   UNL     1      -3.110  -2.742   2.263  0.00  0.00    +0.075 A 
ATOM     21  C   UNL     1      -2.664  -2.210   1.067  0.00  0.00    +0.068 A 
ATOM     22 CL   UNL     1      -4.490  -3.794   2.284  0.00  0.00    -0.081 Cl
BRANCH  19  23
ATOM     23  N   UNL     1      -2.940  -2.997   4.724  0.00  0.00    +0.058 N 
ATOM     24  O   UNL     1      -2.372  -2.727   5.756  0.00  0.00    -0.126 OA
ATOM     25  O   UNL     1      -3.902  -3.729   4.737  0.00  0.00    -0.126 OA
ENDBRANCH  19  23
ENDBRANCH  15  16
ENDBRANCH   6  15
TORSDOF 4
