REMARK  Name = ZINC12349383
REMARK  4 active torsions:
REMARK  status: ('A' for Active; 'I' for Inactive)
REMARK    1  A    between atoms: C_4  and  C_7
REMARK    2  A    between atoms: C_10  and  C_13
REMARK    3  A    between atoms: C_20  and  O_21
REMARK    4  A    between atoms: C_28  and  C_31
REMARK                            x       y       z     vdW  Elec       q    Type
REMARK                         _______ _______ _______ _____ _____    ______ ____
ROOT
ATOM      1  C   UNL     1       3.671   2.192  -0.022  0.00  0.00    +0.092 C 
ATOM      2  C   UNL     1       3.749   3.048   1.210  0.00  0.00    +0.067 A 
ATOM      3  C   UNL     1       3.581   4.406   1.173  0.00  0.00    +0.126 A 
ATOM      4  N   UNL     1       3.706   4.871   2.430  0.00  0.00    -0.260 N 
ATOM      5  H   UNL     1       3.631   5.827   2.715  0.00  0.00    +0.190 HD
ATOM      6  N   UNL     1       3.962   3.776   3.268  0.00  0.00    -0.134 NA
ATOM      7  C   UNL     1       3.987   2.686   2.533  0.00  0.00    +0.237 A 
ATOM      8  N   UNL     1       3.329   5.071  -0.021  0.00  0.00    -0.303 N 
ATOM      9  C   UNL     1       3.548   4.405  -1.201  0.00  0.00    +0.017 C 
ATOM     10  C   UNL     1       3.725   3.068  -1.255  0.00  0.00    +0.024 C 
ATOM     11  C   UNL     1       3.973   2.421  -2.479  0.00  0.00    +0.162 C 
ATOM     12  O   UNL     1       4.122   1.215  -2.494  0.00  0.00    -0.292 OA
ATOM     13  C   UNL     1       4.059   3.187  -3.769  0.00  0.00    +0.088 C 
ATOM     14  C   UNL     1       4.546   4.609  -3.470  0.00  0.00    +0.039 C 
ATOM     15  C   UNL     1       3.588   5.242  -2.460  0.00  0.00    +0.060 C 
ATOM     16  H   UNL     1       3.007   5.986  -0.021  0.00  0.00    +0.153 HD
ENDROOT
BRANCH   1  20
ATOM     17  C   UNL     1       0.002  -0.004   0.002  0.00  0.00    -0.018 A 
ATOM     18  C   UNL     1      -0.017   1.389   0.010  0.00  0.00    +0.009 A 
ATOM     19  C   UNL     1       1.170   2.093   0.002  0.00  0.00    +0.005 A 
ATOM     20  C   UNL     1       2.377   1.418  -0.013  0.00  0.00    -0.035 A 
ATOM     21  C   UNL     1       2.402   0.035  -0.021  0.00  0.00    +0.005 A 
ATOM     22  C   UNL     1       1.221  -0.679  -0.013  0.00  0.00    +0.009 A 
BRANCH  17  26
ATOM     23  C   UNL     1      -3.647  -2.188   0.027  0.00  0.00    +0.000 A 
ATOM     24  C   UNL     1      -2.440  -2.863   0.011  0.00  0.00    +0.001 A 
ATOM     25  C   UNL     1      -1.252  -2.159   0.003  0.00  0.00    +0.008 A 
ATOM     26  C   UNL     1      -1.271  -0.766   0.011  0.00  0.00    -0.018 A 
ATOM     27  C   UNL     1      -2.490  -0.091   0.032  0.00  0.00    +0.008 A 
ATOM     28  C   UNL     1      -3.671  -0.805   0.035  0.00  0.00    +0.001 A 
ENDBRANCH  17  26
ENDBRANCH   1  20
BRANCH  14  29
ATOM     29  C   UNL     1       4.556   5.421  -4.740  0.00  0.00    -0.006 A 
ATOM     30  C   UNL     1       5.596   6.042  -5.348  0.00  0.00    +0.011 A 
ATOM     31  C   UNL     1       5.369   6.735  -6.522  0.00  0.00    +0.008 A 
ATOM     32  C   UNL     1       4.111   6.782  -7.025  0.00  0.00    +0.045 A 
ATOM     33  S   UNL     1       3.199   5.820  -5.829  0.00  0.00    -0.101 S 
ENDBRANCH  14  29
BRANCH   7  34
ATOM     34  O   UNL     1       4.207   1.423   2.987  0.00  0.00    -0.491 OA
ATOM     35  H   UNL     1       4.349   1.445   3.976  0.00  0.00    +0.294 HD
ENDBRANCH   7  34
TORSDOF 4
