REMARK  Name = ZINC67257074
REMARK  5 active torsions:
REMARK  status: ('A' for Active; 'I' for Inactive)
REMARK    1  A    between atoms: C_1  and  O_2
REMARK    2  A    between atoms: O_2  and  C_3
REMARK    3  A    between atoms: C_4  and  N_10
REMARK    4  A    between atoms: C_11  and  C_13
REMARK    5  A    between atoms: N_15  and  C_16
REMARK                            x       y       z     vdW  Elec       q    Type
REMARK                         _______ _______ _______ _____ _____    ______ ____
ROOT
ATOM      1  C   UNL     1      -1.202  -0.423   4.881  0.00  0.00    +0.300 C 
ATOM      2  O   UNL     1      -0.128   0.142   4.874  0.00  0.00    -0.265 OA
ATOM      3  N   UNL     1      -1.837  -0.648   6.048  0.00  0.00    -0.302 N 
ATOM      4  H   UNL     1      -2.696  -1.099   6.054  0.00  0.00    +0.150 HD
ENDROOT
BRANCH   3   5
ATOM      5  C   UNL     1      -1.231  -0.211   7.308  0.00  0.00    +0.036 C 
ATOM      6  C   UNL     1       0.125  -0.897   7.487  0.00  0.00    +0.029 C 
ATOM      7  C   UNL     1       0.759  -0.441   8.802  0.00  0.00    -0.008 C 
ATOM      8  C   UNL     1      -0.160  -0.816   9.967  0.00  0.00    +0.007 C 
ATOM      9  C   UNL     1      -1.516  -0.129   9.789  0.00  0.00    -0.008 C 
ATOM     10  C   UNL     1      -2.149  -0.586   8.473  0.00  0.00    +0.029 C 
ATOM     11  C   UNL     1      -1.319   1.388   9.762  0.00  0.00    +0.007 C 
ATOM     12  C   UNL     1      -0.401   1.762   8.597  0.00  0.00    -0.008 C 
ATOM     13  C   UNL     1       0.955   1.076   8.775  0.00  0.00    +0.007 C 
ATOM     14  C   UNL     1      -1.035   1.306   7.281  0.00  0.00    +0.029 C 
ENDBRANCH   3   5
BRANCH   1  16
ATOM     15  N   UNL     1      -1.186  -0.643   2.429  0.00  0.00    -0.275 N 
ATOM     16  C   UNL     1      -1.821  -0.868   3.597  0.00  0.00    +0.303 C 
ATOM     17  O   UNL     1      -2.895  -1.433   3.604  0.00  0.00    -0.265 OA
ATOM     18  H   UNL     1      -0.299  -0.250   2.428  0.00  0.00    +0.155 HD
BRANCH  15  20
ATOM     19  C   UNL     1      -1.599  -0.187   0.090  0.00  0.00    +0.159 A 
ATOM     20  C   UNL     1      -1.806  -0.975   1.220  0.00  0.00    +0.077 A 
ATOM     21  C   UNL     1      -2.628  -2.090   1.144  0.00  0.00    +0.027 A 
ATOM     22  C   UNL     1      -3.240  -2.417  -0.052  0.00  0.00    +0.003 A 
ATOM     23  C   UNL     1      -3.035  -1.635  -1.174  0.00  0.00    +0.024 A 
ATOM     24  C   UNL     1      -2.221  -0.519  -1.104  0.00  0.00    +0.084 A 
ATOM     25 CL   UNL     1      -1.972   0.463  -2.514  0.00  0.00    -0.080 Cl
BRANCH  19  27
ATOM     26  C   UNL     1      -1.413   2.145   0.514  0.00  0.00    +0.277 C 
ATOM     27  O   UNL     1      -0.795   0.907   0.159  0.00  0.00    -0.492 OA
ENDBRANCH  19  27
ENDBRANCH  15  20
ENDBRANCH   1  16
TORSDOF 4
