REMARK  Name = ZINC52094708
REMARK  8 active torsions:
REMARK  status: ('A' for Active; 'I' for Inactive)
REMARK    1  A    between atoms: C_1  and  C_2
REMARK    2  A    between atoms: C_2  and  C_3
REMARK    3  A    between atoms: C_3  and  N_4
REMARK    4  A    between atoms: N_4  and  C_5
REMARK    5  A    between atoms: C_5  and  C_7
REMARK    6  A    between atoms: C_5  and  C_20
REMARK    7  A    between atoms: C_20  and  C_21
REMARK    8  A    between atoms: C_20  and  C_22
REMARK                            x       y       z     vdW  Elec       q    Type
REMARK                         _______ _______ _______ _____ _____    ______ ____
ROOT
ATOM      1  C   UNL     1      -2.729  -3.972   0.403  0.00  0.00    -0.045 A 
ATOM      2  C   UNL     1      -1.540  -4.644   0.199  0.00  0.00    +0.031 A 
ATOM      3  C   UNL     1      -1.468  -6.008   0.439  0.00  0.00    +0.067 A 
ATOM      4  C   UNL     1      -2.598  -6.696   0.886  0.00  0.00    +0.068 A 
ATOM      5  C   UNL     1      -3.787  -6.013   1.088  0.00  0.00    +0.043 A 
ATOM      6  C   UNL     1      -3.848  -4.653   0.852  0.00  0.00    +0.022 A 
ATOM      7 BR   UNL     1      -5.468  -3.719   1.135  0.00  0.00    -0.050 Br
ATOM      8  N   UNL     1      -2.224  -8.029   1.036  0.00  0.00    -0.306 N 
ATOM      9  H   UNL     1      -2.800  -8.750   1.335  0.00  0.00    +0.170 HD
ATOM     10  C   UNL     1      -0.926  -8.147   0.696  0.00  0.00    +0.325 A 
ATOM     11  O   UNL     1      -0.288  -9.183   0.714  0.00  0.00    -0.247 OA
ATOM     12  N   UNL     1      -0.443  -6.945   0.331  0.00  0.00    -0.306 N 
ATOM     13  H   UNL     1       0.465  -6.762   0.042  0.00  0.00    +0.170 HD
ENDROOT
BRANCH   1  14
ATOM     14  C   UNL     1      -2.807  -2.490   0.142  0.00  0.00    -0.037 C 
BRANCH  14  15
ATOM     15  N   UNL     1      -1.518  -1.866   0.470  0.00  0.00    +0.384 N 
ATOM     16  H   UNL     1      -0.810  -2.200  -0.167  0.00  0.00    -0.085 HD
ATOM     17  H   UNL     1      -1.260  -2.106   1.416  0.00  0.00    -0.085 HD
BRANCH  15  18
ATOM     18  C   UNL     1      -1.635  -0.407   0.350  0.00  0.00    -0.082 C 
BRANCH  18  20
ATOM     19  C   UNL     1      -0.461   1.770   0.703  0.00  0.00    +0.002 C 
ATOM     20  C   UNL     1      -0.339   0.250   0.828  0.00  0.00    -0.022 C 
ENDBRANCH  18  20
ENDBRANCH  15  18
ENDBRANCH  14  15
BRANCH  14  21
ATOM     21  C   UNL     1      -3.129  -2.248  -1.334  0.00  0.00    -0.027 C 
ATOM     22  C   UNL     1      -2.063  -2.917  -2.205  0.00  0.00    +0.006 C 
ATOM     23  C   UNL     1      -4.501  -2.841  -1.661  0.00  0.00    +0.006 C 
ENDBRANCH  14  21
ENDBRANCH   1  14
TORSDOF 5
