REMARK  Name = ZINC63383883
REMARK  9 active torsions:
REMARK  status: ('A' for Active; 'I' for Inactive)
REMARK    1  A    between atoms: C_1  and  C_2
REMARK    2  A    between atoms: C_2  and  C_4
REMARK    3  A    between atoms: C_2  and  N_12
REMARK    4  A    between atoms: N_6  and  C_7
REMARK    5  A    between atoms: C_7  and  C_8
REMARK    6  A    between atoms: C_8  and  C_9
REMARK    7  A    between atoms: C_9  and  C_10
REMARK    8  A    between atoms: C_9  and  C_11
REMARK    9  A    between atoms: C_13  and  C_15
REMARK                            x       y       z     vdW  Elec       q    Type
REMARK                         _______ _______ _______ _____ _____    ______ ____
ROOT
ATOM      1  C   UNL     1       0.780  -1.133   3.576  0.00  0.00    +0.167 C 
ATOM      2  C   UNL     1       1.231  -2.589   3.354  0.00  0.00    +0.065 C 
ATOM      3  C   UNL     1       0.619  -3.414   4.459  0.00  0.00    -0.034 C 
ATOM      4  C   UNL     1      -0.098  -4.533   4.405  0.00  0.00    -0.001 A 
ATOM      5  C   UNL     1      -0.461  -5.408   3.278  0.00  0.00    +0.010 A 
ATOM      6  C   UNL     1      -1.234  -6.484   3.581  0.00  0.00    +0.001 A 
ATOM      7  C   UNL     1      -1.678  -6.773   4.875  0.00  0.00    +0.002 A 
ATOM      8  C   UNL     1      -1.387  -6.027   5.970  0.00  0.00    +0.026 A 
ATOM      9  C   UNL     1      -0.572  -4.873   5.780  0.00  0.00    +0.043 A 
ATOM     10  N   UNL     1      -0.128  -4.006   6.641  0.00  0.00    -0.375 N 
ATOM     11  C   UNL     1       0.722  -3.048   5.933  0.00  0.00    +0.131 C 
ATOM     12  C   UNL     1       0.217  -1.614   6.082  0.00  0.00    +0.134 C 
ATOM     13  N   UNL     1      -0.119  -1.105   4.737  0.00  0.00    -0.276 N 
ATOM     14  C   UNL     1      -1.382  -0.638   4.759  0.00  0.00    +0.248 C 
ATOM     15  O   UNL     1      -1.922  -0.046   3.845  0.00  0.00    -0.270 OA
ATOM     16  C   UNL     1      -2.009  -0.947   6.046  0.00  0.00    +0.042 A 
ATOM     17  C   UNL     1      -1.039  -1.554   6.886  0.00  0.00    -0.013 A 
ATOM     18  C   UNL     1      -1.331  -1.963   8.168  0.00  0.00    +0.006 A 
ATOM     19  C   UNL     1      -2.630  -1.748   8.620  0.00  0.00    +0.000 A 
ATOM     20  C   UNL     1      -3.587  -1.151   7.825  0.00  0.00    +0.001 A 
ATOM     21  C   UNL     1      -3.312  -0.730   6.502  0.00  0.00    +0.013 A 
ATOM     22  H   UNL     1      -0.327  -3.996   7.590  0.00  0.00    +0.160 HD
ENDROOT
BRANCH   1  24
ATOM     23  N   UNL     1       0.594   0.340   1.597  0.00  0.00    -0.303 N 
ATOM     24  C   UNL     1       0.051  -0.633   2.355  0.00  0.00    +0.234 C 
ATOM     25  O   UNL     1      -1.024  -1.107   2.055  0.00  0.00    -0.274 OA
ATOM     26  H   UNL     1       1.454   0.719   1.838  0.00  0.00    +0.149 HD
BRANCH  23  28
ATOM     27  C   UNL     1      -1.116   1.906   0.821  0.00  0.00    +0.038 C 
ATOM     28  C   UNL     1      -0.114   0.825   0.411  0.00  0.00    +0.156 C 
BRANCH  28  29
ATOM     29  C   UNL     1       0.878   1.404  -0.565  0.00  0.00    +0.233 C 
ATOM     30  O   UNL     1       2.060   1.411  -0.295  0.00  0.00    -0.274 OA
ATOM     31  N   UNL     1       0.451   1.914  -1.737  0.00  0.00    -0.314 N 
ATOM     32  H   UNL     1      -0.495   1.909  -1.953  0.00  0.00    +0.149 HD
BRANCH  31  33
ATOM     33  C   UNL     1       1.415   2.477  -2.685  0.00  0.00    +0.104 C 
BRANCH  33  34
ATOM     34  C   UNL     1       0.675   2.984  -3.925  0.00  0.00    +0.022 C 
BRANCH  34  35
ATOM     35  C   UNL     1       1.682   3.572  -4.915  0.00  0.00    -0.016 C 
ATOM     36  C   UNL     1       0.959   3.965  -6.205  0.00  0.00    +0.007 C 
ATOM     37  C   UNL     1       2.338   4.810  -4.301  0.00  0.00    +0.007 C 
ENDBRANCH  34  35
ENDBRANCH  33  34
ENDBRANCH  31  33
ENDBRANCH  28  29
ENDBRANCH  23  28
ENDBRANCH   1  24
TORSDOF 6
