REMARK  Name = ZINC39664456
REMARK  8 active torsions:
REMARK  status: ('A' for Active; 'I' for Inactive)
REMARK    1  A    between atoms: C_1  and  C_2
REMARK    2  A    between atoms: C_5  and  C_9
REMARK    3  A    between atoms: C_6  and  C_8
REMARK    4  A    between atoms: C_13  and  C_22
REMARK    5  A    between atoms: N_24  and  C_25
REMARK    6  A    between atoms: C_25  and  C_26
REMARK    7  A    between atoms: C_26  and  C_28
REMARK    8  A    between atoms: C_26  and  N_34
REMARK                            x       y       z     vdW  Elec       q    Type
REMARK                         _______ _______ _______ _____ _____    ______ ____
ROOT
ATOM      1  C   UNL     1      -1.266  -3.919  -1.436  0.00  0.00    +0.247 C 
ATOM      2  O   UNL     1      -1.328  -4.295  -0.281  0.00  0.00    -0.270 OA
ATOM      3  N   UNL     1      -0.975  -4.798  -2.415  0.00  0.00    -0.296 N 
ATOM      4  C   UNL     1      -0.746  -4.514  -3.852  0.00  0.00    +0.121 C 
ATOM      5  C   UNL     1       0.416  -5.450  -4.254  0.00  0.00    +0.100 C 
ATOM      6  C   UNL     1       0.365  -6.599  -3.233  0.00  0.00    -0.004 C 
ATOM      7  C   UNL     1      -0.807  -6.266  -2.298  0.00  0.00    +0.115 C 
ATOM      8  C   UNL     1       0.116  -7.926  -3.943  0.00  0.00    -0.010 C 
ATOM      9  C   UNL     1       0.128  -9.060  -2.914  0.00  0.00    -0.082 C 
ATOM     10  N   UNL     1       1.425  -9.086  -2.227  0.00  0.00    +0.379 N 
ATOM     11  C   UNL     1       1.616  -7.843  -1.471  0.00  0.00    -0.082 C 
ATOM     12  C   UNL     1       1.667  -6.657  -2.439  0.00  0.00    -0.010 C 
ATOM     13  H   UNL     1       1.453  -9.871  -1.594  0.00  0.00    -0.086 HD
ATOM     14  H   UNL     1       2.163  -9.181  -2.909  0.00  0.00    -0.086 HD
ENDROOT
BRANCH   1  19
ATOM     15  C   UNL     1      -2.212   1.611  -2.717  0.00  0.00    +0.044 C 
ATOM     16  C   UNL     1      -1.964   0.162  -2.381  0.00  0.00    -0.050 A 
ATOM     17  C   UNL     1      -2.559  -0.832  -3.138  0.00  0.00    +0.004 A 
ATOM     18  C   UNL     1      -2.337  -2.159  -2.836  0.00  0.00    +0.013 A 
ATOM     19  C   UNL     1      -1.508  -2.499  -1.765  0.00  0.00    +0.040 A 
ATOM     20  C   UNL     1      -0.911  -1.491  -1.006  0.00  0.00    -0.038 A 
ATOM     21  C   UNL     1      -1.138  -0.167  -1.322  0.00  0.00    +0.007 A 
ATOM     22  C   UNL     1      -0.016  -1.849   0.152  0.00  0.00    +0.044 C 
ENDBRANCH   1  19
BRANCH   5  23
ATOM     23  C   UNL     1       1.732  -4.721  -4.163  0.00  0.00    +0.218 C 
ATOM     24  O   UNL     1       1.857  -3.789  -3.398  0.00  0.00    -0.275 OA
ATOM     25  N   UNL     1       2.769  -5.106  -4.933  0.00  0.00    -0.313 N 
ATOM     26  H   UNL     1       2.669  -5.851  -5.545  0.00  0.00    +0.149 HD
BRANCH  25  27
ATOM     27  C   UNL     1       4.049  -4.398  -4.845  0.00  0.00    +0.127 C 
BRANCH  27  28
ATOM     28  C   UNL     1       5.049  -5.029  -5.815  0.00  0.00    +0.104 C 
BRANCH  28  29
ATOM     29  C   UNL     1       6.398  -4.382  -5.637  0.00  0.00    -0.029 A 
ATOM     30  C   UNL     1       7.118  -3.968  -6.742  0.00  0.00    +0.005 A 
ATOM     31  C   UNL     1       8.355  -3.374  -6.579  0.00  0.00    +0.000 A 
ATOM     32  C   UNL     1       8.874  -3.195  -5.310  0.00  0.00    +0.000 A 
ATOM     33  C   UNL     1       8.154  -3.608  -4.205  0.00  0.00    +0.000 A 
ATOM     34  C   UNL     1       6.914  -4.197  -4.368  0.00  0.00    +0.005 A 
ENDBRANCH  28  29
BRANCH  28  35
ATOM     35  N   UNL     1       5.156  -6.468  -5.541  0.00  0.00    -0.290 NA
ATOM     36  C   UNL     1       5.734  -6.709  -4.211  0.00  0.00    +0.113 C 
ATOM     37  C   UNL     1       5.772  -8.216  -3.942  0.00  0.00    +0.175 C 
ATOM     38  O   UNL     1       6.514  -8.862  -4.981  0.00  0.00    -0.377 OA
ATOM     39  C   UNL     1       5.979  -8.648  -6.290  0.00  0.00    +0.175 C 
ATOM     40  C   UNL     1       5.943  -7.146  -6.582  0.00  0.00    +0.113 C 
ENDBRANCH  28  35
ENDBRANCH  27  28
ENDBRANCH  25  27
ENDBRANCH   5  23
TORSDOF 6
