REMARK  Name = ZINC27839120
REMARK  2 active torsions:
REMARK  status: ('A' for Active; 'I' for Inactive)
REMARK    1  A    between atoms: C_9  and  O_19
REMARK    2  A    between atoms: C_10  and  O_18
REMARK                            x       y       z     vdW  Elec       q    Type
REMARK                         _______ _______ _______ _____ _____    ______ ____
ROOT
ATOM      1  C   UNL     1       1.171   1.782   0.000  0.00  0.00    +0.001 A 
ATOM      2  C   UNL     1       1.154   3.166   0.009  0.00  0.00    +0.001 A 
ATOM      3  C   UNL     1      -0.048   3.849   0.009  0.00  0.00    +0.011 A 
ATOM      4  C   UNL     1      -1.243   3.157  -0.002  0.00  0.00    +0.038 A 
ATOM      5  C   UNL     1      -1.235   1.760   0.018  0.00  0.00    +0.030 A 
ATOM      6  C   UNL     1      -0.013   1.076   0.008  0.00  0.00    +0.012 A 
ATOM      7  C   UNL     1      -2.618   1.252   0.096  0.00  0.00    +0.206 C 
ATOM      8  O   UNL     1      -2.968   0.152   0.467  0.00  0.00    -0.288 OA
ATOM      9  C   UNL     1      -3.517   2.378  -0.381  0.00  0.00    +0.227 C 
ATOM     10  C   UNL     1      -2.668   3.649  -0.087  0.00  0.00    +0.278 C 
ATOM     11  O   UNL     1      -2.845   4.413  -1.323  0.00  0.00    -0.453 OA
ATOM     12  C   UNL     1      -3.146   3.580  -2.356  0.00  0.00    +0.131 A 
ATOM     13  C   UNL     1      -3.576   2.343  -1.897  0.00  0.00    +0.040 A 
ATOM     14  C   UNL     1      -3.955   1.356  -2.780  0.00  0.00    +0.011 A 
ATOM     15  C   UNL     1      -3.902   1.590  -4.143  0.00  0.00    +0.001 A 
ATOM     16  C   UNL     1      -3.468   2.816  -4.612  0.00  0.00    +0.004 A 
ATOM     17  C   UNL     1      -3.092   3.807  -3.729  0.00  0.00    +0.046 A 
ENDROOT
BRANCH  10  18
ATOM     18  O   UNL     1      -3.077   4.339   1.096  0.00  0.00    -0.349 OA
ATOM     19  H   UNL     1      -4.094   4.751   1.168  0.00  0.00    +0.214 HD
ENDBRANCH  10  18
BRANCH   9  20
ATOM     20  O   UNL     1      -4.802   2.390   0.244  0.00  0.00    -0.371 OA
ATOM     21  H   UNL     1      -5.537   3.162  -0.025  0.00  0.00    +0.211 HD
ENDBRANCH   9  20
TORSDOF 2
