REMARK  Name = ZINC63269882
REMARK  9 active torsions:
REMARK  status: ('A' for Active; 'I' for Inactive)
REMARK    1  A    between atoms: C_1  and  C_2
REMARK    2  A    between atoms: C_6  and  N_9
REMARK    3  A    between atoms: C_7  and  C_8
REMARK    4  A    between atoms: N_9  and  C_10
REMARK    5  A    between atoms: C_15  and  C_16
REMARK    6  A    between atoms: N_18  and  N_19
REMARK    7  A    between atoms: N_22  and  C_23
REMARK    8  A    between atoms: C_23  and  C_24
REMARK    9  A    between atoms: C_23  and  C_25
REMARK                            x       y       z     vdW  Elec       q    Type
REMARK                         _______ _______ _______ _____ _____    ______ ____
ROOT
ATOM      1  C   UNL     1       0.132  -4.180   2.282  0.00  0.00    +0.044 A 
ATOM      2  C   UNL     1       0.208  -4.779   1.031  0.00  0.00    +0.024 A 
ATOM      3  C   UNL     1       0.233  -6.155   0.923  0.00  0.00    +0.002 A 
ATOM      4  C   UNL     1       0.183  -6.948   2.058  0.00  0.00    +0.001 A 
ATOM      5  C   UNL     1       0.108  -6.373   3.308  0.00  0.00    +0.015 A 
ATOM      6  C   UNL     1       0.086  -4.981   3.434  0.00  0.00    +0.059 A 
ENDROOT
BRANCH   6   7
ATOM      7  C   UNL     1       0.011  -4.358   4.768  0.00  0.00    +0.262 C 
ATOM      8  O   UNL     1      -0.127  -3.155   4.870  0.00  0.00    -0.269 OA
ATOM      9  N   UNL     1       0.096  -5.123   5.875  0.00  0.00    -0.229 N 
ATOM     10  H   UNL     1       0.206  -6.084   5.793  0.00  0.00    +0.173 HD
BRANCH   9  11
ATOM     11  N   UNL     1       0.025  -4.532   7.143  0.00  0.00    -0.218 N 
ATOM     12  C   UNL     1       0.109  -5.296   8.249  0.00  0.00    +0.316 C 
ATOM     13  O   UNL     1       0.047  -4.783   9.349  0.00  0.00    -0.251 OA
ATOM     14  N   UNL     1       0.262  -6.631   8.136  0.00  0.00    -0.296 N 
ATOM     15  H   UNL     1      -0.086  -3.571   7.224  0.00  0.00    +0.174 HD
ATOM     16  H   UNL     1       0.311  -7.040   7.258  0.00  0.00    +0.151 HD
BRANCH  14  17
ATOM     17  C   UNL     1       0.353  -7.462   9.338  0.00  0.00    +0.068 C 
ATOM     18  C   UNL     1      -0.097  -8.887   9.009  0.00  0.00    +0.027 C 
ATOM     19  C   UNL     1       1.801  -7.486   9.833  0.00  0.00    +0.027 C 
ENDBRANCH  14  17
ENDBRANCH   9  11
ENDBRANCH   6   7
BRANCH   1  20
ATOM     20  N   UNL     1       0.106  -2.796   2.393  0.00  0.00    -0.314 N 
ATOM     21  H   UNL     1      -0.712  -2.309   2.205  0.00  0.00    +0.152 HD
BRANCH  20  27
ATOM     22  C   UNL     1       2.402   1.472   3.212  0.00  0.00    +0.044 C 
ATOM     23  C   UNL     1       2.400  -0.034   3.182  0.00  0.00    -0.046 A 
ATOM     24  C   UNL     1       3.540  -0.734   3.533  0.00  0.00    +0.004 A 
ATOM     25  C   UNL     1       3.542  -2.116   3.507  0.00  0.00    +0.002 A 
ATOM     26  C   UNL     1       2.405  -2.804   3.129  0.00  0.00    +0.023 A 
ATOM     27  C   UNL     1       1.258  -2.104   2.776  0.00  0.00    +0.035 A 
ATOM     28  C   UNL     1       1.258  -0.715   2.808  0.00  0.00    -0.026 A 
ATOM     29  C   UNL     1       0.014   0.048   2.432  0.00  0.00    +0.046 C 
ENDBRANCH  20  27
ENDBRANCH   1  20
TORSDOF 5
