REMARK  Name = ZINC32862952
REMARK  8 active torsions:
REMARK  status: ('A' for Active; 'I' for Inactive)
REMARK    1  A    between atoms: C_1  and  C_2
REMARK    2  A    between atoms: C_2  and  C_4
REMARK    3  A    between atoms: C_2  and  N_14
REMARK    4  A    between atoms: C_7  and  S_10
REMARK    5  A    between atoms: S_10  and  N_13
REMARK    6  A    between atoms: N_17  and  C_18
REMARK    7  A    between atoms: C_18  and  C_20
REMARK    8  A    between atoms: C_18  and  C_21
REMARK                            x       y       z     vdW  Elec       q    Type
REMARK                         _______ _______ _______ _____ _____    ______ ____
ROOT
ATOM      1  N   UNL     1      -4.099   4.146   4.418  0.00  0.00    -0.293 N 
ATOM      2  C   UNL     1      -4.997   4.745   5.224  0.00  0.00    +0.301 C 
ATOM      3  O   UNL     1      -5.665   4.078   5.991  0.00  0.00    -0.253 OA
ATOM      4  N   UNL     1      -5.155   6.082   5.181  0.00  0.00    -0.293 N 
ATOM      5  H   UNL     1      -3.494   4.748   3.724  0.00  0.00    +0.151 HD
ATOM      6  H   UNL     1      -4.551   6.685   4.487  0.00  0.00    +0.151 HD
ENDROOT
BRANCH   1   8
ATOM      7  C   UNL     1      -2.946   2.330   5.582  0.00  0.00    +0.033 C 
ATOM      8  C   UNL     1      -3.927   2.691   4.465  0.00  0.00    +0.102 C 
BRANCH   8   9
ATOM      9  C   UNL     1      -3.386   2.206   3.145  0.00  0.00    -0.027 A 
ATOM     10  C   UNL     1      -3.858   1.029   2.595  0.00  0.00    +0.007 A 
ATOM     11  C   UNL     1      -3.362   0.584   1.384  0.00  0.00    +0.029 A 
ATOM     12  C   UNL     1      -2.394   1.317   0.722  0.00  0.00    +0.105 A 
ATOM     13  C   UNL     1      -1.918   2.491   1.274  0.00  0.00    +0.029 A 
ATOM     14  C   UNL     1      -2.417   2.938   2.483  0.00  0.00    +0.007 A 
BRANCH  12  15
ATOM     15  S   UNL     1      -1.762   0.749  -0.821  0.00  0.00    +0.056 S 
ATOM     16  O   UNL     1      -1.972  -0.656  -0.855  0.00  0.00    -0.153 OA
ATOM     17  O   UNL     1      -0.474   1.331  -0.971  0.00  0.00    -0.153 OA
BRANCH  15  18
ATOM     18  N   UNL     1      -2.715   1.398  -2.010  0.00  0.00    -0.204 NA
ATOM     19  H   UNL     1      -2.352   1.067  -2.993  0.00  0.00    +0.144 HD
ATOM     20  H   UNL     1      -2.674   2.496  -1.954  0.00  0.00    +0.144 HD
ENDBRANCH  15  18
ENDBRANCH  12  15
ENDBRANCH   8   9
ENDBRANCH   1   8
BRANCH   4  21
ATOM     21  C   UNL     1      -6.131   6.734   6.057  0.00  0.00    +0.103 C 
ATOM     22  C   UNL     1      -5.476   7.052   7.403  0.00  0.00    +0.033 C 
BRANCH  21  23
ATOM     23  C   UNL     1      -6.609   8.011   5.416  0.00  0.00    -0.009 A 
ATOM     24  C   UNL     1      -5.790   8.688   4.531  0.00  0.00    +0.008 A 
ATOM     25  C   UNL     1      -6.227   9.860   3.943  0.00  0.00    +0.020 A 
ATOM     26  C   UNL     1      -7.484  10.357   4.240  0.00  0.00    +0.042 A 
ATOM     27  C   UNL     1      -8.303   9.680   5.125  0.00  0.00    +0.040 A 
ATOM     28  C   UNL     1      -7.868   8.504   5.709  0.00  0.00    +0.047 A 
ATOM     29 CL   UNL     1      -8.899   7.649   6.814  0.00  0.00    -0.083 Cl
ATOM     30 CL   UNL     1      -8.033  11.828   3.501  0.00  0.00    -0.083 Cl
ENDBRANCH  21  23
ENDBRANCH   4  21
TORSDOF 6
