REMARK  Name = ZINC62825197
REMARK  4 active torsions:
REMARK  status: ('A' for Active; 'I' for Inactive)
REMARK    1  A    between atoms: C_1  and  S_2
REMARK    2  A    between atoms: S_2  and  N_5
REMARK    3  A    between atoms: N_5  and  C_6
REMARK    4  A    between atoms: C_7  and  C_14
REMARK                            x       y       z     vdW  Elec       q    Type
REMARK                         _______ _______ _______ _____ _____    ______ ____
ROOT
ATOM      1  C   UNL     1       0.995  -1.767  -1.613  0.00  0.00    +0.102 A 
ATOM      2  C   UNL     1       1.731  -2.201  -2.729  0.00  0.00    +0.090 A 
ATOM      3  C   UNL     1       1.926  -3.570  -2.938  0.00  0.00    +0.032 A 
ATOM      4  C   UNL     1       1.397  -4.482  -2.051  0.00  0.00    +0.020 A 
ATOM      5  C   UNL     1       0.671  -4.051  -0.951  0.00  0.00    +0.032 A 
ATOM      6  C   UNL     1       0.474  -2.703  -0.727  0.00  0.00    +0.044 A 
ATOM      7 BR   UNL     1      -0.511  -2.130   0.781  0.00  0.00    -0.048 Br
ATOM      8 BR   UNL     1       1.661  -6.333  -2.336  0.00  0.00    -0.050 Br
ENDROOT
BRANCH   2   9
ATOM      9  C   UNL     1       2.292  -1.222  -3.672  0.00  0.00    +0.389 C 
ATOM     10  O   UNL     1       2.932  -1.603  -4.642  0.00  0.00    -0.241 OA
ATOM     11  O   UNL     1       2.119  -0.025  -3.486  0.00  0.00    -0.241 OA
ENDBRANCH   2   9
BRANCH   1  12
ATOM     12  N   UNL     1       0.795  -0.411  -1.394  0.00  0.00    -0.101 NA
BRANCH  12  14
ATOM     13  C   UNL     1      -0.472   2.033  -1.380  0.00  0.00    +0.220 C 
ATOM     14  S   UNL     1      -0.709   0.249  -1.609  0.00  0.00    +0.060 S 
ATOM     15  O   UNL     1      -1.492  -0.281  -0.547  0.00  0.00    -0.154 OA
ATOM     16  O   UNL     1      -1.038  -0.032  -2.962  0.00  0.00    -0.154 OA
ENDBRANCH  12  14
ENDBRANCH   1  12
TORSDOF 3
