REMARK  Name = ZINC24737699
REMARK  8 active torsions:
REMARK  status: ('A' for Active; 'I' for Inactive)
REMARK    1  A    between atoms: C_1  and  C_2
REMARK    2  A    between atoms: C_6  and  N_9
REMARK    3  A    between atoms: C_7  and  C_8
REMARK    4  A    between atoms: C_10  and  C_12
REMARK    5  A    between atoms: C_12  and  N_13
REMARK    6  A    between atoms: N_13  and  C_14
REMARK    7  A    between atoms: C_15  and  C_17
REMARK    8  A    between atoms: C_17  and  N_18
REMARK                            x       y       z     vdW  Elec       q    Type
REMARK                         _______ _______ _______ _____ _____    ______ ____
ROOT
ATOM      1  N   UNL     1      -3.513   2.125   0.127  0.00  0.00    -0.294 N 
ATOM      2  C   UNL     1      -4.104   2.551  -1.144  0.00  0.00    +0.132 C 
ATOM      3  C   UNL     1      -3.921   2.686   1.282  0.00  0.00    +0.234 C 
ATOM      4  O   UNL     1      -3.432   2.332   2.334  0.00  0.00    -0.274 OA
ENDROOT
BRANCH   1   5
ATOM      5  C   UNL     1      -2.478   1.088   0.142  0.00  0.00    +0.203 C 
BRANCH   5   7
ATOM      6  N   UNL     1      -0.011   0.966   0.007  0.00  0.00    -0.284 N 
ATOM      7  C   UNL     1      -1.121   1.731   0.017  0.00  0.00    +0.235 C 
ATOM      8  O   UNL     1      -1.027   2.936  -0.076  0.00  0.00    -0.274 OA
ATOM      9  H   UNL     1      -0.099  -0.131   0.022  0.00  0.00    +0.155 HD
BRANCH   6  15
ATOM     10  C   UNL     1       4.717   0.941   1.353  0.00  0.00    +0.044 C 
ATOM     11  C   UNL     1       3.562   1.576   0.623  0.00  0.00    -0.046 A 
ATOM     12  C   UNL     1       3.751   2.754  -0.076  0.00  0.00    +0.004 A 
ATOM     13  C   UNL     1       2.694   3.340  -0.747  0.00  0.00    +0.002 A 
ATOM     14  C   UNL     1       1.445   2.749  -0.722  0.00  0.00    +0.023 A 
ATOM     15  C   UNL     1       1.252   1.567  -0.021  0.00  0.00    +0.037 A 
ATOM     16  C   UNL     1       2.315   0.984   0.658  0.00  0.00    -0.026 A 
ATOM     17  C   UNL     1       2.109  -0.296   1.426  0.00  0.00    +0.046 C 
ENDBRANCH   6  15
ENDBRANCH   5   7
ENDBRANCH   1   5
BRANCH   3  18
ATOM     18  C   UNL     1      -4.986   3.752   1.267  0.00  0.00    +0.213 C 
BRANCH  18  19
ATOM     19  N   UNL     1      -5.250   4.198   2.638  0.00  0.00    -0.215 N 
ATOM     20  C   UNL     1      -4.600   5.214   3.245  0.00  0.00    +0.251 C 
ATOM     21  O   UNL     1      -3.719   5.906   2.781  0.00  0.00    -0.272 OA
ATOM     22  C   UNL     1      -5.202   5.303   4.623  0.00  0.00    +0.138 C 
ATOM     23  C   UNL     1      -5.831   6.680   4.867  0.00  0.00    +0.045 C 
ATOM     24  C   UNL     1      -5.600   6.879   6.383  0.00  0.00    +0.038 C 
ATOM     25  C   UNL     1      -4.392   6.028   6.715  0.00  0.00    -0.042 A 
ATOM     26  C   UNL     1      -4.165   5.117   5.697  0.00  0.00    -0.012 A 
ATOM     27  C   UNL     1      -3.105   4.232   5.792  0.00  0.00    +0.006 A 
ATOM     28  C   UNL     1      -2.275   4.254   6.896  0.00  0.00    +0.000 A 
ATOM     29  C   UNL     1      -2.502   5.163   7.912  0.00  0.00    +0.000 A 
ATOM     30  C   UNL     1      -3.558   6.048   7.820  0.00  0.00    +0.004 A 
ATOM     31  N   UNL     1      -6.212   4.243   4.653  0.00  0.00    -0.281 N 
ATOM     32  C   UNL     1      -6.172   3.652   3.442  0.00  0.00    +0.310 C 
ATOM     33  O   UNL     1      -6.889   2.726   3.118  0.00  0.00    -0.252 OA
ATOM     34  H   UNL     1      -6.810   4.080   5.561  0.00  0.00    +0.152 HD
ENDBRANCH  18  19
ENDBRANCH   3  18
TORSDOF 5
