REMARK  Name = ZINC66684521
REMARK  9 active torsions:
REMARK  status: ('A' for Active; 'I' for Inactive)
REMARK    1  A    between atoms: C_1  and  C_2
REMARK    2  A    between atoms: C_5  and  N_14
REMARK    3  A    between atoms: C_7  and  C_8
REMARK    4  A    between atoms: N_10  and  C_11
REMARK    5  A    between atoms: C_11  and  C_12
REMARK    6  A    between atoms: C_11  and  C_13
REMARK    7  A    between atoms: N_17  and  C_18
REMARK    8  A    between atoms: C_18  and  C_20
REMARK    9  A    between atoms: C_18  and  C_21
REMARK                            x       y       z     vdW  Elec       q    Type
REMARK                         _______ _______ _______ _____ _____    ______ ____
ROOT
ATOM      1  N   UNL     1       0.167  -4.358   0.201  0.00  0.00    -0.269 N 
ATOM      2  C   UNL     1       0.250  -5.164  -0.876  0.00  0.00    +0.304 C 
ATOM      3  O   UNL     1       0.184  -4.691  -1.995  0.00  0.00    -0.252 OA
ATOM      4  N   UNL     1       0.407  -6.492  -0.714  0.00  0.00    -0.293 N 
ATOM      5  H   UNL     1       0.147  -4.741   1.093  0.00  0.00    +0.156 HD
ATOM      6  H   UNL     1       0.460  -6.869   0.178  0.00  0.00    +0.151 HD
ENDROOT
BRANCH   1  11
ATOM      7  C   UNL     1      -0.048   1.283  -0.452  0.00  0.00    +0.044 C 
ATOM      8  C   UNL     1       0.007  -0.213  -0.281  0.00  0.00    -0.038 A 
ATOM      9  C   UNL     1       0.677  -0.761   0.794  0.00  0.00    +0.006 A 
ATOM     10  C   UNL     1       0.730  -2.133   0.955  0.00  0.00    +0.023 A 
ATOM     11  C   UNL     1       0.110  -2.970   0.035  0.00  0.00    +0.035 A 
ATOM     12  C   UNL     1      -0.565  -2.429  -1.049  0.00  0.00    +0.036 A 
ATOM     13  C   UNL     1      -0.623  -1.045  -1.208  0.00  0.00    +0.041 A 
BRANCH  13  14
ATOM     14  C   UNL     1      -1.346  -0.460  -2.358  0.00  0.00    +0.245 C 
ATOM     15  O   UNL     1      -1.338   0.743  -2.533  0.00  0.00    -0.270 OA
ATOM     16  N   UNL     1      -2.013  -1.261  -3.212  0.00  0.00    -0.309 N 
ATOM     17  H   UNL     1      -2.020  -2.221  -3.072  0.00  0.00    +0.149 HD
BRANCH  16  18
ATOM     18  C   UNL     1      -2.729  -0.682  -4.351  0.00  0.00    +0.067 C 
ATOM     19  C   UNL     1      -1.760  -0.490  -5.519  0.00  0.00    +0.027 C 
ATOM     20  C   UNL     1      -3.859  -1.623  -4.776  0.00  0.00    +0.027 C 
ENDBRANCH  16  18
ENDBRANCH  13  14
ENDBRANCH   1  11
BRANCH   4  21
ATOM     21  C   UNL     1       0.497  -7.368  -1.885  0.00  0.00    +0.102 C 
ATOM     22  C   UNL     1      -0.911  -7.739  -2.354  0.00  0.00    +0.033 C 
BRANCH  21  23
ATOM     23  C   UNL     1       1.252  -8.620  -1.520  0.00  0.00    -0.024 A 
ATOM     24  C   UNL     1       1.035  -9.224  -0.295  0.00  0.00    +0.009 A 
ATOM     25  C   UNL     1       1.726 -10.371   0.045  0.00  0.00    +0.050 A 
ATOM     26  C   UNL     1       2.639 -10.921  -0.843  0.00  0.00    +0.162 A 
ATOM     27  C   UNL     1       2.855 -10.315  -2.075  0.00  0.00    +0.162 A 
ATOM     28  C   UNL     1       2.156  -9.166  -2.411  0.00  0.00    +0.055 A 
ATOM     29  O   UNL     1       3.741 -10.842  -2.964  0.00  0.00    -0.485 OA
ATOM     30  C   UNL     1       4.690 -11.782  -2.447  0.00  0.00    +0.270 C 
ATOM     31  C   UNL     1       3.940 -12.780  -1.554  0.00  0.00    +0.270 C 
ATOM     32  O   UNL     1       3.315 -12.049  -0.493  0.00  0.00    -0.485 OA
ENDBRANCH  21  23
ENDBRANCH   4  21
TORSDOF 5
