REMARK  Name = ZINC37053911
REMARK  6 active torsions:
REMARK  status: ('A' for Active; 'I' for Inactive)
REMARK    1  A    between atoms: C_1  and  C_2
REMARK    2  A    between atoms: C_2  and  C_3
REMARK    3  A    between atoms: C_6  and  N_20
REMARK    4  A    between atoms: C_8  and  S_9
REMARK    5  A    between atoms: S_9  and  N_12
REMARK    6  A    between atoms: C_16  and  C_19
REMARK                            x       y       z     vdW  Elec       q    Type
REMARK                         _______ _______ _______ _____ _____    ______ ____
ROOT
ATOM      1  S   UNL     1      -1.661  -0.254   2.513  0.00  0.00    +0.101 S 
ATOM      2  O   UNL     1      -2.289  -0.902   1.415  0.00  0.00    -0.146 OA
ATOM      3  O   UNL     1      -2.057  -0.481   3.859  0.00  0.00    -0.146 OA
ENDROOT
BRANCH   1   4
ATOM      4  N   UNL     1      -1.803   1.374   2.246  0.00  0.00    -0.111 NA
ATOM      5  C   UNL     1      -2.991   1.943   2.261  0.00  0.00    +0.153 A 
ATOM      6  C   UNL     1      -3.117   3.333   2.028  0.00  0.00    +0.048 A 
ATOM      7  C   UNL     1      -4.351   3.900   2.047  0.00  0.00    +0.008 A 
ATOM      8  C   UNL     1      -5.481   3.101   2.298  0.00  0.00    -0.034 A 
ATOM      9  C   UNL     1      -5.345   1.777   2.519  0.00  0.00    +0.087 A 
ATOM     10  N   UNL     1      -4.115   1.189   2.497  0.00  0.00    -0.345 N 
ATOM     11  C   UNL     1      -6.851   3.727   2.321  0.00  0.00    +0.045 C 
ATOM     12  H   UNL     1      -4.033   0.235   2.654  0.00  0.00    +0.167 HD
ENDBRANCH   1   4
BRANCH   1  18
ATOM     13  C   UNL     1       0.731  -0.503   1.223  0.00  0.00    -0.021 A 
ATOM     14  C   UNL     1       2.078  -0.808   1.146  0.00  0.00    +0.007 A 
ATOM     15  C   UNL     1       2.749  -1.265   2.263  0.00  0.00    +0.023 A 
ATOM     16  C   UNL     1       2.069  -1.420   3.465  0.00  0.00    +0.026 A 
ATOM     17  C   UNL     1       0.717  -1.113   3.538  0.00  0.00    +0.052 A 
ATOM     18  C   UNL     1       0.053  -0.650   2.419  0.00  0.00    +0.117 A 
BRANCH  16  19
ATOM     19  N   UNL     1       2.745  -1.883   4.596  0.00  0.00    -0.358 N 
ATOM     20  H   UNL     1       3.689  -2.097   4.543  0.00  0.00    +0.142 HD
ATOM     21  H   UNL     1       2.269  -1.990   5.435  0.00  0.00    +0.142 HD
ENDBRANCH  16  19
BRANCH  13  23
ATOM     22  C   UNL     1      -0.019   1.526   0.010  0.00  0.00    +0.009 C 
ATOM     23  C   UNL     1       0.002  -0.004   0.002  0.00  0.00    +0.034 C 
ENDBRANCH  13  23
ENDBRANCH   1  18
TORSDOF 4
