REMARK  Name = ZINC55173446
REMARK  5 active torsions:
REMARK  status: ('A' for Active; 'I' for Inactive)
REMARK    1  A    between atoms: C_1  and  C_2
REMARK    2  A    between atoms: C_3  and  C_8
REMARK    3  A    between atoms: C_15  and  C_17
REMARK    4  A    between atoms: C_17  and  O_19
REMARK    5  A    between atoms: O_19  and  C_20
REMARK                            x       y       z     vdW  Elec       q    Type
REMARK                         _______ _______ _______ _____ _____    ______ ____
ROOT
ATOM      1  C   UNL     1       1.644  -0.046  -3.096  0.00  0.00    +0.256 C 
ATOM      2  O   UNL     1       1.393   1.123  -3.322  0.00  0.00    -0.269 OA
ATOM      3  N   UNL     1       1.060  -1.015  -3.829  0.00  0.00    -0.284 N 
ATOM      4  C   UNL     1       1.269  -2.431  -3.500  0.00  0.00    +0.109 C 
ATOM      5  C   UNL     1      -0.096  -3.108  -3.343  0.00  0.00    +0.019 C 
ATOM      6  C   UNL     1      -0.926  -2.872  -4.606  0.00  0.00    +0.004 C 
ATOM      7  C   UNL     1      -1.151  -1.370  -4.799  0.00  0.00    +0.034 C 
ATOM      8  C   UNL     1       0.198  -0.674  -4.969  0.00  0.00    +0.185 C 
ENDROOT
BRANCH   1  11
ATOM      9  C   UNL     1       1.966   1.384  -0.342  0.00  0.00    +0.067 C 
ATOM     10  C   UNL     1       2.771   0.190  -0.787  0.00  0.00    +0.060 A 
ATOM     11  C   UNL     1       2.578  -0.400  -2.029  0.00  0.00    +0.098 A 
ATOM     12  S   UNL     1       3.788  -1.712  -1.960  0.00  0.00    -0.048 S 
ATOM     13  C   UNL     1       4.393  -1.392  -0.422  0.00  0.00    +0.156 A 
ATOM     14  N   UNL     1       3.694  -0.343  -0.027  0.00  0.00    -0.230 NA
ATOM     15  N   UNL     1       5.385  -2.063   0.260  0.00  0.00    -0.337 N 
ATOM     16  H   UNL     1       5.826  -2.824  -0.149  0.00  0.00    +0.144 HD
ATOM     17  H   UNL     1       5.643  -1.773   1.149  0.00  0.00    +0.144 HD
ENDBRANCH   1  11
BRANCH   8  18
ATOM     18  C   UNL     1      -0.009   0.818  -5.018  0.00  0.00    +0.328 C 
ATOM     19  O   UNL     1      -0.478   1.394  -4.065  0.00  0.00    -0.249 OA
BRANCH  18  20
ATOM     20  O   UNL     1       0.329   1.506  -6.120  0.00  0.00    -0.467 OA
ATOM     21  C   UNL     1       0.105   2.918  -6.096  0.00  0.00    +0.280 C 
ENDBRANCH  18  20
ENDBRANCH   8  18
TORSDOF 3
