REMARK  Name = ZINC48981034
REMARK  1 active torsions:
REMARK  status: ('A' for Active; 'I' for Inactive)
REMARK    1  A    between atoms: C_5  and  C_6
REMARK                            x       y       z     vdW  Elec       q    Type
REMARK                         _______ _______ _______ _____ _____    ______ ____
ROOT
ATOM      1  C   UNL     1      -1.127  -0.947   0.008  0.00  0.00    +0.257 A 
ATOM      2  N   UNL     1      -2.402  -0.633   0.017  0.00  0.00    -0.105 NA
ATOM      3  N   UNL     1      -3.106  -1.710   0.020  0.00  0.00    -0.093 NA
ATOM      4  C   UNL     1      -2.311  -2.753   0.013  0.00  0.00    +0.305 A 
ATOM      5  O   UNL     1      -1.044  -2.296   0.000  0.00  0.00    -0.404 OA
ATOM      6  N   UNL     1      -2.702  -4.079   0.014  0.00  0.00    -0.312 N 
ATOM      7  H   UNL     1      -3.645  -4.306   0.020  0.00  0.00    +0.147 HD
ATOM      8  H   UNL     1      -2.033  -4.781   0.009  0.00  0.00    +0.147 HD
ENDROOT
BRANCH   1  13
ATOM      9  C   UNL     1      -0.017   1.378   0.010  0.00  0.00    +0.036 A 
ATOM     10  C   UNL     1       1.186   2.049   0.002  0.00  0.00    +0.026 A 
ATOM     11  C   UNL     1       2.343   1.338  -0.013  0.00  0.00    +0.061 A 
ATOM     12  S   UNL     1       1.754  -0.347  -0.017  0.00  0.00    -0.091 S 
ATOM     13  C   UNL     1       0.002  -0.004   0.002  0.00  0.00    +0.077 A 
ATOM     14 BR   UNL     1       1.225   3.940   0.011  0.00  0.00    -0.050 Br
ENDBRANCH   1  13
TORSDOF 1
