REMARK  Name = ZINC04763235
REMARK  9 active torsions:
REMARK  status: ('A' for Active; 'I' for Inactive)
REMARK    1  A    between atoms: C_1  and  C_2
REMARK    2  A    between atoms: C_6  and  C_30
REMARK    3  A    between atoms: C_7  and  N_8
REMARK    4  A    between atoms: N_8  and  C_9
REMARK    5  A    between atoms: C_10  and  C_22
REMARK    6  A    between atoms: N_16  and  C_18
REMARK    7  A    between atoms: C_18  and  C_19
REMARK    8  A    between atoms: C_25  and  S_28
REMARK    9  A    between atoms: S_28  and  C_29
REMARK                            x       y       z     vdW  Elec       q    Type
REMARK                         _______ _______ _______ _____ _____    ______ ____
ROOT
ATOM      1  C   UNL     1      -3.382   2.272   0.493  0.00  0.00    +0.135 A 
ATOM      2  C   UNL     1      -2.143   1.867   0.028  0.00  0.00    +0.112 A 
ATOM      3  N   UNL     1      -2.184   1.859  -1.313  0.00  0.00    -0.224 NA
ATOM      4  C   UNL     1      -3.387   2.231  -1.715  0.00  0.00    +0.156 A 
ATOM      5  N   UNL     1      -4.157   2.499  -0.602  0.00  0.00    -0.285 N 
ATOM      6  C   UNL     1      -5.454   2.910  -0.771  0.00  0.00    +0.112 A 
ATOM      7  C   UNL     1      -5.954   3.047  -2.016  0.00  0.00    +0.104 A 
ATOM      8  N   UNL     1      -5.210   2.788  -3.096  0.00  0.00    -0.340 N 
ATOM      9  C   UNL     1      -3.964   2.392  -2.990  0.00  0.00    +0.133 A 
ENDROOT
BRANCH   2  10
ATOM     10  C   UNL     1      -0.973   1.510   0.866  0.00  0.00    +0.004 A 
ATOM     11  C   UNL     1      -0.105   0.497   0.457  0.00  0.00    +0.011 A 
ATOM     12  C   UNL     1       0.986   0.171   1.234  0.00  0.00    +0.015 A 
ATOM     13  C   UNL     1       1.218   0.847   2.427  0.00  0.00    +0.008 A 
ATOM     14  C   UNL     1       0.351   1.853   2.839  0.00  0.00    +0.015 A 
ATOM     15  C   UNL     1      -0.741   2.183   2.065  0.00  0.00    +0.011 A 
BRANCH  13  16
ATOM     16  S   UNL     1       2.613   0.428   3.418  0.00  0.00    -0.129 S 
ATOM     17  C   UNL     1       2.497   1.552   4.838  0.00  0.00    +0.090 C 
ENDBRANCH  13  16
ENDBRANCH   2  10
BRANCH   1  18
ATOM     18  N   UNL     1      -3.762   2.419   1.826  0.00  0.00    -0.298 N 
ATOM     19  H   UNL     1      -3.112   2.285   2.533  0.00  0.00    +0.154 HD
BRANCH  18  26
ATOM     20  C   UNL     1      -4.297   5.088   2.655  0.00  0.00    +0.045 C 
ATOM     21  C   UNL     1      -5.386   4.051   2.552  0.00  0.00    -0.029 A 
ATOM     22  C   UNL     1      -6.690   4.385   2.859  0.00  0.00    +0.005 A 
ATOM     23  C   UNL     1      -7.688   3.432   2.771  0.00  0.00    +0.001 A 
ATOM     24  C   UNL     1      -7.386   2.144   2.369  0.00  0.00    +0.005 A 
ATOM     25  C   UNL     1      -6.085   1.804   2.054  0.00  0.00    -0.029 A 
ATOM     26  C   UNL     1      -5.079   2.759   2.142  0.00  0.00    +0.038 A 
ATOM     27  C   UNL     1      -5.757   0.400   1.616  0.00  0.00    +0.045 C 
ENDBRANCH  18  26
ENDBRANCH   1  18
BRANCH   8  28
ATOM     28  C   UNL     1      -5.798   2.952  -4.427  0.00  0.00    +0.216 C 
BRANCH  28  29
ATOM     29  C   UNL     1      -5.566   4.361  -4.909  0.00  0.00    +0.230 C 
ATOM     30  O   UNL     1      -4.969   5.151  -4.209  0.00  0.00    -0.274 OA
ATOM     31  N   UNL     1      -6.024   4.744  -6.117  0.00  0.00    -0.328 N 
ATOM     32  H   UNL     1      -6.502   4.113  -6.677  0.00  0.00    +0.145 HD
ATOM     33  H   UNL     1      -5.875   5.651  -6.427  0.00  0.00    +0.145 HD
ENDBRANCH  28  29
ENDBRANCH   8  28
TORSDOF 6
