REMARK  Name = ZINC00496357
REMARK  5 active torsions:
REMARK  status: ('A' for Active; 'I' for Inactive)
REMARK    1  A    between atoms: C_1  and  C_2
REMARK    2  A    between atoms: C_2  and  C_3
REMARK    3  A    between atoms: N_5  and  N_6
REMARK    4  A    between atoms: C_18  and  C_20
REMARK    5  A    between atoms: C_18  and  C_21
REMARK                            x       y       z     vdW  Elec       q    Type
REMARK                         _______ _______ _______ _____ _____    ______ ____
ROOT
ATOM      1  N   UNL     1      -4.699   3.393  -1.757  0.00  0.00    -0.248 N 
ATOM      2  C   UNL     1      -3.779   3.143  -2.759  0.00  0.00    +0.147 A 
ATOM      3  C   UNL     1      -2.667   2.273  -2.565  0.00  0.00    +0.052 A 
ATOM      4  C   UNL     1      -2.325   1.539  -1.361  0.00  0.00    -0.020 A 
ATOM      5  C   UNL     1      -1.212   0.768  -1.413  0.00  0.00    +0.021 A 
ATOM      6  S   UNL     1      -0.574   0.980  -3.054  0.00  0.00    -0.071 S 
ATOM      7  C   UNL     1      -1.792   2.098  -3.668  0.00  0.00    +0.114 A 
ATOM      8  N   UNL     1      -1.966   2.693  -4.831  0.00  0.00    -0.228 NA
ATOM      9  C   UNL     1      -3.022   3.490  -4.944  0.00  0.00    +0.224 A 
ATOM     10  N   UNL     1      -3.876   3.701  -3.964  0.00  0.00    -0.219 NA
ATOM     11  C   UNL     1      -0.665  -0.072  -0.302  0.00  0.00    +0.203 C 
ATOM     12  O   UNL     1      -1.325   0.313   0.914  0.00  0.00    -0.368 OA
ATOM     13  C   UNL     1      -2.748   0.387   0.789  0.00  0.00    +0.068 C 
ATOM     14  C   UNL     1      -3.140   1.592  -0.071  0.00  0.00    +0.071 C 
ATOM     15  C   UNL     1      -3.372   0.532   2.179  0.00  0.00    +0.041 C 
ATOM     16  C   UNL     1      -3.264  -0.895   0.133  0.00  0.00    +0.041 C 
ATOM     17  H   UNL     1      -4.521   3.099  -0.850  0.00  0.00    +0.172 HD
ENDROOT
BRANCH   1  20
ATOM     18  C   UNL     1      -6.786   4.315  -1.076  0.00  0.00    +0.229 C 
ATOM     19  O   UNL     1      -6.563   3.947   0.058  0.00  0.00    -0.274 OA
ATOM     20  N   UNL     1      -5.889   4.072  -2.052  0.00  0.00    -0.235 N 
ATOM     21  H   UNL     1      -6.067   4.366  -2.959  0.00  0.00    +0.173 HD
BRANCH  18  23
ATOM     22  C   UNL     1      -8.900   5.190  -0.119  0.00  0.00    +0.013 C 
ATOM     23  C   UNL     1      -8.065   5.045  -1.394  0.00  0.00    +0.094 C 
ENDBRANCH  18  23
ENDBRANCH   1  20
TORSDOF 2
