REMARK  Name = ZINC35487670
REMARK  4 active torsions:
REMARK  status: ('A' for Active; 'I' for Inactive)
REMARK    1  A    between atoms: C_1  and  N_2
REMARK    2  A    between atoms: N_2  and  C_3
REMARK    3  A    between atoms: C_3  and  C_5
REMARK    4  A    between atoms: C_3  and  C_19
REMARK                            x       y       z     vdW  Elec       q    Type
REMARK                         _______ _______ _______ _____ _____    ______ ____
ROOT
ATOM      1  C   UNL     1      -1.356  -2.015   0.128  0.00  0.00    -0.052 A 
ATOM      2  C   UNL     1      -0.408  -2.748  -0.566  0.00  0.00    +0.004 A 
ATOM      3  C   UNL     1      -0.383  -4.124  -0.466  0.00  0.00    +0.028 A 
ATOM      4  C   UNL     1      -1.312  -4.780   0.334  0.00  0.00    +0.066 A 
ATOM      5  C   UNL     1      -2.268  -4.042   1.033  0.00  0.00    +0.066 A 
ATOM      6  C   UNL     1      -2.279  -2.655   0.929  0.00  0.00    +0.030 A 
ATOM      7  N   UNL     1      -3.207  -4.680   1.839  0.00  0.00    -0.316 N 
ATOM      8  H   UNL     1      -3.867  -4.158   2.320  0.00  0.00    +0.169 HD
ATOM      9  C   UNL     1      -3.200  -6.024   1.949  0.00  0.00    +0.314 A 
ATOM     10  O   UNL     1      -4.018  -6.586   2.650  0.00  0.00    -0.262 OA
ATOM     11  C   UNL     1      -2.179  -6.814   1.202  0.00  0.00    +0.314 A 
ATOM     12  O   UNL     1      -2.156  -8.025   1.288  0.00  0.00    -0.262 OA
ATOM     13  N   UNL     1      -1.282  -6.169   0.429  0.00  0.00    -0.316 N 
ATOM     14  H   UNL     1      -0.614  -6.673  -0.061  0.00  0.00    +0.169 HD
ENDROOT
BRANCH   1  15
ATOM     15  C   UNL     1      -1.376  -0.512   0.012  0.00  0.00    +0.026 C 
BRANCH  15  16
ATOM     16  C   UNL     1      -2.067  -0.116  -1.267  0.00  0.00    +0.097 A 
ATOM     17  C   UNL     1      -3.340   0.306  -1.375  0.00  0.00    +0.044 A 
ATOM     18  C   UNL     1      -3.570   0.567  -2.745  0.00  0.00    +0.057 A 
ATOM     19  C   UNL     1      -2.424   0.289  -3.393  0.00  0.00    +0.170 A 
ATOM     20  O   UNL     1      -1.515  -0.119  -2.491  0.00  0.00    -0.454 OA
ATOM     21 BR   UNL     1      -2.138   0.452  -5.255  0.00  0.00    -0.008 Br
ENDBRANCH  15  16
BRANCH  15  23
ATOM     22  C   UNL     1      -0.018   1.465   0.010  0.00  0.00    -0.099 C 
ATOM     23  N   UNL     1       0.002  -0.004   0.002  0.00  0.00    +0.386 N 
ATOM     24  H   UNL     1       0.474  -0.330  -0.828  0.00  0.00    -0.085 HD
ATOM     25  H   UNL     1       0.490  -0.338   0.820  0.00  0.00    -0.085 HD
ENDBRANCH  15  23
ENDBRANCH   1  15
TORSDOF 3
