REMARK  Name = ZINC04730400
REMARK  6 active torsions:
REMARK  status: ('A' for Active; 'I' for Inactive)
REMARK    1  A    between atoms: C_1  and  O_2
REMARK    2  A    between atoms: O_2  and  C_3
REMARK    3  A    between atoms: C_3  and  C_4
REMARK    4  A    between atoms: C_11  and  N_25
REMARK    5  A    between atoms: C_12  and  C_23
REMARK    6  A    between atoms: C_13  and  C_15
REMARK                            x       y       z     vdW  Elec       q    Type
REMARK                         _______ _______ _______ _____ _____    ______ ____
ROOT
ATOM      1  C   UNL     1       0.614  -2.074  -1.042  0.00  0.00    +0.096 A 
ATOM      2  C   UNL     1       1.569  -2.876  -0.433  0.00  0.00    +0.052 A 
ATOM      3  C   UNL     1       1.171  -4.178  -0.560  0.00  0.00    +0.223 A 
ATOM      4  N   UNL     1       0.005  -4.184  -1.226  0.00  0.00    -0.246 N 
ATOM      5  H   UNL     1      -0.514  -4.968  -1.462  0.00  0.00    +0.192 HD
ATOM      6  N   UNL     1      -0.331  -2.852  -1.516  0.00  0.00    -0.173 NA
ATOM      7  O   UNL     1       1.894  -5.216  -0.070  0.00  0.00    -0.423 OA
ATOM      8  C   UNL     1       3.163  -4.967   0.315  0.00  0.00    +0.200 C 
ATOM      9  C   UNL     1       3.667  -3.724   0.486  0.00  0.00    +0.098 C 
ATOM     10  C   UNL     1       2.843  -2.480   0.267  0.00  0.00    +0.103 C 
ENDROOT
BRANCH  10  11
ATOM     11  C   UNL     1       2.517  -1.843   1.593  0.00  0.00    -0.015 A 
ATOM     12  C   UNL     1       1.828  -2.560   2.553  0.00  0.00    +0.006 A 
ATOM     13  C   UNL     1       1.529  -1.977   3.770  0.00  0.00    +0.002 A 
ATOM     14  C   UNL     1       1.918  -0.676   4.029  0.00  0.00    +0.021 A 
ATOM     15  C   UNL     1       2.608   0.043   3.069  0.00  0.00    +0.060 A 
ATOM     16  C   UNL     1       2.913  -0.543   1.852  0.00  0.00    +0.063 A 
ATOM     17 CL   UNL     1       3.785   0.355   0.650  0.00  0.00    -0.082 Cl
ATOM     18 CL   UNL     1       3.097   1.677   3.393  0.00  0.00    -0.082 Cl
ENDBRANCH  10  11
BRANCH   8  19
ATOM     19  N   UNL     1       3.990  -6.037   0.544  0.00  0.00    -0.328 N 
ATOM     20  H   UNL     1       3.658  -6.941   0.429  0.00  0.00    +0.145 HD
ATOM     21  H   UNL     1       4.908  -5.890   0.822  0.00  0.00    +0.145 HD
ENDBRANCH   8  19
BRANCH   9  22
ATOM     22  C   UNL     1       5.032  -3.584   0.892  0.00  0.00    +0.101 C 
ATOM     23  N   UNL     1       6.116  -3.474   1.215  0.00  0.00    -0.191 NA
ENDBRANCH   9  22
BRANCH   1  24
ATOM     24  C   UNL     1       0.652  -0.570  -1.138  0.00  0.00    +0.217 C 
BRANCH  24  26
ATOM     25  C   UNL     1      -0.017   1.425   0.010  0.00  0.00    +0.194 C 
ATOM     26  O   UNL     1       0.002  -0.004   0.002  0.00  0.00    -0.377 OA
ENDBRANCH  24  26
ENDBRANCH   1  24
TORSDOF 5
