REMARK  Name = ZINC04131636
REMARK  7 active torsions:
REMARK  status: ('A' for Active; 'I' for Inactive)
REMARK    1  A    between atoms: C_1  and  C_2
REMARK    2  A    between atoms: C_4  and  O_25
REMARK    3  A    between atoms: C_6  and  O_24
REMARK    4  A    between atoms: C_7  and  C_8
REMARK    5  A    between atoms: C_9  and  C_18
REMARK    6  A    between atoms: C_10  and  C_14
REMARK    7  A    between atoms: C_21  and  C_23
REMARK                            x       y       z     vdW  Elec       q    Type
REMARK                         _______ _______ _______ _____ _____    ______ ____
ROOT
ATOM      1  C   UNL     1       0.158   0.038   2.494  0.00  0.00    +0.106 A 
ATOM      2  C   UNL     1       0.151  -0.554   3.782  0.00  0.00    +0.058 A 
ATOM      3  C   UNL     1      -0.021   0.445   4.692  0.00  0.00    +0.148 A 
ATOM      4  N   UNL     1      -0.118   1.609   4.015  0.00  0.00    -0.272 N 
ATOM      5  H   UNL     1      -0.244   2.486   4.409  0.00  0.00    +0.189 HD
ATOM      6  N   UNL     1       0.001   1.335   2.647  0.00  0.00    -0.173 NA
ENDROOT
BRANCH   1  13
ATOM      7  C   UNL     1      -1.901   0.248   0.476  0.00  0.00    +0.044 C 
ATOM      8  C   UNL     1      -0.667  -0.581   0.226  0.00  0.00    -0.034 A 
ATOM      9  C   UNL     1      -0.512  -1.243  -0.975  0.00  0.00    +0.049 A 
ATOM     10  C   UNL     1       0.622  -2.008  -1.209  0.00  0.00    +0.121 A 
ATOM     11  C   UNL     1       1.606  -2.113  -0.236  0.00  0.00    +0.091 A 
ATOM     12  C   UNL     1       1.459  -1.452   0.971  0.00  0.00    +0.130 A 
ATOM     13  C   UNL     1       0.319  -0.676   1.205  0.00  0.00    +0.047 A 
BRANCH  12  14
ATOM     14  O   UNL     1       2.421  -1.554   1.925  0.00  0.00    -0.506 OA
ATOM     15  H   UNL     1       3.148  -0.924   1.819  0.00  0.00    +0.292 HD
ENDBRANCH  12  14
BRANCH  10  16
ATOM     16  O   UNL     1       0.769  -2.657  -2.393  0.00  0.00    -0.507 OA
ATOM     17  H   UNL     1       1.219  -2.138  -3.073  0.00  0.00    +0.292 HD
ENDBRANCH  10  16
ENDBRANCH   1  13
BRANCH   2  18
ATOM     18  C   UNL     1       0.303  -2.000   4.083  0.00  0.00    +0.083 A 
ATOM     19  C   UNL     1       0.311  -2.470   5.369  0.00  0.00    +0.075 A 
ATOM     20  S   UNL     1       0.518  -4.220   5.078  0.00  0.00    -0.080 S 
ATOM     21  C   UNL     1       0.571  -4.174   3.397  0.00  0.00    +0.076 A 
ATOM     22  N   UNL     1       0.432  -2.903   3.122  0.00  0.00    -0.244 NA
ATOM     23  C   UNL     1       0.735  -5.324   2.437  0.00  0.00    +0.073 C 
ENDBRANCH   2  18
BRANCH   3  24
ATOM     24  C   UNL     1      -0.090   0.280   6.188  0.00  0.00    +0.434 C 
ATOM     25  F   UNL     1      -0.274   1.530   6.787  0.00  0.00    -0.164 F 
ATOM     26  F   UNL     1      -1.164  -0.556   6.516  0.00  0.00    -0.164 F 
ATOM     27  F   UNL     1       1.101  -0.289   6.650  0.00  0.00    -0.164 F 
ENDBRANCH   3  24
TORSDOF 5
