REMARK  Name = ZINC65359294
REMARK  11 active torsions:
REMARK  status: ('A' for Active; 'I' for Inactive)
REMARK    1  A    between atoms: C_1  and  C_2
REMARK    2  A    between atoms: C_5  and  S_24
REMARK    3  A    between atoms: C_7  and  N_8
REMARK    4  A    between atoms: N_11  and  C_12
REMARK    5  A    between atoms: C_12  and  C_13
REMARK    6  A    between atoms: C_15  and  O_22
REMARK    7  A    between atoms: C_16  and  O_21
REMARK    8  A    between atoms: C_17  and  O_19
REMARK    9  A    between atoms: O_19  and  C_20
REMARK   10  A    between atoms: O_22  and  C_23
REMARK   11  A    between atoms: S_24  and  C_27
REMARK                            x       y       z     vdW  Elec       q    Type
REMARK                         _______ _______ _______ _____ _____    ______ ____
ROOT
ATOM      1  N   UNL     1       0.025  -0.015   2.417  0.00  0.00    -0.269 N 
ATOM      2  C   UNL     1      -0.056  -0.694   3.578  0.00  0.00    +0.304 C 
ATOM      3  O   UNL     1      -0.040  -1.910   3.573  0.00  0.00    -0.252 OA
ATOM      4  N   UNL     1      -0.156  -0.026   4.745  0.00  0.00    -0.295 N 
ATOM      5  H   UNL     1       0.078   0.954   2.425  0.00  0.00    +0.156 HD
ATOM      6  H   UNL     1      -0.169   0.944   4.748  0.00  0.00    +0.151 HD
ENDROOT
BRANCH   1  13
ATOM      7  C   UNL     1      -1.266   1.182   0.182  0.00  0.00    +0.045 C 
ATOM      8  C   UNL     1      -0.585  -0.158   0.085  0.00  0.00    -0.029 A 
ATOM      9  C   UNL     1      -0.570  -0.841  -1.116  0.00  0.00    +0.007 A 
ATOM     10  C   UNL     1       0.055  -2.071  -1.206  0.00  0.00    +0.027 A 
ATOM     11  C   UNL     1       0.667  -2.622  -0.095  0.00  0.00    +0.090 A 
ATOM     12  C   UNL     1       0.655  -1.945   1.108  0.00  0.00    +0.050 A 
ATOM     13  C   UNL     1       0.034  -0.706   1.200  0.00  0.00    +0.039 A 
BRANCH  11  14
ATOM     14  S   UNL     1       1.461  -4.190  -0.215  0.00  0.00    -0.006 S 
ATOM     15  O   UNL     1       1.417  -4.720   1.103  0.00  0.00    -0.170 OA
ATOM     16  O   UNL     1       0.799  -4.851  -1.284  0.00  0.00    -0.170 OA
ATOM     17  C   UNL     1       3.173  -3.811  -0.679  0.00  0.00    +0.200 C 
ENDBRANCH  11  14
ENDBRANCH   1  13
BRANCH   4  18
ATOM     18  C   UNL     1      -0.245  -0.765   6.006  0.00  0.00    +0.141 C 
BRANCH  18  19
ATOM     19  C   UNL     1      -0.347   0.208   7.152  0.00  0.00    -0.023 A 
ATOM     20  C   UNL     1       0.801   0.673   7.766  0.00  0.00    +0.054 A 
ATOM     21  C   UNL     1       0.712   1.569   8.821  0.00  0.00    +0.165 A 
ATOM     22  C   UNL     1      -0.534   1.999   9.261  0.00  0.00    +0.201 A 
ATOM     23  C   UNL     1      -1.686   1.529   8.641  0.00  0.00    +0.165 A 
ATOM     24  C   UNL     1      -1.588   0.638   7.583  0.00  0.00    +0.054 A 
BRANCH  23  25
ATOM     25  O   UNL     1      -2.908   1.947   9.068  0.00  0.00    -0.491 OA
ATOM     26  C   UNL     1      -4.048   1.423   8.385  0.00  0.00    +0.277 C 
ENDBRANCH  23  25
BRANCH  22  27
ATOM     27  O   UNL     1      -0.626   2.877  10.296  0.00  0.00    -0.501 OA
ATOM     28  H   UNL     1      -0.621   3.806  10.026  0.00  0.00    +0.292 HD
ENDBRANCH  22  27
BRANCH  21  29
ATOM     29  O   UNL     1       1.842   2.025   9.424  0.00  0.00    -0.491 OA
ATOM     30  C   UNL     1       3.088   1.540   8.920  0.00  0.00    +0.277 C 
ENDBRANCH  21  29
ENDBRANCH  18  19
ENDBRANCH   4  18
TORSDOF 7
