REMARK  Name = ZINC06222216
REMARK  3 active torsions:
REMARK  status: ('A' for Active; 'I' for Inactive)
REMARK    1  A    between atoms: C_4  and  O_24
REMARK    2  A    between atoms: C_5  and  C_7
REMARK    3  A    between atoms: N_14  and  C_17
REMARK                            x       y       z     vdW  Elec       q    Type
REMARK                         _______ _______ _______ _____ _____    ______ ____
ROOT
ATOM      1  C   UNL     1      -2.212   4.128   1.379  0.00  0.00    +0.029 C 
ATOM      2  C   UNL     1      -2.366   5.383   0.821  0.00  0.00    +0.100 C 
ATOM      3  C   UNL     1      -1.277   6.026   0.058  0.00  0.00    +0.255 C 
ATOM      4  O   UNL     1      -0.209   5.465  -0.101  0.00  0.00    -0.270 OA
ATOM      5  N   UNL     1      -1.502   7.249  -0.464  0.00  0.00    -0.263 N 
ATOM      6  C   UNL     1      -2.671   7.881  -0.292  0.00  0.00    +0.150 C 
ATOM      7  S   UNL     1      -2.861   9.435  -0.984  0.00  0.00    -0.018 S 
ATOM      8  N   UNL     1      -3.700   7.362   0.393  0.00  0.00    -0.217 N 
ATOM      9  C   UNL     1      -3.623   6.143   0.965  0.00  0.00    +0.262 C 
ATOM     10  O   UNL     1      -4.564   5.682   1.584  0.00  0.00    -0.269 OA
ATOM     11  H   UNL     1      -0.799   7.684  -0.972  0.00  0.00    +0.157 HD
ENDROOT
BRANCH   8  12
ATOM     12  C   UNL     1      -4.883   8.102   0.516  0.00  0.00    +0.043 A 
ATOM     13  C   UNL     1      -5.052   8.969   1.588  0.00  0.00    +0.025 A 
ATOM     14  C   UNL     1      -6.217   9.702   1.704  0.00  0.00    +0.022 A 
ATOM     15  C   UNL     1      -7.219   9.565   0.760  0.00  0.00    +0.041 A 
ATOM     16  C   UNL     1      -7.055   8.698  -0.306  0.00  0.00    +0.022 A 
ATOM     17  C   UNL     1      -5.890   7.967  -0.430  0.00  0.00    +0.025 A 
ATOM     18 CL   UNL     1      -8.685  10.483   0.913  0.00  0.00    -0.084 Cl
ENDBRANCH   8  12
BRANCH   1  23
ATOM     19  C   UNL     1       0.449   2.377  -0.586  0.00  0.00    +0.001 A 
ATOM     20  C   UNL     1       1.190   1.787   0.427  0.00  0.00    +0.004 A 
ATOM     21  C   UNL     1       0.828   1.956   1.750  0.00  0.00    +0.046 A 
ATOM     22  C   UNL     1      -0.286   2.715   2.075  0.00  0.00    +0.124 A 
ATOM     23  C   UNL     1      -1.038   3.321   1.051  0.00  0.00    +0.017 A 
ATOM     24  C   UNL     1      -0.657   3.139  -0.287  0.00  0.00    +0.011 A 
BRANCH  22  25
ATOM     25  O   UNL     1      -0.645   2.877   3.372  0.00  0.00    -0.506 OA
ATOM     26  H   UNL     1      -0.243   3.646   3.799  0.00  0.00    +0.292 HD
ENDBRANCH  22  25
ENDBRANCH   1  23
TORSDOF 3
