REMARK  Name = ZINC34739627
REMARK  4 active torsions:
REMARK  status: ('A' for Active; 'I' for Inactive)
REMARK    1  A    between atoms: C_4  and  N_23
REMARK    2  A    between atoms: C_6  and  N_7
REMARK    3  A    between atoms: N_11  and  C_14
REMARK    4  A    between atoms: C_14  and  C_15
REMARK                            x       y       z     vdW  Elec       q    Type
REMARK                         _______ _______ _______ _____ _____    ______ ____
ROOT
ATOM      1  N   UNL     1      -1.429  -0.692   0.258  0.00  0.00    -0.255 N 
ATOM      2  C   UNL     1      -2.723  -0.022   0.124  0.00  0.00    +0.117 C 
ATOM      3  C   UNL     1      -3.619  -0.841  -0.811  0.00  0.00    +0.038 C 
ATOM      4  C   UNL     1      -3.717  -2.269  -0.265  0.00  0.00    +0.111 C 
ATOM      5  N   UNL     1      -2.369  -2.818  -0.111  0.00  0.00    -0.281 N 
ATOM      6  C   UNL     1      -1.317  -2.023   0.137  0.00  0.00    +0.309 C 
ATOM      7  O   UNL     1      -0.219  -2.531   0.262  0.00  0.00    -0.252 OA
ENDROOT
BRANCH   1  13
ATOM      8  C   UNL     1      -0.130   0.709   1.735  0.00  0.00    +0.025 A 
ATOM      9  C   UNL     1       1.001   1.464   1.986  0.00  0.00    +0.023 A 
ATOM     10  C   UNL     1       1.981   1.588   1.020  0.00  0.00    +0.062 A 
ATOM     11  C   UNL     1       1.833   0.953  -0.208  0.00  0.00    +0.045 A 
ATOM     12  C   UNL     1       0.699   0.194  -0.462  0.00  0.00    +0.047 A 
ATOM     13  C   UNL     1      -0.283   0.072   0.511  0.00  0.00    +0.040 A 
ATOM     14 CL   UNL     1       3.399   2.537   1.340  0.00  0.00    -0.082 Cl
BRANCH  11  15
ATOM     15  N   UNL     1       2.824   1.078  -1.185  0.00  0.00    -0.357 N 
ATOM     16  H   UNL     1       3.616   1.609  -1.007  0.00  0.00    +0.142 HD
ATOM     17  H   UNL     1       2.719   0.635  -2.041  0.00  0.00    +0.142 HD
ENDBRANCH  11  15
ENDBRANCH   1  13
BRANCH   5  18
ATOM     18  C   UNL     1      -2.163  -4.263  -0.234  0.00  0.00    +0.146 C 
BRANCH  18  19
ATOM     19  C   UNL     1      -2.179  -4.892   1.135  0.00  0.00    -0.009 A 
ATOM     20  C   UNL     1      -0.990  -5.179   1.777  0.00  0.00    +0.045 A 
ATOM     21  C   UNL     1      -1.005  -5.756   3.035  0.00  0.00    +0.124 A 
ATOM     22  C   UNL     1      -2.212  -6.046   3.650  0.00  0.00    +0.040 A 
ATOM     23  C   UNL     1      -3.400  -5.759   3.006  0.00  0.00    +0.023 A 
ATOM     24  C   UNL     1      -3.385  -5.177   1.751  0.00  0.00    +0.046 A 
ATOM     25 CL   UNL     1      -4.878  -4.810   0.946  0.00  0.00    -0.083 Cl
ATOM     26  F   UNL     1       0.158  -6.037   3.664  0.00  0.00    -0.205 F 
ENDBRANCH  18  19
ENDBRANCH   5  18
TORSDOF 4
