REMARK  Name = ZINC25452435
REMARK  9 active torsions:
REMARK  status: ('A' for Active; 'I' for Inactive)
REMARK    1  A    between atoms: C_1  and  C_2
REMARK    2  A    between atoms: C_5  and  N_9
REMARK    3  A    between atoms: C_6  and  C_8
REMARK    4  A    between atoms: C_13  and  C_15
REMARK    5  A    between atoms: C_15  and  C_17
REMARK    6  A    between atoms: C_15  and  S_18
REMARK    7  A    between atoms: S_18  and  C_19
REMARK    8  A    between atoms: C_22  and  C_25
REMARK    9  A    between atoms: N_23  and  N_24
REMARK                            x       y       z     vdW  Elec       q    Type
REMARK                         _______ _______ _______ _____ _____    ______ ____
ROOT
ATOM      1  C   UNL     1       6.380   6.603   0.115  0.00  0.00    +0.137 C 
ATOM      2  C   UNL     1       6.707   5.856  -1.180  0.00  0.00    +0.029 C 
ENDROOT
BRANCH   1   7
ATOM      3  N   UNL     1      10.572   8.710   1.163  0.00  0.00    -0.269 N 
ATOM      4  C   UNL     1       9.298   8.819   0.739  0.00  0.00    +0.310 C 
ATOM      5  O   UNL     1       8.848   9.908   0.440  0.00  0.00    -0.252 OA
ATOM      6  N   UNL     1       8.522   7.721   0.645  0.00  0.00    -0.239 N 
ATOM      7  C   UNL     1       7.248   7.830   0.220  0.00  0.00    +0.234 C 
ATOM      8  O   UNL     1       6.799   8.917  -0.078  0.00  0.00    -0.274 OA
ATOM      9  H   UNL     1      11.002   7.717   1.363  0.00  0.00    +0.156 HD
ATOM     10  H   UNL     1       8.929   6.735   0.914  0.00  0.00    +0.159 HD
BRANCH   3  15
ATOM     11  C   UNL     1      13.720  13.368   1.918  0.00  0.00    +0.044 C 
ATOM     12  C   UNL     1      12.884  12.131   1.717  0.00  0.00    -0.050 A 
ATOM     13  C   UNL     1      11.863  12.132   0.785  0.00  0.00    +0.005 A 
ATOM     14  C   UNL     1      11.095  10.999   0.599  0.00  0.00    +0.024 A 
ATOM     15  C   UNL     1      11.349   9.858   1.349  0.00  0.00    +0.038 A 
ATOM     16  C   UNL     1      12.372   9.862   2.288  0.00  0.00    -0.029 A 
ATOM     17  C   UNL     1      13.140  10.996   2.466  0.00  0.00    +0.008 A 
ATOM     18  C   UNL     1      12.648   8.629   3.108  0.00  0.00    +0.045 C 
ENDBRANCH   3  15
ENDBRANCH   1   7
BRANCH   1  19
ATOM     19  S   UNL     1       4.638   7.094   0.105  0.00  0.00    -0.072 S 
BRANCH  19  20
ATOM     20  C   UNL     1       3.873   5.507   0.130  0.00  0.00    +0.209 A 
ATOM     21  N   UNL     1       4.487   4.345   0.149  0.00  0.00    -0.121 NA
ATOM     22  N   UNL     1       3.627   3.391   0.164  0.00  0.00    -0.127 NA
ATOM     23  C   UNL     1       2.410   3.884   0.155  0.00  0.00    +0.183 A 
ATOM     24  N   UNL     1       2.530   5.255   0.127  0.00  0.00    -0.224 N 
BRANCH  23  25
ATOM     25  C   UNL     1       1.149   3.113   0.166  0.00  0.00    +0.039 A 
ATOM     26  C   UNL     1       0.122   3.435  -0.724  0.00  0.00    +0.013 A 
ATOM     27  C   UNL     1      -1.052   2.712  -0.708  0.00  0.00    +0.001 A 
ATOM     28  C   UNL     1      -1.217   1.672   0.190  0.00  0.00    +0.001 A 
ATOM     29  C   UNL     1      -0.202   1.343   1.071  0.00  0.00    +0.021 A 
ATOM     30  C   UNL     1       0.979   2.059   1.066  0.00  0.00    +0.052 A 
ATOM     31 CL   UNL     1       2.249   1.649   2.176  0.00  0.00    -0.083 Cl
ENDBRANCH  23  25
BRANCH  24  32
ATOM     32  N   UNL     1       1.518   6.172   0.105  0.00  0.00    -0.295 N 
ATOM     33  H   UNL     1       0.471   5.835   0.105  0.00  0.00    +0.163 HD
ATOM     34  H   UNL     1       1.751   7.247   0.086  0.00  0.00    +0.163 HD
ENDBRANCH  24  32
ENDBRANCH  19  20
ENDBRANCH   1  19
TORSDOF 6
