REMARK  Name = ZINC44158424
REMARK  4 active torsions:
REMARK  status: ('A' for Active; 'I' for Inactive)
REMARK    1  A    between atoms: C_5  and  C_6
REMARK    2  A    between atoms: N_8  and  C_9
REMARK    3  A    between atoms: C_9  and  C_10
REMARK    4  A    between atoms: C_10  and  O_15
REMARK                            x       y       z     vdW  Elec       q    Type
REMARK                         _______ _______ _______ _____ _____    ______ ____
ROOT
ATOM      1  C   UNL     1      -1.172  -0.881   0.009  0.00  0.00    +0.280 C 
ATOM      2  O   UNL     1      -2.290  -0.401   0.023  0.00  0.00    -0.267 OA
ATOM      3  N   UNL     1      -1.014  -2.220   0.000  0.00  0.00    -0.306 N 
ATOM      4  H   UNL     1      -0.122  -2.602  -0.011  0.00  0.00    +0.149 HD
ENDROOT
BRANCH   1   9
ATOM      5  C   UNL     1      -0.016   1.362   0.009  0.00  0.00    +0.056 A 
ATOM      6  C   UNL     1       1.321   1.784  -0.001  0.00  0.00    +0.058 A 
ATOM      7  C   UNL     1       2.090   0.670  -0.014  0.00  0.00    +0.171 A 
ATOM      8  O   UNL     1       1.291  -0.405  -0.012  0.00  0.00    -0.444 OA
ATOM      9  C   UNL     1       0.002  -0.004   0.002  0.00  0.00    +0.191 A 
ATOM     10 BR   UNL     1       3.981   0.637  -0.033  0.00  0.00    -0.008 Br
ENDBRANCH   1   9
BRANCH   3  11
ATOM     11  C   UNL     1      -2.187  -3.096   0.007  0.00  0.00    +0.139 C 
BRANCH  11  12
ATOM     12  C   UNL     1      -1.733  -4.557  -0.005  0.00  0.00    +0.081 C 
ATOM     13  C   UNL     1      -0.851  -4.826  -1.242  0.00  0.00    +0.036 C 
ATOM     14  C   UNL     1      -1.242  -6.258  -1.683  0.00  0.00    +0.003 C 
ATOM     15  C   UNL     1      -2.769  -6.289  -1.429  0.00  0.00    +0.003 C 
ATOM     16  C   UNL     1      -2.952  -5.488  -0.124  0.00  0.00    +0.036 C 
BRANCH  12  17
ATOM     17  O   UNL     1      -1.006  -4.853   1.189  0.00  0.00    -0.387 OA
ATOM     18  H   UNL     1      -0.218  -4.306   1.316  0.00  0.00    +0.210 HD
ENDBRANCH  12  17
ENDBRANCH  11  12
ENDBRANCH   3  11
TORSDOF 4
