REMARK  Name = ZINC12986878
REMARK  7 active torsions:
REMARK  status: ('A' for Active; 'I' for Inactive)
REMARK    1  A    between atoms: C_4  and  O_21
REMARK    2  A    between atoms: C_5  and  N_7
REMARK    3  A    between atoms: C_8  and  C_10
REMARK    4  A    between atoms: C_12  and  S_17
REMARK    5  A    between atoms: S_17  and  N_20
REMARK    6  A    between atoms: O_21  and  C_22
REMARK    7  A    between atoms: C_22  and  C_23
REMARK                            x       y       z     vdW  Elec       q    Type
REMARK                         _______ _______ _______ _____ _____    ______ ____
ROOT
ATOM      1  N   UNL     1      -0.011   0.966   0.007  0.00  0.00    -0.279 N 
ATOM      2  C   UNL     1       1.215   1.526  -0.023  0.00  0.00    +0.249 C 
ATOM      3  O   UNL     1       1.330   2.732  -0.121  0.00  0.00    -0.270 OA
ATOM      4  H   UNL     1      -0.103   0.000   0.020  0.00  0.00    +0.155 HD
ENDROOT
BRANCH   2   5
ATOM      5  C   UNL     1       2.418   0.673   0.063  0.00  0.00    +0.053 A 
ATOM      6  C   UNL     1       2.290  -0.713   0.176  0.00  0.00    +0.042 A 
ATOM      7  C   UNL     1       3.417  -1.503   0.256  0.00  0.00    +0.106 A 
ATOM      8  C   UNL     1       4.675  -0.926   0.224  0.00  0.00    +0.029 A 
ATOM      9  C   UNL     1       4.811   0.446   0.113  0.00  0.00    +0.018 A 
ATOM     10  C   UNL     1       3.690   1.249   0.027  0.00  0.00    +0.030 A 
ATOM     11 BR   UNL     1       3.878   3.124  -0.134  0.00  0.00    -0.050 Br
BRANCH   7  12
ATOM     12  S   UNL     1       3.257  -3.252   0.398  0.00  0.00    +0.056 S 
ATOM     13  O   UNL     1       4.452  -3.722   1.005  0.00  0.00    -0.153 OA
ATOM     14  O   UNL     1       1.972  -3.498   0.954  0.00  0.00    -0.153 OA
BRANCH  12  15
ATOM     15  N   UNL     1       3.233  -3.868  -1.139  0.00  0.00    -0.204 NA
ATOM     16  H   UNL     1       3.302  -3.272  -1.902  0.00  0.00    +0.144 HD
ATOM     17  H   UNL     1       3.149  -4.824  -1.277  0.00  0.00    +0.144 HD
ENDBRANCH  12  15
ENDBRANCH   7  12
ENDBRANCH   2   5
BRANCH   1  22
ATOM     18  C   UNL     1      -2.286   3.773  -0.683  0.00  0.00    +0.002 A 
ATOM     19  C   UNL     1      -3.408   3.386   0.027  0.00  0.00    +0.004 A 
ATOM     20  C   UNL     1      -3.408   2.197   0.733  0.00  0.00    +0.047 A 
ATOM     21  C   UNL     1      -2.282   1.389   0.730  0.00  0.00    +0.142 A 
ATOM     22  C   UNL     1      -1.152   1.778   0.014  0.00  0.00    +0.076 A 
ATOM     23  C   UNL     1      -1.157   2.975  -0.687  0.00  0.00    +0.027 A 
BRANCH  21  24
ATOM     24  O   UNL     1      -2.281   0.220   1.423  0.00  0.00    -0.481 OA
BRANCH  24  25
ATOM     25  C   UNL     1      -3.475  -0.115   2.134  0.00  0.00    +0.342 C 
BRANCH  25  26
ATOM     26  C   UNL     1      -3.285  -1.454   2.848  0.00  0.00    +0.424 C 
ATOM     27  F   UNL     1      -2.219  -1.356   3.748  0.00  0.00    -0.167 F 
ATOM     28  F   UNL     1      -4.454  -1.782   3.543  0.00  0.00    -0.167 F 
ATOM     29  F   UNL     1      -3.008  -2.450   1.905  0.00  0.00    -0.167 F 
ENDBRANCH  25  26
ENDBRANCH  24  25
ENDBRANCH  21  24
ENDBRANCH   1  22
TORSDOF 7
