REMARK  Name = ZINC51641962
REMARK  4 active torsions:
REMARK  status: ('A' for Active; 'I' for Inactive)
REMARK    1  A    between atoms: C_1  and  O_2
REMARK    2  A    between atoms: O_2  and  C_3
REMARK    3  A    between atoms: C_8  and  N_9
REMARK    4  A    between atoms: C_16  and  C_19
REMARK                            x       y       z     vdW  Elec       q    Type
REMARK                         _______ _______ _______ _____ _____    ______ ____
ROOT
ATOM      1  N   UNL     1       0.098  -2.777  -0.110  0.00  0.00    -0.266 N 
ATOM      2  C   UNL     1       0.060  -4.119  -0.231  0.00  0.00    +0.307 C 
ATOM      3  O   UNL     1       0.598  -4.659  -1.179  0.00  0.00    -0.252 OA
ATOM      4  N   UNL     1      -0.573  -4.862   0.698  0.00  0.00    -0.280 N 
ATOM      5  C   UNL     1      -1.330  -4.228   1.788  0.00  0.00    +0.137 C 
ATOM      6  C   UNL     1      -2.724  -4.862   1.841  0.00  0.00    +0.180 C 
ATOM      7  O   UNL     1      -2.593  -6.284   1.904  0.00  0.00    -0.364 OA
ATOM      8  C   UNL     1      -1.961  -6.864   0.760  0.00  0.00    +0.221 C 
ATOM      9  C   UNL     1      -0.532  -6.332   0.649  0.00  0.00    +0.150 C 
ATOM     10  H   UNL     1      -0.279  -2.351   0.676  0.00  0.00    +0.156 HD
ENDROOT
BRANCH   1  16
ATOM     11  C   UNL     1       0.256  -0.688  -1.323  0.00  0.00    +0.141 A 
ATOM     12  C   UNL     1       0.839   0.080  -2.317  0.00  0.00    +0.048 A 
ATOM     13  C   UNL     1       1.837  -0.457  -3.109  0.00  0.00    +0.019 A 
ATOM     14  C   UNL     1       2.256  -1.760  -2.912  0.00  0.00    +0.020 A 
ATOM     15  C   UNL     1       1.679  -2.533  -1.921  0.00  0.00    +0.042 A 
ATOM     16  C   UNL     1       0.681  -1.999  -1.119  0.00  0.00    +0.078 A 
ATOM     17 BR   UNL     1       3.622  -2.488  -3.999  0.00  0.00    -0.050 Br
BRANCH  11  19
ATOM     18  C   UNL     1      -1.112   1.189  -0.809  0.00  0.00    +0.277 C 
ATOM     19  O   UNL     1      -0.727  -0.161  -0.543  0.00  0.00    -0.493 OA
ENDBRANCH  11  19
ENDBRANCH   1  16
BRANCH   8  20
ATOM     20  C   UNL     1      -1.933  -8.364   0.907  0.00  0.00    +0.241 C 
ATOM     21  O   UNL     1      -2.325  -8.880   1.932  0.00  0.00    -0.273 OA
ATOM     22  N   UNL     1      -1.474  -9.131  -0.101  0.00  0.00    -0.327 N 
ATOM     23  H   UNL     1      -1.160  -8.718  -0.921  0.00  0.00    +0.145 HD
ATOM     24  H   UNL     1      -1.456 -10.096  -0.007  0.00  0.00    +0.145 HD
ENDBRANCH   8  20
TORSDOF 3
