REMARK  Name = ZINC33413804
REMARK  5 active torsions:
REMARK  status: ('A' for Active; 'I' for Inactive)
REMARK    1  A    between atoms: C_1  and  C_2
REMARK    2  A    between atoms: C_7  and  C_8
REMARK    3  A    between atoms: C_7  and  C_9
REMARK    4  A    between atoms: C_10  and  S_14
REMARK    5  A    between atoms: S_14  and  C_15
REMARK                            x       y       z     vdW  Elec       q    Type
REMARK                         _______ _______ _______ _____ _____    ______ ____
ROOT
ATOM      1  C   UNL     1      -0.247   1.383  -0.077  0.00  0.00    +0.019 C 
ATOM      2  C   UNL     1      -0.082  -0.136  -0.012  0.00  0.00    +0.033 C 
ATOM      3  C   UNL     1       0.699  -0.786  -1.195  0.00  0.00    +0.015 C 
ATOM      4  C   UNL     1       1.161  -2.157  -0.650  0.00  0.00    +0.006 C 
ATOM      5  C   UNL     1       0.606  -2.204   0.807  0.00  0.00    +0.016 C 
ATOM      6  C   UNL     1       0.727  -0.692   1.212  0.00  0.00    -0.019 C 
ATOM      7  C   UNL     1       2.180  -0.211   1.207  0.00  0.00    +0.012 C 
ATOM      8  C   UNL     1       0.034  -0.396   2.543  0.00  0.00    +0.012 C 
ATOM      9  C   UNL     1      -0.938  -2.341   0.627  0.00  0.00    +0.124 C 
ATOM     10  C   UNL     1      -1.381  -0.946   0.108  0.00  0.00    +0.153 C 
ATOM     11  O   UNL     1      -2.499  -0.582  -0.164  0.00  0.00    -0.296 OA
ENDROOT
BRANCH   9  12
ATOM     12  S   UNL     1      -1.731  -2.686   2.221  0.00  0.00    -0.073 S 
BRANCH  12  13
ATOM     13  C   UNL     1      -3.422  -2.953   1.808  0.00  0.00    +0.211 A 
ATOM     14  N   UNL     1      -4.400  -3.238   2.676  0.00  0.00    -0.188 NA
ATOM     15  C   UNL     1      -5.539  -3.373   2.031  0.00  0.00    +0.209 A 
ATOM     16  N   UNL     1      -5.301  -3.173   0.718  0.00  0.00    -0.246 N 
ATOM     17  H   UNL     1      -5.950  -3.208  -0.002  0.00  0.00    +0.192 HD
ATOM     18  N   UNL     1      -3.929  -2.899   0.599  0.00  0.00    -0.144 NA
ATOM     19  N   UNL     1      -6.765  -3.669   2.599  0.00  0.00    -0.328 N 
ATOM     20  H   UNL     1      -6.837  -3.796   3.558  0.00  0.00    +0.145 HD
ATOM     21  H   UNL     1      -7.552  -3.750   2.038  0.00  0.00    +0.145 HD
ENDBRANCH  12  13
ENDBRANCH   9  12
TORSDOF 2
