REMARK  Name = ZINC40380813
REMARK  3 active torsions:
REMARK  status: ('A' for Active; 'I' for Inactive)
REMARK    1  A    between atoms: N_3  and  S_16
REMARK    2  A    between atoms: C_7  and  C_9
REMARK    3  A    between atoms: S_16  and  N_19
REMARK                            x       y       z     vdW  Elec       q    Type
REMARK                         _______ _______ _______ _____ _____    ______ ____
ROOT
ATOM      1  C   UNL     1      -0.018   1.465   0.010  0.00  0.00    +0.125 C 
ATOM      2  C   UNL     1       1.429   1.975  -0.001  0.00  0.00    +0.129 C 
ATOM      3  N   UNL     1       2.183   1.271   1.046  0.00  0.00    -0.164 NA
ATOM      4  C   UNL     1       2.203  -0.198   1.038  0.00  0.00    +0.129 C 
ATOM      5  C   UNL     1       0.756  -0.708   1.049  0.00  0.00    +0.125 C 
ATOM      6  N   UNL     1       0.002  -0.004   0.002  0.00  0.00    -0.297 N 
ATOM      7  C   UNL     1      -0.660  -0.694  -0.948  0.00  0.00    +0.237 C 
ATOM      8  O   UNL     1      -1.279  -0.102  -1.807  0.00  0.00    -0.274 OA
ENDROOT
BRANCH   7   9
ATOM      9  C   UNL     1      -0.630  -2.200  -0.944  0.00  0.00    +0.170 C 
ATOM     10  C   UNL     1      -1.621  -2.725   0.128  0.00  0.00    +0.110 C 
ATOM     11  S   UNL     1      -2.193  -4.249  -0.735  0.00  0.00    -0.065 S 
ATOM     12  C   UNL     1      -1.757  -3.777  -2.400  0.00  0.00    +0.273 C 
ATOM     13  O   UNL     1      -2.093  -4.323  -3.434  0.00  0.00    -0.263 OA
ATOM     14  N   UNL     1      -0.980  -2.687  -2.266  0.00  0.00    -0.294 N 
ATOM     15  H   UNL     1      -0.651  -2.227  -3.054  0.00  0.00    +0.150 HD
ENDBRANCH   7   9
BRANCH   3  16
ATOM     16  S   UNL     1       2.996   2.119   2.213  0.00  0.00    +0.095 S 
ATOM     17  O   UNL     1       4.025   1.265   2.692  0.00  0.00    -0.141 OA
ATOM     18  O   UNL     1       3.264   3.404   1.670  0.00  0.00    -0.141 OA
BRANCH  16  19
ATOM     19  N   UNL     1       1.946   2.347   3.473  0.00  0.00    -0.193 NA
ATOM     20  H   UNL     1       2.283   2.412   4.380  0.00  0.00    +0.145 HD
ATOM     21  H   UNL     1       0.993   2.417   3.304  0.00  0.00    +0.145 HD
ENDBRANCH  16  19
ENDBRANCH   3  16
TORSDOF 3
