REMARK  Name = ZINC43425444
REMARK  4 active torsions:
REMARK  status: ('A' for Active; 'I' for Inactive)
REMARK    1  A    between atoms: N_11  and  C_12
REMARK    2  A    between atoms: C_12  and  C_13
REMARK    3  A    between atoms: C_13  and  C_14
REMARK    4  A    between atoms: C_14  and  N_16
REMARK                            x       y       z     vdW  Elec       q    Type
REMARK                         _______ _______ _______ _____ _____    ______ ____
ROOT
ATOM      1  C   UNL     1      -0.019   1.535   0.011  0.00  0.00    +0.004 C 
ATOM      2  C   UNL     1       1.456   1.997  -0.001  0.00  0.00    +0.021 C 
ATOM      3  C   UNL     1       2.222   0.788   0.572  0.00  0.00    +0.085 C 
ATOM      4  C   UNL     1       1.494  -0.422  -0.043  0.00  0.00    +0.135 C 
ATOM      5  C   UNL     1       0.002  -0.004   0.002  0.00  0.00    +0.033 C 
ATOM      6  O   UNL     1       1.861  -0.582  -1.415  0.00  0.00    -0.374 OA
ATOM      7  C   UNL     1       3.264  -0.633  -1.670  0.00  0.00    +0.175 C 
ATOM      8  C   UNL     1       3.889   0.685  -1.194  0.00  0.00    +0.113 C 
ATOM      9  N   UNL     1       3.631   0.824   0.220  0.00  0.00    -0.294 NA
ENDROOT
BRANCH   9  10
ATOM     10  C   UNL     1       4.276   2.032   0.753  0.00  0.00    +0.091 C 
BRANCH  10  11
ATOM     11  C   UNL     1       5.792   1.918   0.582  0.00  0.00    +0.073 C 
BRANCH  11  12
ATOM     12  C   UNL     1       6.454   3.156   1.128  0.00  0.00    +0.047 C 
ATOM     13  S   UNL     1       5.564   4.326   1.760  0.00  0.00    -0.041 S 
BRANCH  12  14
ATOM     14  N   UNL     1       7.795   3.279   1.085  0.00  0.00    -0.355 N 
ATOM     15  H   UNL     1       8.335   2.570   0.702  0.00  0.00    +0.143 HD
ATOM     16  H   UNL     1       8.221   4.076   1.436  0.00  0.00    +0.143 HD
ENDBRANCH  12  14
ENDBRANCH  11  12
ENDBRANCH  10  11
ENDBRANCH   9  10
TORSDOF 4
