REMARK  Name = ZINC36378557
REMARK  9 active torsions:
REMARK  status: ('A' for Active; 'I' for Inactive)
REMARK    1  A    between atoms: C_1  and  C_2
REMARK    2  A    between atoms: C_2  and  C_39
REMARK    3  A    between atoms: C_3  and  C_25
REMARK    4  A    between atoms: C_9  and  N_13
REMARK    5  A    between atoms: C_14  and  C_16
REMARK    6  A    between atoms: C_16  and  C_18
REMARK    7  A    between atoms: C_16  and  N_24
REMARK    8  A    between atoms: C_25  and  O_27
REMARK    9  A    between atoms: O_27  and  C_28
REMARK                            x       y       z     vdW  Elec       q    Type
REMARK                         _______ _______ _______ _____ _____    ______ ____
ROOT
ATOM      1  C   UNL     1      -0.019   1.526   0.010  0.00  0.00    +0.025 C 
ATOM      2  C   UNL     1       0.002  -0.004   0.002  0.00  0.00    +0.042 C 
ATOM      3  C   UNL     1       0.918  -0.558  -1.127  0.00  0.00    +0.201 C 
ATOM      4  N   UNL     1       1.415  -1.897  -0.797  0.00  0.00    -0.271 N 
ATOM      5  C   UNL     1       1.564  -2.196   0.634  0.00  0.00    +0.165 C 
ATOM      6  S   UNL     1       0.923  -0.680   1.457  0.00  0.00    -0.127 S 
ATOM      7  C   UNL     1       3.067  -2.201   0.421  0.00  0.00    +0.190 C 
ATOM      8  C   UNL     1       2.713  -2.168  -1.036  0.00  0.00    +0.240 C 
ATOM      9  O   UNL     1       3.356  -2.325  -2.052  0.00  0.00    -0.273 OA
ATOM     10  C   UNL     1      -1.413  -0.580  -0.086  0.00  0.00    +0.025 C 
ENDROOT
BRANCH   7  11
ATOM     11  N   UNL     1       3.743  -0.994   0.903  0.00  0.00    -0.300 N 
ATOM     12  C   UNL     1       5.045  -1.043   1.248  0.00  0.00    +0.235 C 
ATOM     13  O   UNL     1       5.657  -2.086   1.160  0.00  0.00    -0.274 OA
ATOM     14  H   UNL     1       3.253  -0.160   0.973  0.00  0.00    +0.150 HD
BRANCH  12  15
ATOM     15  C   UNL     1       5.739   0.199   1.744  0.00  0.00    +0.168 C 
BRANCH  15  16
ATOM     16  C   UNL     1       5.401   0.419   3.196  0.00  0.00    -0.022 A 
ATOM     17  C   UNL     1       6.065  -0.295   4.176  0.00  0.00    +0.005 A 
ATOM     18  C   UNL     1       5.754  -0.094   5.508  0.00  0.00    +0.000 A 
ATOM     19  C   UNL     1       4.780   0.822   5.860  0.00  0.00    +0.000 A 
ATOM     20  C   UNL     1       4.117   1.537   4.880  0.00  0.00    +0.000 A 
ATOM     21  C   UNL     1       4.431   1.339   3.548  0.00  0.00    +0.005 A 
ENDBRANCH  15  16
BRANCH  15  22
ATOM     22  N   UNL     1       7.192   0.039   1.599  0.00  0.00    -0.316 NA
ATOM     23  H   UNL     1       7.524  -0.752   2.131  0.00  0.00    +0.119 HD
ATOM     24  H   UNL     1       7.452  -0.046   0.627  0.00  0.00    +0.119 HD
ENDBRANCH  15  22
ENDBRANCH  12  15
ENDBRANCH   7  11
BRANCH   3  25
ATOM     25  C   UNL     1       0.133  -0.627  -2.411  0.00  0.00    +0.332 C 
ATOM     26  O   UNL     1      -0.330  -1.680  -2.780  0.00  0.00    -0.249 OA
BRANCH  25  27
ATOM     27  O   UNL     1      -0.051   0.482  -3.145  0.00  0.00    -0.419 OA
BRANCH  27  28
ATOM     28  C   UNL     1      -0.805   0.343  -4.351  0.00  0.00    +0.403 C 
ATOM     29  C   UNL     1      -0.723   1.613  -5.160  0.00  0.00    +0.047 A 
ATOM     30  C   UNL     1       0.318   2.307  -5.731  0.00  0.00    +0.012 A 
ATOM     31  C   UNL     1       0.068   3.475  -6.431  0.00  0.00    +0.001 A 
ATOM     32  C   UNL     1      -1.227   3.947  -6.560  0.00  0.00    +0.001 A 
ATOM     33  C   UNL     1      -2.279   3.259  -5.991  0.00  0.00    +0.015 A 
ATOM     34  C   UNL     1      -2.034   2.082  -5.284  0.00  0.00    +0.069 A 
ATOM     35  C   UNL     1      -2.915   1.136  -4.575  0.00  0.00    +0.343 C 
ATOM     36  O   UNL     1      -4.122   1.241  -4.485  0.00  0.00    -0.245 OA
ATOM     37  O   UNL     1      -2.187   0.138  -4.044  0.00  0.00    -0.417 OA
ENDBRANCH  27  28
ENDBRANCH  25  27
ENDBRANCH   3  25
TORSDOF 7
