REMARK  Name = ZINC20721956
REMARK  1 active torsions:
REMARK  status: ('A' for Active; 'I' for Inactive)
REMARK    1  A    between atoms: C_5  and  C_7
REMARK                            x       y       z     vdW  Elec       q    Type
REMARK                         _______ _______ _______ _____ _____    ______ ____
ROOT
ATOM      1  C   UNL     1       1.228  -2.186  -0.022  0.00  0.00    +0.065 C 
ATOM      2  C   UNL     1       0.490  -2.705  -1.259  0.00  0.00    +0.109 C 
ATOM      3  C   UNL     1      -0.998  -2.582  -1.115  0.00  0.00    +0.219 C 
ATOM      4  O   UNL     1      -1.652  -2.276  -2.090  0.00  0.00    -0.275 OA
ATOM      5  N   UNL     1      -1.641  -2.797   0.052  0.00  0.00    -0.269 N 
ATOM      6  C   UNL     1      -0.862  -2.998   1.202  0.00  0.00    +0.150 A 
ATOM      7  C   UNL     1       0.525  -2.711   1.204  0.00  0.00    +0.020 A 
ATOM      8  C   UNL     1       1.005  -2.990   2.424  0.00  0.00    +0.111 A 
ATOM      9  N   UNL     1      -0.025  -3.441   3.178  0.00  0.00    -0.283 N 
ATOM     10  H   UNL     1       0.028  -3.719   4.105  0.00  0.00    +0.188 HD
ATOM     11  N   UNL     1      -1.185  -3.436   2.381  0.00  0.00    -0.158 NA
ATOM     12  H   UNL     1      -2.610  -2.812   0.095  0.00  0.00    +0.156 HD
ENDROOT
BRANCH   1  17
ATOM     13  C   UNL     1      -0.017   1.378   0.010  0.00  0.00    +0.000 A 
ATOM     14  C   UNL     1       1.171   2.087   0.002  0.00  0.00    +0.003 A 
ATOM     15  C   UNL     1       2.377   1.414  -0.013  0.00  0.00    +0.038 A 
ATOM     16  C   UNL     1       2.397   0.029  -0.021  0.00  0.00    +0.127 A 
ATOM     17  C   UNL     1       1.208  -0.679  -0.013  0.00  0.00    -0.004 A 
ATOM     18  C   UNL     1       0.002  -0.004   0.002  0.00  0.00    +0.007 A 
ATOM     19  F   UNL     1       3.577  -0.630  -0.036  0.00  0.00    -0.205 F 
ENDBRANCH   1  17
TORSDOF 1
