REMARK  Name = ZINC39673786
REMARK  10 active torsions:
REMARK  status: ('A' for Active; 'I' for Inactive)
REMARK    1  A    between atoms: C_1  and  C_2
REMARK    2  A    between atoms: C_2  and  C_3
REMARK    3  A    between atoms: C_3  and  C_4
REMARK    4  A    between atoms: C_4  and  C_6
REMARK    5  A    between atoms: C_4  and  N_7
REMARK    6  A    between atoms: C_8  and  C_10
REMARK    7  A    between atoms: C_21  and  C_23
REMARK    8  A    between atoms: C_25  and  C_30
REMARK    9  A    between atoms: N_27  and  C_28
REMARK   10  A    between atoms: C_28  and  C_29
REMARK                            x       y       z     vdW  Elec       q    Type
REMARK                         _______ _______ _______ _____ _____    ______ ____
ROOT
ATOM      1  C   UNL     1       2.227  -4.138   1.473  0.00  0.00    +0.100 C 
ATOM      2  C   UNL     1       3.713  -4.142   1.049  0.00  0.00    +0.121 C 
ATOM      3  N   UNL     1       4.304  -5.293   1.772  0.00  0.00    -0.295 N 
ATOM      4  C   UNL     1       3.262  -6.344   1.707  0.00  0.00    +0.115 C 
ATOM      5  C   UNL     1       1.934  -5.585   1.903  0.00  0.00    -0.004 C 
ATOM      6  C   UNL     1       1.515  -5.626   3.369  0.00  0.00    -0.010 C 
ATOM      7  C   UNL     1       1.175  -7.067   3.758  0.00  0.00    -0.082 C 
ATOM      8  N   UNL     1       0.089  -7.563   2.903  0.00  0.00    +0.379 N 
ATOM      9  C   UNL     1       0.533  -7.608   1.505  0.00  0.00    -0.082 C 
ATOM     10  C   UNL     1       0.846  -6.189   1.021  0.00  0.00    -0.010 C 
ATOM     11  C   UNL     1       5.517  -5.366   2.356  0.00  0.00    +0.266 C 
ATOM     12  O   UNL     1       5.900  -6.418   2.832  0.00  0.00    -0.268 OA
ATOM     13  H   UNL     1      -0.174  -8.491   3.201  0.00  0.00    -0.086 HD
ATOM     14  H   UNL     1      -0.707  -6.949   2.982  0.00  0.00    -0.086 HD
ENDROOT
BRANCH  11  15
ATOM     15  C   UNL     1       6.377  -4.175   2.417  0.00  0.00    +0.138 A 
ATOM     16  C   UNL     1       7.431  -3.866   1.573  0.00  0.00    +0.071 A 
ATOM     17  C   UNL     1       7.928  -2.644   2.035  0.00  0.00    +0.075 A 
ATOM     18  N   UNL     1       7.210  -2.283   3.067  0.00  0.00    -0.175 NA
ATOM     19  N   UNL     1       6.293  -3.147   3.314  0.00  0.00    -0.258 N 
ATOM     20  C   UNL     1       9.087  -1.879   1.448  0.00  0.00    +0.069 C 
ATOM     21 BR   UNL     1       8.063  -4.882   0.108  0.00  0.00    -0.046 Br
BRANCH  19  22
ATOM     22  C   UNL     1       5.311  -3.050   4.396  0.00  0.00    +0.141 C 
ATOM     23  C   UNL     1       5.918  -3.600   5.688  0.00  0.00    +0.029 C 
ENDBRANCH  19  22
ENDBRANCH  11  15
BRANCH   1  25
ATOM     24  N   UNL     1       0.186  -3.107   0.528  0.00  0.00    -0.312 N 
ATOM     25  C   UNL     1       1.351  -3.749   0.309  0.00  0.00    +0.218 C 
ATOM     26  O   UNL     1       1.694  -4.013  -0.823  0.00  0.00    -0.275 OA
ATOM     27  H   UNL     1      -0.125  -2.962   1.435  0.00  0.00    +0.149 HD
BRANCH  24  28
ATOM     28  C   UNL     1      -0.610  -2.629  -0.605  0.00  0.00    +0.070 C 
ATOM     29  C   UNL     1      -0.103  -1.252  -1.040  0.00  0.00    +0.028 C 
BRANCH  28  30
ATOM     30  C   UNL     1      -2.079  -2.522  -0.187  0.00  0.00    +0.022 C 
BRANCH  30  32
ATOM     31  C   UNL     1      -4.089  -3.811   0.546  0.00  0.00    +0.004 C 
ATOM     32  C   UNL     1      -2.621  -3.918   0.128  0.00  0.00    -0.002 C 
ENDBRANCH  30  32
ENDBRANCH  28  30
ENDBRANCH  24  28
ENDBRANCH   1  25
TORSDOF 6
