REMARK  Name = ZINC31155261
REMARK  17 active torsions:
REMARK  status: ('A' for Active; 'I' for Inactive)
REMARK    1  A    between atoms: C_1  and  C_2
REMARK    2  A    between atoms: C_2  and  C_40
REMARK    3  A    between atoms: C_3  and  C_4
REMARK    4  A    between atoms: C_4  and  C_5
REMARK    5  A    between atoms: C_7  and  O_12
REMARK    6  A    between atoms: C_10  and  O_11
REMARK    7  A    between atoms: O_12  and  C_13
REMARK    8  A    between atoms: C_15  and  O_39
REMARK    9  A    between atoms: C_17  and  O_38
REMARK   10  A    between atoms: C_19  and  O_37
REMARK   11  A    between atoms: C_21  and  C_24
REMARK   12  A    between atoms: C_24  and  O_25
REMARK   13  A    between atoms: O_25  and  C_26
REMARK   14  A    between atoms: C_28  and  O_36
REMARK   15  A    between atoms: C_30  and  C_33
REMARK   16  A    between atoms: C_30  and  O_35
REMARK   17  A    between atoms: C_33  and  O_34
REMARK                            x       y       z     vdW  Elec       q    Type
REMARK                         _______ _______ _______ _____ _____    ______ ____
ROOT
ATOM      1  C   UNL     1       5.006   1.298  -2.269  0.00  0.00    +0.339 C 
ATOM      2  C   UNL     1       6.106   2.218  -2.806  0.00  0.00    +0.214 C 
ATOM      3  C   UNL     1       7.344   1.380  -3.140  0.00  0.00    +0.180 C 
ATOM      4  C   UNL     1       7.784   0.617  -1.886  0.00  0.00    +0.177 C 
ATOM      5  C   UNL     1       6.620  -0.241  -1.386  0.00  0.00    +0.179 C 
ATOM      6  O   UNL     1       5.491   0.596  -1.123  0.00  0.00    -0.331 OA
ENDROOT
BRANCH   4   7
ATOM      7  O   UNL     1       8.895  -0.224  -2.204  0.00  0.00    -0.386 OA
ATOM      8  H   UNL     1       9.350  -0.852  -1.425  0.00  0.00    +0.210 HD
ENDBRANCH   4   7
BRANCH   3   9
ATOM      9  O   UNL     1       8.402   2.238  -3.573  0.00  0.00    -0.386 OA
ATOM     10  H   UNL     1       9.375   1.811  -3.857  0.00  0.00    +0.210 HD
ENDBRANCH   3   9
BRANCH   2  11
ATOM     11  O   UNL     1       5.644   2.878  -3.986  0.00  0.00    -0.383 OA
ATOM     12  H   UNL     1       6.301   3.584  -4.515  0.00  0.00    +0.210 HD
ENDBRANCH   2  11
BRANCH   1  13
ATOM     13  O   UNL     1       3.868   2.080  -1.903  0.00  0.00    -0.461 OA
BRANCH  13  16
ATOM     14  C   UNL     1       0.490   1.415  -0.725  0.00  0.00    +0.001 A 
ATOM     15  C   UNL     1       1.618   2.102  -1.132  0.00  0.00    +0.053 A 
ATOM     16  C   UNL     1       2.758   1.405  -1.502  0.00  0.00    +0.124 A 
ATOM     17  C   UNL     1       2.767   0.018  -1.463  0.00  0.00    +0.049 A 
ATOM     18  C   UNL     1       1.639  -0.668  -1.056  0.00  0.00    +0.049 A 
ATOM     19  C   UNL     1       0.499   0.029  -0.686  0.00  0.00    +0.121 A 
BRANCH  19  20
ATOM     20  O   UNL     1      -0.611  -0.647  -0.285  0.00  0.00    -0.506 OA
ATOM     21  H   UNL     1      -0.605  -1.746  -0.255  0.00  0.00    +0.292 HD
ENDBRANCH  19  20
BRANCH  14  22
ATOM     22  C   UNL     1      -0.751   2.172  -0.329  0.00  0.00    +0.066 C 
BRANCH  22  25
ATOM     23  C   UNL     1      -1.907   4.591  -1.206  0.00  0.00    +0.038 C 
ATOM     24  C   UNL     1      -2.213   3.303  -1.925  0.00  0.00    -0.079 C 
ATOM     25  C   UNL     1      -1.728   2.171  -1.477  0.00  0.00    -0.023 C 
ATOM     26  C   UNL     1      -3.078   3.316  -3.159  0.00  0.00    +0.038 C 
ENDBRANCH  22  25
ENDBRANCH  14  22
ENDBRANCH  13  16
ENDBRANCH   1  13
BRANCH   5  27
ATOM     27  C   UNL     1       7.032  -0.960  -0.100  0.00  0.00    +0.197 C 
BRANCH  27  28
ATOM     28  O   UNL     1       5.988  -1.848   0.305  0.00  0.00    -0.346 OA
BRANCH  28  29
ATOM     29  C   UNL     1       6.273  -2.574   1.503  0.00  0.00    +0.282 C 
ATOM     30  C   UNL     1       5.060  -3.440   1.909  0.00  0.00    +0.206 C 
ATOM     31  C   UNL     1       5.696  -4.736   2.464  0.00  0.00    +0.142 C 
ATOM     32  C   UNL     1       7.216  -4.496   2.329  0.00  0.00    +0.202 C 
ATOM     33  O   UNL     1       7.344  -3.516   1.276  0.00  0.00    -0.346 OA
BRANCH  31  34
ATOM     34  O   UNL     1       5.338  -4.923   3.834  0.00  0.00    -0.381 OA
ATOM     35  H   UNL     1       5.708  -5.801   4.384  0.00  0.00    +0.210 HD
ENDBRANCH  31  34
BRANCH  30  36
ATOM     36  O   UNL     1       4.293  -2.783   2.920  0.00  0.00    -0.384 OA
ATOM     37  H   UNL     1       3.390  -3.265   3.324  0.00  0.00    +0.210 HD
ENDBRANCH  30  36
BRANCH  31  38
ATOM     38  C   UNL     1       5.268  -5.945   1.629  0.00  0.00    +0.195 C 
BRANCH  38  39
ATOM     39  O   UNL     1       5.938  -7.114   2.106  0.00  0.00    -0.392 OA
ATOM     40  H   UNL     1       5.755  -8.087   1.626  0.00  0.00    +0.210 HD
ENDBRANCH  38  39
ENDBRANCH  31  38
ENDBRANCH  28  29
ENDBRANCH  27  28
ENDBRANCH   5  27
TORSDOF 15
