REMARK  Name = ZINC13354734
REMARK  5 active torsions:
REMARK  status: ('A' for Active; 'I' for Inactive)
REMARK    1  A    between atoms: N_3  and  C1*_9
REMARK    2  A    between atoms: C2*_11  and  O2*_21
REMARK    3  A    between atoms: C3*_13  and  O3*_20
REMARK    4  A    between atoms: C4*_15  and  C5*_18
REMARK    5  A    between atoms: C5*_18  and  O5*_19
REMARK                            x       y       z     vdW  Elec       q    Type
REMARK                         _______ _______ _______ _____ _____    ______ ____
ROOT
ATOM      1  C1* UNL     1       1.174   3.099   0.106  0.00  0.00    +0.252 C 
ATOM      2  C2* UNL     1       1.286   1.562  -0.002  0.00  0.00    +0.195 C 
ATOM      3  C3* UNL     1       2.080   1.154   1.260  0.00  0.00    +0.178 C 
ATOM      4  C4* UNL     1       2.353   2.493   1.980  0.00  0.00    +0.177 C 
ATOM      5  O4* UNL     1       1.313   3.381   1.516  0.00  0.00    -0.346 OA
ENDROOT
BRANCH   1   8
ATOM      6  C   UNL     1      -2.356   4.164   0.047  0.00  0.00    +0.061 A 
ATOM      7  C   UNL     1      -1.152   3.747   0.506  0.00  0.00    +0.094 A 
ATOM      8  N   UNL     1      -0.134   3.550  -0.378  0.00  0.00    -0.297 N 
ATOM      9  C   UNL     1      -0.321   3.772  -1.692  0.00  0.00    +0.184 A 
ATOM     10  S   UNL     1       0.976   3.523  -2.781  0.00  0.00    -0.011 S 
ATOM     11  N   UNL     1      -1.500   4.176  -2.159  0.00  0.00    -0.208 NA
ATOM     12  C   UNL     1      -2.521   4.382  -1.337  0.00  0.00    +0.120 A 
ATOM     13  N   UNL     1      -3.733   4.806  -1.831  0.00  0.00    -0.343 N 
ATOM     14  H   UNL     1      -4.477   4.956  -1.227  0.00  0.00    +0.144 HD
ATOM     15  H   UNL     1      -3.843   4.955  -2.783  0.00  0.00    +0.144 HD
ENDBRANCH   1   8
BRANCH   3  16
ATOM     16  O3* UNL     1       1.297   0.291   2.087  0.00  0.00    -0.386 OA
ATOM     17  H3* UNL     1       1.747   0.004   2.893  0.00  0.00    +0.210 HD
ENDBRANCH   3  16
BRANCH   2  18
ATOM     18  O2* UNL     1      -0.011   0.963   0.007  0.00  0.00    -0.385 OA
ATOM     19  H2* UNL     1       0.002  -0.004   0.002  0.00  0.00    +0.210 HD
ENDBRANCH   2  18
BRANCH   4  20
ATOM     20  C5* UNL     1       2.259   2.310   3.497  0.00  0.00    +0.190 C 
BRANCH  20  21
ATOM     21  O5* UNL     1       2.628   3.528   4.147  0.00  0.00    -0.392 OA
ATOM     22  H5* UNL     1       2.591   3.485   5.112  0.00  0.00    +0.210 HD
ENDBRANCH  20  21
ENDBRANCH   4  20
TORSDOF 5
