REMARK  Name = ZINC37285668
REMARK  5 active torsions:
REMARK  status: ('A' for Active; 'I' for Inactive)
REMARK    1  A    between atoms: C_3  and  O_20
REMARK    2  A    between atoms: C_4  and  N_19
REMARK    3  A    between atoms: C_6  and  C_7
REMARK    4  A    between atoms: C_7  and  S_8
REMARK    5  A    between atoms: S_8  and  C_9
REMARK                            x       y       z     vdW  Elec       q    Type
REMARK                         _______ _______ _______ _____ _____    ______ ____
ROOT
ATOM      1  C   UNL     1      -1.294  -0.773   0.011  0.00  0.00    +0.112 C 
ENDROOT
BRANCH   1   7
ATOM      2  C   UNL     1      -0.017   1.378   0.010  0.00  0.00    +0.008 A 
ATOM      3  C   UNL     1       1.169   2.090   0.002  0.00  0.00    +0.047 A 
ATOM      4  C   UNL     1       2.380   1.418  -0.013  0.00  0.00    +0.137 A 
ATOM      5  C   UNL     1       2.400   0.024  -0.021  0.00  0.00    +0.067 A 
ATOM      6  C   UNL     1       1.207  -0.682  -0.013  0.00  0.00    +0.031 A 
ATOM      7  C   UNL     1       0.002  -0.004   0.002  0.00  0.00    -0.035 A 
BRANCH   5   8
ATOM      8  N   UNL     1       3.621  -0.660  -0.037  0.00  0.00    -0.355 N 
ATOM      9  H   UNL     1       4.455  -0.164  -0.043  0.00  0.00    +0.142 HD
ATOM     10  H   UNL     1       3.633  -1.630  -0.043  0.00  0.00    +0.142 HD
ENDBRANCH   5   8
BRANCH   4  11
ATOM     11  O   UNL     1       3.547   2.116  -0.022  0.00  0.00    -0.505 OA
ATOM     12  H   UNL     1       3.894   2.314   0.859  0.00  0.00    +0.292 HD
ENDBRANCH   4  11
ENDBRANCH   1   7
BRANCH   1  13
ATOM     13  S   UNL     1      -1.831  -1.073  -1.696  0.00  0.00    -0.081 S 
BRANCH  13  14
ATOM     14  C   UNL     1      -3.337  -1.969  -1.518  0.00  0.00    +0.192 A 
ATOM     15  N   UNL     1      -3.913  -2.317  -0.388  0.00  0.00    -0.122 NA
ATOM     16  N   UNL     1      -5.004  -2.955  -0.631  0.00  0.00    -0.134 NA
ATOM     17  C   UNL     1      -5.187  -3.047  -1.915  0.00  0.00    +0.134 A 
ATOM     18  N   UNL     1      -4.131  -2.429  -2.523  0.00  0.00    -0.306 N 
ATOM     19  C   UNL     1      -3.903  -2.309  -3.963  0.00  0.00    +0.125 C 
ATOM     20  C   UNL     1      -5.251  -2.318  -4.691  0.00  0.00    +0.022 C 
ATOM     21  C   UNL     1      -5.646  -3.755  -5.026  0.00  0.00    +0.002 C 
ATOM     22  C   UNL     1      -5.809  -4.580  -3.754  0.00  0.00    +0.008 C 
ATOM     23  C   UNL     1      -6.344  -3.698  -2.629  0.00  0.00    +0.076 C 
ENDBRANCH  13  14
ENDBRANCH   1  13
TORSDOF 5
