REMARK  Name = ZINC42116887
REMARK  5 active torsions:
REMARK  status: ('A' for Active; 'I' for Inactive)
REMARK    1  A    between atoms: C_1  and  C_2
REMARK    2  A    between atoms: C_2  and  C_3
REMARK    3  A    between atoms: C_3  and  N_4
REMARK    4  A    between atoms: C_8  and  C_12
REMARK    5  A    between atoms: C_13  and  N_17
REMARK                            x       y       z     vdW  Elec       q    Type
REMARK                         _______ _______ _______ _____ _____    ______ ____
ROOT
ATOM      1  N   UNL     1       0.762  -1.976   1.234  0.00  0.00    -0.267 N 
ATOM      2  C   UNL     1      -0.229  -2.771   1.813  0.00  0.00    +0.077 A 
ATOM      3  C   UNL     1       0.073  -4.115   1.640  0.00  0.00    +0.003 A 
ATOM      4  C   UNL     1      -0.762  -5.095   2.130  0.00  0.00    +0.011 A 
ATOM      5  C   UNL     1      -1.918  -4.743   2.806  0.00  0.00    -0.047 A 
ATOM      6  C   UNL     1      -2.231  -3.408   2.986  0.00  0.00    +0.043 A 
ATOM      7  C   UNL     1      -1.395  -2.423   2.495  0.00  0.00    +0.145 A 
ATOM      8  F   UNL     1      -1.708  -1.121   2.675  0.00  0.00    -0.204 F 
ATOM      9  C   UNL     1      -2.834  -5.812   3.343  0.00  0.00    +0.044 C 
ATOM     10  C   UNL     1       1.377  -4.164   0.878  0.00  0.00    +0.171 C 
ATOM     11  C   UNL     1       1.732  -2.709   0.662  0.00  0.00    +0.241 C 
ATOM     12  O   UNL     1       2.710  -2.284   0.084  0.00  0.00    -0.273 OA
ENDROOT
BRANCH  10  13
ATOM     13  N   UNL     1       2.411  -4.841   1.672  0.00  0.00    -0.316 NA
ATOM     14  H   UNL     1       3.286  -4.878   1.170  0.00  0.00    +0.119 HD
ATOM     15  H   UNL     1       2.528  -4.396   2.569  0.00  0.00    +0.119 HD
ENDBRANCH  10  13
BRANCH   1  16
ATOM     16  C   UNL     1       0.742  -0.511   1.242  0.00  0.00    +0.113 C 
BRANCH  16  18
ATOM     17  C   UNL     1      -0.019   1.526   0.010  0.00  0.00    +0.005 C 
ATOM     18  C   UNL     1       0.002  -0.004   0.002  0.00  0.00    +0.016 C 
ENDBRANCH  16  18
ENDBRANCH   1  16
TORSDOF 3
