REMARK  Name = ZINC28759737
REMARK  8 active torsions:
REMARK  status: ('A' for Active; 'I' for Inactive)
REMARK    1  A    between atoms: C_1  and  C_2
REMARK    2  A    between atoms: C_5  and  O_37
REMARK    3  A    between atoms: C_7  and  C_34
REMARK    4  A    between atoms: C_7  and  C_35
REMARK    5  A    between atoms: C_11  and  O_33
REMARK    6  A    between atoms: C_13  and  C_32
REMARK    7  A    between atoms: C_21  and  C_25
REMARK    8  A    between atoms: C_35  and  O_36
REMARK                            x       y       z     vdW  Elec       q    Type
REMARK                         _______ _______ _______ _____ _____    ______ ____
ROOT
ATOM      1  C   UNL     1      -2.465   3.085   0.336  0.00  0.00    +0.012 C 
ATOM      2  C   UNL     1      -2.414   1.564   0.242  0.00  0.00    -0.015 C 
ATOM      3  C   UNL     1      -3.858   1.030   0.269  0.00  0.00    +0.010 C 
ATOM      4  C   UNL     1      -4.513   1.398   1.598  0.00  0.00    +0.032 C 
ATOM      5  C   UNL     1      -3.780   0.733   2.754  0.00  0.00    +0.123 C 
ATOM      6  C   UNL     1      -2.289   1.069   2.766  0.00  0.00    +0.020 C 
ATOM      7  C   UNL     1      -1.655   0.925   1.402  0.00  0.00    +0.009 C 
ATOM      8  C   UNL     1      -0.190   1.351   1.379  0.00  0.00    +0.040 C 
ATOM      9  C   UNL     1       0.455   0.789   0.103  0.00  0.00    +0.159 C 
ATOM     10  C   UNL     1      -0.255   1.346  -1.123  0.00  0.00    +0.144 C 
ATOM     11  C   UNL     1      -1.758   1.115  -1.056  0.00  0.00    +0.113 C 
ATOM     12  C   UNL     1      -2.394   1.694  -2.295  0.00  0.00    +0.181 C 
ATOM     13  O   UNL     1      -3.507   2.170  -2.297  0.00  0.00    -0.291 OA
ATOM     14  C   UNL     1      -1.632   1.642  -3.493  0.00  0.00    +0.144 A 
ATOM     15  C   UNL     1      -0.324   1.120  -3.460  0.00  0.00    +0.142 A 
ATOM     16  C   UNL     1       0.413   1.105  -4.651  0.00  0.00    +0.095 A 
ATOM     17  C   UNL     1      -0.151   1.590  -5.793  0.00  0.00    +0.161 A 
ATOM     18  O   UNL     1      -1.397   2.079  -5.834  0.00  0.00    -0.420 OA
ATOM     19  C   UNL     1      -2.149   2.111  -4.722  0.00  0.00    +0.352 A 
ATOM     20  O   UNL     1      -3.282   2.552  -4.780  0.00  0.00    -0.244 OA
ATOM     21  O   UNL     1       0.207   0.652  -2.307  0.00  0.00    -0.482 OA
ATOM     22  C   UNL     1       0.119   2.816  -1.311  0.00  0.00    +0.059 C 
ATOM     23  C   UNL     1      -2.071   2.452   3.379  0.00  0.00    +0.016 C 
ENDROOT
BRANCH  17  24
ATOM     24  C   UNL     1       0.647   1.579  -7.037  0.00  0.00    +0.106 A 
ATOM     25  C   UNL     1       0.092   2.068  -8.220  0.00  0.00    +0.031 A 
ATOM     26  C   UNL     1       0.854   2.056  -9.376  0.00  0.00    +0.004 A 
ATOM     27  C   UNL     1       2.143   1.546  -9.313  0.00  0.00    +0.020 A 
ATOM     28  C   UNL     1       2.629   1.072  -8.106  0.00  0.00    +0.111 A 
ATOM     29  N   UNL     1       1.886   1.100  -7.020  0.00  0.00    -0.252 NA
ENDBRANCH  17  24
BRANCH   9  30
ATOM     30  O   UNL     1       1.836   1.158   0.071  0.00  0.00    -0.388 OA
ATOM     31  H   UNL     1       2.469   0.844  -0.772  0.00  0.00    +0.210 HD
ENDBRANCH   9  30
BRANCH   5  32
ATOM     32  O   UNL     1      -4.363   1.159   3.992  0.00  0.00    -0.391 OA
ATOM     33  H   UNL     1      -3.965   0.782   4.946  0.00  0.00    +0.210 HD
ENDBRANCH   5  32
BRANCH   6  34
ATOM     34  C   UNL     1      -1.622   0.044   3.718  0.00  0.00    +0.165 C 
BRANCH  34  35
ATOM     35  O   UNL     1      -2.201   0.157   5.020  0.00  0.00    -0.394 OA
ATOM     36  H   UNL     1      -1.853  -0.495   5.835  0.00  0.00    +0.209 HD
ENDBRANCH  34  35
ENDBRANCH   6  34
TORSDOF 5
