REMARK  Name = ZINC44729201
REMARK  10 active torsions:
REMARK  status: ('A' for Active; 'I' for Inactive)
REMARK    1  A    between atoms: C_1  and  C_2
REMARK    2  A    between atoms: C_4  and  C_8
REMARK    3  A    between atoms: C_5  and  C_7
REMARK    4  A    between atoms: C_8  and  C_10
REMARK    5  A    between atoms: C_8  and  N_11
REMARK    6  A    between atoms: C_12  and  C_14
REMARK    7  A    between atoms: C_14  and  N_15
REMARK    8  A    between atoms: C_16  and  C_22
REMARK    9  A    between atoms: C_17  and  N_21
REMARK   10  A    between atoms: C_18  and  C_20
REMARK                            x       y       z     vdW  Elec       q    Type
REMARK                         _______ _______ _______ _____ _____    ______ ____
ROOT
ATOM      1  N   UNL     1      -2.786  -3.079   0.471  0.00  0.00    -0.307 N 
ATOM      2  C   UNL     1      -3.542  -4.045   1.030  0.00  0.00    +0.235 C 
ATOM      3  O   UNL     1      -3.106  -5.171   1.135  0.00  0.00    -0.274 OA
ATOM      4  H   UNL     1      -3.135  -2.178   0.387  0.00  0.00    +0.149 HD
ENDROOT
BRANCH   1   5
ATOM      5  C   UNL     1      -1.437  -3.390  -0.009  0.00  0.00    +0.103 C 
ATOM      6  C   UNL     1      -1.518  -3.946  -1.432  0.00  0.00    +0.033 C 
BRANCH   5  10
ATOM      7  C   UNL     1      -0.018   1.503   0.010  0.00  0.00    +0.086 C 
ATOM      8  C   UNL     1       0.002  -0.004   0.002  0.00  0.00    +0.103 A 
ATOM      9  C   UNL     1      -1.078  -0.805   0.003  0.00  0.00    +0.050 A 
ATOM     10  C   UNL     1      -0.601  -2.136  -0.007  0.00  0.00    +0.013 A 
ATOM     11  C   UNL     1       0.742  -2.069  -0.013  0.00  0.00    +0.107 A 
ATOM     12  O   UNL     1       1.102  -0.775  -0.013  0.00  0.00    -0.465 OA
ATOM     13  C   UNL     1       1.684  -3.245  -0.023  0.00  0.00    +0.086 C 
ENDBRANCH   5  10
ENDBRANCH   1   5
BRANCH   2  14
ATOM     14  C   UNL     1      -4.929  -3.724   1.524  0.00  0.00    +0.239 C 
BRANCH  14  15
ATOM     15  N   UNL     1      -5.539  -4.933   2.084  0.00  0.00    -0.258 N 
ATOM     16  C   UNL     1      -6.278  -5.847   1.400  0.00  0.00    +0.058 A 
ATOM     17  C   UNL     1      -6.655  -6.809   2.280  0.00  0.00    +0.068 A 
ATOM     18  C   UNL     1      -6.131  -6.472   3.536  0.00  0.00    +0.081 A 
ATOM     19  N   UNL     1      -5.460  -5.355   3.417  0.00  0.00    -0.174 NA
ATOM     20  C   UNL     1      -6.306  -7.264   4.806  0.00  0.00    +0.069 C 
ATOM     21  C   UNL     1      -6.617  -5.800  -0.067  0.00  0.00    +0.067 C 
BRANCH  17  22
ATOM     22  N   UNL     1      -7.434  -7.944   1.984  0.00  0.00    -0.355 N 
ATOM     23  H   UNL     1      -7.752  -8.092   1.080  0.00  0.00    +0.142 HD
ATOM     24  H   UNL     1      -7.652  -8.578   2.685  0.00  0.00    +0.142 HD
ENDBRANCH  17  22
ENDBRANCH  14  15
ENDBRANCH   2  14
TORSDOF 5
