REMARK  Name = ZINC32732291
REMARK  6 active torsions:
REMARK  status: ('A' for Active; 'I' for Inactive)
REMARK    1  A    between atoms: C_1  and  N_2
REMARK    2  A    between atoms: N_2  and  C_3
REMARK    3  A    between atoms: C_4  and  C_6
REMARK    4  A    between atoms: C_6  and  N_7
REMARK    5  A    between atoms: C_8  and  C_10
REMARK    6  A    between atoms: C_15  and  O_16
REMARK                            x       y       z     vdW  Elec       q    Type
REMARK                         _______ _______ _______ _____ _____    ______ ____
ROOT
ATOM      1  N   UNL     1       2.389   5.297   0.006  0.00  0.00    -0.303 N 
ATOM      2  C   UNL     1       2.417   3.950  -0.001  0.00  0.00    +0.248 C 
ATOM      3  O   UNL     1       3.482   3.364  -0.014  0.00  0.00    -0.270 OA
ATOM      4  H   UNL     1       1.425   5.827   0.018  0.00  0.00    +0.150 HD
ENDROOT
BRANCH   2   5
ATOM      5  C   UNL     1       1.155   3.186   0.008  0.00  0.00    +0.079 A 
ATOM      6  C   UNL     1      -0.071   3.855   0.022  0.00  0.00    +0.032 A 
ATOM      7  C   UNL     1      -1.247   3.135   0.030  0.00  0.00    +0.019 A 
ATOM      8  C   UNL     1      -1.218   1.749   0.017  0.00  0.00    +0.019 A 
ATOM      9  C   UNL     1      -0.013   1.076   0.008  0.00  0.00    +0.047 A 
ATOM     10  C   UNL     1       1.180   1.785   0.000  0.00  0.00    +0.129 A 
ATOM     11 BR   UNL     1      -2.906   4.041   0.049  0.00  0.00    -0.050 Br
BRANCH  10  12
ATOM     12  O   UNL     1       2.365   1.124  -0.015  0.00  0.00    -0.506 OA
ATOM     13  H   UNL     1       2.381   0.024  -0.020  0.00  0.00    +0.292 HD
ENDBRANCH  10  12
ENDBRANCH   2   5
BRANCH   1  14
ATOM     14  C   UNL     1       3.642   6.056  -0.002  0.00  0.00    +0.200 C 
BRANCH  14  18
ATOM     15  C   UNL     1       4.044   9.863   0.013  0.00  0.00    +0.131 C 
ATOM     16  N   UNL     1       4.341   8.429   0.003  0.00  0.00    -0.306 N 
ATOM     17  C   UNL     1       5.732   7.970  -0.013  0.00  0.00    +0.131 C 
ATOM     18  C   UNL     1       3.336   7.532   0.008  0.00  0.00    +0.232 C 
ATOM     19  O   UNL     1       2.184   7.912   0.021  0.00  0.00    -0.274 OA
ENDBRANCH  14  18
ENDBRANCH   1  14
TORSDOF 4
