REMARK  Name = ZINC62383252
REMARK  8 active torsions:
REMARK  status: ('A' for Active; 'I' for Inactive)
REMARK    1  A    between atoms: C_1  and  C_2
REMARK    2  A    between atoms: C_6  and  O_24
REMARK    3  A    between atoms: C_7  and  C_13
REMARK    4  A    between atoms: N_8  and  C_9
REMARK    5  A    between atoms: C_9  and  C_10
REMARK    6  A    between atoms: C_13  and  N_14
REMARK    7  A    between atoms: C_16  and  C_23
REMARK    8  A    between atoms: C_19  and  C_22
REMARK                            x       y       z     vdW  Elec       q    Type
REMARK                         _______ _______ _______ _____ _____    ______ ____
ROOT
ATOM      1  C   UNL     1      -0.960   1.558   0.451  0.00  0.00    +0.063 C 
ATOM      2  C   UNL     1      -0.489   0.136   0.280  0.00  0.00    +0.020 A 
ATOM      3  C   UNL     1      -0.355  -0.378  -0.963  0.00  0.00    +0.075 A 
ATOM      4  C   UNL     1       0.087  -1.711  -1.116  0.00  0.00    +0.223 A 
ATOM      5  O   UNL     1       0.218  -2.201  -2.229  0.00  0.00    -0.284 OA
ATOM      6  C   UNL     1       0.377  -2.469   0.047  0.00  0.00    +0.181 A 
ATOM      7  C   UNL     1       0.222  -1.895   1.264  0.00  0.00    +0.048 A 
ATOM      8  N   UNL     1      -0.200  -0.609   1.374  0.00  0.00    -0.335 N 
ENDROOT
BRANCH   6   9
ATOM      9  O   UNL     1       0.805  -3.756  -0.058  0.00  0.00    -0.502 OA
ATOM     10  H   UNL     1       0.882  -4.072  -0.969  0.00  0.00    +0.292 HD
ENDBRANCH   6   9
BRANCH   8  11
ATOM     11  C   UNL     1      -0.351  -0.016   2.705  0.00  0.00    +0.246 C 
BRANCH  11  12
ATOM     12  C   UNL     1      -1.786  -0.138   3.149  0.00  0.00    +0.375 C 
ATOM     13  O   UNL     1      -2.606  -0.671   2.421  0.00  0.00    -0.244 OA
ATOM     14  O   UNL     1      -2.127   0.296   4.236  0.00  0.00    -0.244 OA
ENDBRANCH  11  12
ENDBRANCH   8  11
BRANCH   7  15
ATOM     15  C   UNL     1       0.526  -2.690   2.508  0.00  0.00    -0.021 C 
BRANCH  15  16
ATOM     16  N   UNL     1       1.817  -2.258   3.062  0.00  0.00    +0.384 N 
ATOM     17  C   UNL     1       2.889  -2.594   2.118  0.00  0.00    -0.075 C 
ATOM     18  C   UNL     1       4.226  -2.074   2.653  0.00  0.00    -0.031 C 
ATOM     19  C   UNL     1       4.514  -2.724   4.009  0.00  0.00    +0.003 C 
ATOM     20  C   UNL     1       3.353  -2.430   4.963  0.00  0.00    -0.031 C 
ATOM     21  C   UNL     1       2.049  -2.936   4.343  0.00  0.00    -0.075 C 
ATOM     22  C   UNL     1       3.595  -3.139   6.297  0.00  0.00    +0.005 C 
ATOM     23  C   UNL     1       5.342  -2.427   1.669  0.00  0.00    +0.005 C 
ATOM     24  H   UNL     1       1.801  -1.260   3.209  0.00  0.00    -0.081 HD
ENDBRANCH  15  16
ENDBRANCH   7  15
TORSDOF 5
