REMARK  Name = ZINC58755549
REMARK  5 active torsions:
REMARK  status: ('A' for Active; 'I' for Inactive)
REMARK    1  A    between atoms: C_5  and  C_7
REMARK    2  A    between atoms: C_7  and  C_9
REMARK    3  A    between atoms: C_7  and  O_23
REMARK    4  A    between atoms: C_9  and  N_10
REMARK    5  A    between atoms: N_13  and  C_14
REMARK                            x       y       z     vdW  Elec       q    Type
REMARK                         _______ _______ _______ _____ _____    ______ ____
ROOT
ATOM      1  N   UNL     1       1.372  -4.151  -1.471  0.00  0.00    -0.296 N 
ATOM      2  C   UNL     1       1.464  -4.817  -2.639  0.00  0.00    +0.304 C 
ATOM      3  O   UNL     1       1.528  -4.202  -3.686  0.00  0.00    -0.253 OA
ATOM      4  N   UNL     1       1.484  -6.165  -2.647  0.00  0.00    -0.269 N 
ATOM      5  H   UNL     1       1.320  -4.642  -0.636  0.00  0.00    +0.150 HD
ATOM      6  H   UNL     1       1.500  -6.654  -1.810  0.00  0.00    +0.156 HD
ENDROOT
BRANCH   4   7
ATOM      7  C   UNL     1       1.481  -6.858  -3.865  0.00  0.00    +0.038 A 
ATOM      8  C   UNL     1       0.802  -8.064  -3.975  0.00  0.00    +0.027 A 
ATOM      9  C   UNL     1       0.798  -8.749  -5.176  0.00  0.00    +0.051 A 
ATOM     10  C   UNL     1       1.472  -8.235  -6.272  0.00  0.00    +0.166 A 
ATOM     11  C   UNL     1       2.154  -7.025  -6.164  0.00  0.00    +0.168 A 
ATOM     12  C   UNL     1       2.153  -6.337  -4.962  0.00  0.00    +0.073 A 
ATOM     13  O   UNL     1       2.729  -6.740  -7.368  0.00  0.00    -0.453 OA
ATOM     14  C   UNL     1       2.735  -7.982  -8.096  0.00  0.00    +0.466 C 
ATOM     15  O   UNL     1       1.619  -8.706  -7.545  0.00  0.00    -0.453 OA
ENDBRANCH   4   7
BRANCH   1  16
ATOM     16  C   UNL     1       1.350  -2.686  -1.462  0.00  0.00    +0.142 C 
BRANCH  16  17
ATOM     17  C   UNL     1       1.242  -2.186  -0.021  0.00  0.00    +0.164 C 
BRANCH  17  22
ATOM     18  C   UNL     1      -0.008   1.376   0.020  0.00  0.00    +0.001 A 
ATOM     19  C   UNL     1       1.178   2.086   0.004  0.00  0.00    +0.003 A 
ATOM     20  C   UNL     1       2.386   1.415  -0.021  0.00  0.00    +0.039 A 
ATOM     21  C   UNL     1       2.408   0.031  -0.028  0.00  0.00    +0.129 A 
ATOM     22  C   UNL     1       1.220  -0.679  -0.012  0.00  0.00    +0.018 A 
ATOM     23  C   UNL     1       0.013  -0.006   0.013  0.00  0.00    +0.009 A 
ATOM     24  F   UNL     1       3.588  -0.626  -0.052  0.00  0.00    -0.205 F 
ENDBRANCH  17  22
BRANCH  17  25
ATOM     25  O   UNL     1       0.038  -2.684   0.567  0.00  0.00    -0.386 OA
ATOM     26  H   UNL     1      -0.767  -2.408   0.108  0.00  0.00    +0.210 HD
ENDBRANCH  17  25
ENDBRANCH  16  17
ENDBRANCH   1  16
TORSDOF 5
