REMARK  Name = ZINC42829166
REMARK  7 active torsions:
REMARK  status: ('A' for Active; 'I' for Inactive)
REMARK    1  A    between atoms: C_1  and  N_2
REMARK    2  A    between atoms: N_2  and  C_3
REMARK    3  A    between atoms: N_2  and  C_9
REMARK    4  A    between atoms: C_3  and  C_4
REMARK    5  A    between atoms: C_9  and  C_10
REMARK    6  A    between atoms: N_12  and  C_13
REMARK    7  A    between atoms: C_14  and  N_21
REMARK                            x       y       z     vdW  Elec       q    Type
REMARK                         _______ _______ _______ _____ _____    ______ ____
ROOT
ATOM      1  C   UNL     1      -3.225   0.487   0.621  0.00  0.00    +0.201 C 
ATOM      2  O   UNL     1      -3.729   1.570   0.833  0.00  0.00    -0.278 OA
ATOM      3  N   UNL     1      -3.320  -0.492   1.542  0.00  0.00    -0.284 N 
ATOM      4  H   UNL     1      -2.982  -1.379   1.343  0.00  0.00    +0.155 HD
ENDROOT
BRANCH   3   5
ATOM      5  C   UNL     1      -3.907  -0.229   2.788  0.00  0.00    +0.073 A 
ATOM      6  C   UNL     1      -5.277  -0.414   2.969  0.00  0.00    +0.049 A 
ATOM      7  C   UNL     1      -5.852  -0.152   4.204  0.00  0.00    +0.044 A 
ATOM      8  C   UNL     1      -5.067   0.292   5.252  0.00  0.00    +0.044 A 
ATOM      9  C   UNL     1      -3.707   0.476   5.073  0.00  0.00    +0.042 A 
ATOM     10  C   UNL     1      -3.125   0.212   3.846  0.00  0.00    +0.065 A 
ATOM     11 CL   UNL     1      -1.418   0.438   3.628  0.00  0.00    -0.082 Cl
ATOM     12 CL   UNL     1      -5.789   0.620   6.796  0.00  0.00    -0.083 Cl
BRANCH   6  13
ATOM     13  N   UNL     1      -6.070  -0.863   1.907  0.00  0.00    -0.356 N 
ATOM     14  H   UNL     1      -5.667  -1.046   1.044  0.00  0.00    +0.142 HD
ATOM     15  H   UNL     1      -7.023  -0.992   2.034  0.00  0.00    +0.142 HD
ENDBRANCH   6  13
ENDBRANCH   3   5
BRANCH   1  16
ATOM     16  C   UNL     1      -2.495   0.236  -0.673  0.00  0.00    +0.019 C 
BRANCH  16  18
ATOM     17  C   UNL     1      -3.921   1.735  -1.887  0.00  0.00    -0.095 C 
ATOM     18  N   UNL     1      -2.533   1.450  -1.500  0.00  0.00    +0.387 N 
ATOM     19  H   UNL     1      -2.164   2.228  -0.974  0.00  0.00    -0.081 HD
BRANCH  18  20
ATOM     20  C   UNL     1      -1.721   1.246  -2.707  0.00  0.00    -0.022 C 
BRANCH  20  21
ATOM     21  C   UNL     1      -1.660   2.530  -3.494  0.00  0.00    +0.032 A 
ATOM     22  C   UNL     1      -0.626   3.399  -3.355  0.00  0.00    +0.068 A 
ATOM     23  S   UNL     1      -1.111   4.673  -4.508  0.00  0.00    -0.084 S 
ATOM     24  C   UNL     1      -2.550   3.976  -5.032  0.00  0.00    +0.156 A 
ATOM     25  N   UNL     1      -2.604   2.857  -4.353  0.00  0.00    -0.254 NA
ENDBRANCH  20  21
ENDBRANCH  18  20
ENDBRANCH  16  18
ENDBRANCH   1  16
TORSDOF 6
