REMARK  Name = ZINC29456817
REMARK  5 active torsions:
REMARK  status: ('A' for Active; 'I' for Inactive)
REMARK    1  A    between atoms: C_1  and  C_2
REMARK    2  A    between atoms: C_2  and  C_4
REMARK    3  A    between atoms: C_2  and  N_15
REMARK    4  A    between atoms: N_6  and  C_7
REMARK    5  A    between atoms: N_15  and  C_16
REMARK                            x       y       z     vdW  Elec       q    Type
REMARK                         _______ _______ _______ _____ _____    ______ ____
ROOT
ATOM      1  C   UNL     1       4.374   5.552  -1.476  0.00  0.00    +0.038 C 
ATOM      2  C   UNL     1       3.632   6.001  -0.216  0.00  0.00    +0.154 C 
ENDROOT
BRANCH   2   3
ATOM      3  C   UNL     1       2.339   5.236  -0.094  0.00  0.00    +0.237 C 
ATOM      4  O   UNL     1       1.282   5.830  -0.082  0.00  0.00    -0.273 OA
ATOM      5  N   UNL     1       2.358   3.892   0.000  0.00  0.00    -0.282 N 
ATOM      6  H   UNL     1       3.318   3.358   0.063  0.00  0.00    +0.155 HD
BRANCH   5   7
ATOM      7  C   UNL     1       1.156   3.174   0.019  0.00  0.00    +0.072 A 
ATOM      8  C   UNL     1       0.035   3.711   0.636  0.00  0.00    +0.064 A 
ATOM      9  C   UNL     1      -1.151   2.999   0.653  0.00  0.00    +0.125 A 
ATOM     10  C   UNL     1      -1.222   1.754   0.051  0.00  0.00    +0.041 A 
ATOM     11  C   UNL     1      -0.105   1.215  -0.560  0.00  0.00    +0.043 A 
ATOM     12  C   UNL     1       1.083   1.921  -0.581  0.00  0.00    +0.145 A 
ATOM     13  F   UNL     1       2.173   1.395  -1.182  0.00  0.00    -0.204 F 
ATOM     14  F   UNL     1      -2.243   3.522   1.254  0.00  0.00    -0.205 F 
ENDBRANCH   5   7
ENDBRANCH   2   3
BRANCH   2  15
ATOM     15  N   UNL     1       3.344   7.435  -0.303  0.00  0.00    -0.333 N 
ATOM     16  H   UNL     1       2.370   7.779  -0.681  0.00  0.00    +0.147 HD
BRANCH  15  17
ATOM     17  C   UNL     1       4.309   8.368   0.095  0.00  0.00    +0.031 A 
ATOM     18  C   UNL     1       5.536   7.934   0.578  0.00  0.00    +0.027 A 
ATOM     19  C   UNL     1       6.492   8.854   0.966  0.00  0.00    +0.051 A 
ATOM     20  C   UNL     1       6.224  10.211   0.885  0.00  0.00    +0.173 A 
ATOM     21  C   UNL     1       4.991  10.649   0.406  0.00  0.00    +0.174 A 
ATOM     22  C   UNL     1       4.036   9.726   0.012  0.00  0.00    +0.072 A 
ATOM     23  O   UNL     1       4.976  12.014   0.425  0.00  0.00    -0.395 OA
ATOM     24  C   UNL     1       6.052  12.399   1.301  0.00  0.00    +0.589 C 
ATOM     25  O   UNL     1       6.981  11.303   1.204  0.00  0.00    -0.395 OA
ATOM     26  F   UNL     1       5.591  12.538   2.614  0.00  0.00    -0.125 F 
ATOM     27  F   UNL     1       6.646  13.587   0.861  0.00  0.00    -0.125 F 
ENDBRANCH  15  17
ENDBRANCH   2  15
TORSDOF 4
