REMARK  Name = ZINC67458480
REMARK  10 active torsions:
REMARK  status: ('A' for Active; 'I' for Inactive)
REMARK    1  A    between atoms: C_1  and  C_2
REMARK    2  A    between atoms: C_2  and  O_3
REMARK    3  A    between atoms: O_3  and  C_4
REMARK    4  A    between atoms: C_7  and  C_10
REMARK    5  A    between atoms: C_10  and  C_11
REMARK    6  A    between atoms: C_10  and  C_12
REMARK    7  A    between atoms: C_10  and  N_13
REMARK    8  A    between atoms: C_14  and  C_16
REMARK    9  A    between atoms: C_19  and  N_24
REMARK   10  A    between atoms: N_22  and  C_23
REMARK                            x       y       z     vdW  Elec       q    Type
REMARK                         _______ _______ _______ _____ _____    ______ ____
ROOT
ATOM      1  N   UNL     1       2.582  -5.863  -3.186  0.00  0.00    -0.305 N 
ATOM      2  C   UNL     1       2.312  -7.132  -3.550  0.00  0.00    +0.231 C 
ATOM      3  O   UNL     1       1.721  -7.869  -2.789  0.00  0.00    -0.274 OA
ATOM      4  H   UNL     1       3.055  -5.274  -3.794  0.00  0.00    +0.150 HD
ENDROOT
BRANCH   2   5
ATOM      5  C   UNL     1       2.746  -7.636  -4.902  0.00  0.00    +0.141 C 
ATOM      6  C   UNL     1       1.509  -8.024  -5.739  0.00  0.00    +0.013 C 
ATOM      7  C   UNL     1       1.980  -9.299  -6.488  0.00  0.00    -0.059 C 
ATOM      8  C   UNL     1       2.881  -9.973  -5.424  0.00  0.00    +0.069 C 
ATOM      9  N   UNL     1       3.569  -8.850  -4.745  0.00  0.00    -0.296 NA
ATOM     10  C   UNL     1       3.796  -9.151  -3.325  0.00  0.00    +0.105 C 
BRANCH   7  11
ATOM     11  N   UNL     1       0.839 -10.158  -6.833  0.00  0.00    +0.381 N 
ATOM     12  H   UNL     1       0.202  -9.649  -7.428  0.00  0.00    -0.090 HD
ATOM     13  H   UNL     1       1.170 -10.978  -7.319  0.00  0.00    -0.090 HD
ATOM     14  H   UNL     1       0.361 -10.436  -5.990  0.00  0.00    -0.090 HD
ENDBRANCH   7  11
ENDBRANCH   2   5
BRANCH   1  15
ATOM     15  C   UNL     1       2.160  -5.372  -1.871  0.00  0.00    +0.054 C 
ATOM     16  C   UNL     1       2.795  -6.234  -0.778  0.00  0.00    +0.036 C 
ATOM     17  C   UNL     1       0.636  -5.451  -1.762  0.00  0.00    +0.036 C 
BRANCH  15  21
ATOM     18  C   UNL     1       3.415  -1.315  -1.394  0.00  0.00    +0.121 A 
ATOM     19  C   UNL     1       2.338  -1.800  -0.666  0.00  0.00    +0.046 A 
ATOM     20  C   UNL     1       1.935  -3.112  -0.822  0.00  0.00    +0.009 A 
ATOM     21  C   UNL     1       2.603  -3.942  -1.703  0.00  0.00    -0.024 A 
ATOM     22  C   UNL     1       3.676  -3.461  -2.430  0.00  0.00    +0.009 A 
ATOM     23  C   UNL     1       4.080  -2.148  -2.282  0.00  0.00    +0.046 A 
BRANCH  18  24
ATOM     24  O   UNL     1       3.814  -0.025  -1.243  0.00  0.00    -0.492 OA
BRANCH  24  26
ATOM     25  C   UNL     1       3.673   2.186  -0.277  0.00  0.00    +0.048 C 
ATOM     26  C   UNL     1       3.083   0.775  -0.311  0.00  0.00    +0.225 C 
ENDBRANCH  24  26
ENDBRANCH  18  24
ENDBRANCH  15  21
ENDBRANCH   1  15
TORSDOF 6
