REMARK  Name = ZINC43511236
REMARK  4 active torsions:
REMARK  status: ('A' for Active; 'I' for Inactive)
REMARK    1  A    between atoms: C_3  and  S_9
REMARK    2  A    between atoms: S_9  and  N_12
REMARK    3  A    between atoms: N_12  and  C_13
REMARK    4  A    between atoms: C_13  and  C_18
REMARK                            x       y       z     vdW  Elec       q    Type
REMARK                         _______ _______ _______ _____ _____    ______ ____
ROOT
ATOM      1  S   UNL     1       4.323   2.375  -0.238  0.00  0.00    +0.060 S 
ATOM      2  O   UNL     1       3.674   3.630  -0.091  0.00  0.00    -0.153 OA
ATOM      3  O   UNL     1       3.716   1.277  -0.906  0.00  0.00    -0.153 OA
ENDROOT
BRANCH   1   6
ATOM      4  C   UNL     1       7.379   2.205  -2.841  0.00  0.00    +0.040 A 
ATOM      5  C   UNL     1       6.184   1.960  -2.191  0.00  0.00    +0.032 A 
ATOM      6  C   UNL     1       5.846   2.689  -1.066  0.00  0.00    +0.119 A 
ATOM      7  C   UNL     1       6.703   3.666  -0.591  0.00  0.00    +0.047 A 
ATOM      8  C   UNL     1       7.898   3.913  -1.241  0.00  0.00    +0.055 A 
ATOM      9  C   UNL     1       8.237   3.182  -2.367  0.00  0.00    +0.125 A 
ATOM     10  F   UNL     1       9.405   3.423  -3.002  0.00  0.00    -0.205 F 
ATOM     11 BR   UNL     1       6.239   4.663   0.947  0.00  0.00    -0.048 Br
ENDBRANCH   1   6
BRANCH   1  12
ATOM     12  N   UNL     1       4.695   1.852   1.289  0.00  0.00    -0.172 NA
ATOM     13  H   UNL     1       4.600   2.453   2.044  0.00  0.00    +0.149 HD
BRANCH  12  14
ATOM     14  C   UNL     1       5.168   0.481   1.499  0.00  0.00    +0.150 C 
ATOM     15  C   UNL     1       5.646   0.324   2.952  0.00  0.00    +0.047 C 
ATOM     16  C   UNL     1       6.993   1.086   3.104  0.00  0.00    +0.071 C 
ATOM     17  S   UNL     1       7.814   0.640   1.516  0.00  0.00    -0.158 S 
ATOM     18  C   UNL     1       6.333   0.185   0.525  0.00  0.00    +0.104 C 
BRANCH  14  19
ATOM     19  C   UNL     1       4.039  -0.482   1.238  0.00  0.00    +0.378 C 
ATOM     20  O   UNL     1       2.908  -0.064   1.064  0.00  0.00    -0.244 OA
ATOM     21  O   UNL     1       4.258  -1.681   1.200  0.00  0.00    -0.244 OA
ENDBRANCH  14  19
ENDBRANCH  12  14
ENDBRANCH   1  12
TORSDOF 4
