REMARK  Name = ZINC67267163
REMARK  5 active torsions:
REMARK  status: ('A' for Active; 'I' for Inactive)
REMARK    1  A    between atoms: C_1  and  C_2
REMARK    2  A    between atoms: C_5  and  C_8
REMARK    3  A    between atoms: C_8  and  C_10
REMARK    4  A    between atoms: C_8  and  N_11
REMARK    5  A    between atoms: C_12  and  C_14
REMARK                            x       y       z     vdW  Elec       q    Type
REMARK                         _______ _______ _______ _____ _____    ______ ____
ROOT
ATOM      1  C   UNL     1       2.460  -6.468   1.999  0.00  0.00    +0.075 C 
ATOM      2  C   UNL     1       3.644  -5.509   2.137  0.00  0.00    +0.015 C 
ATOM      3  C   UNL     1       4.577  -6.008   3.243  0.00  0.00    +0.036 C 
ATOM      4  C   UNL     1       5.073  -7.408   2.901  0.00  0.00    +0.112 C 
ATOM      5  C   UNL     1       3.902  -8.371   2.736  0.00  0.00    +0.036 C 
ATOM      6  C   UNL     1       2.972  -7.862   1.631  0.00  0.00    +0.015 C 
ATOM      7  C   UNL     1       5.913  -7.379   1.645  0.00  0.00    +0.244 C 
ATOM      8  O   UNL     1       5.562  -7.040   0.535  0.00  0.00    -0.273 OA
ATOM      9  N   UNL     1       7.136  -7.809   2.019  0.00  0.00    -0.238 N 
ATOM     10  C   UNL     1       7.178  -8.101   3.325  0.00  0.00    +0.307 C 
ATOM     11  O   UNL     1       8.171  -8.507   3.895  0.00  0.00    -0.252 OA
ATOM     12  N   UNL     1       5.995  -7.894   3.935  0.00  0.00    -0.285 N 
ATOM     13  H   UNL     1       7.892  -7.895   1.417  0.00  0.00    +0.159 HD
ATOM     14  H   UNL     1       5.793  -8.037   4.873  0.00  0.00    +0.151 HD
ENDROOT
BRANCH   1  16
ATOM     15  N   UNL     1       0.959  -4.758   1.029  0.00  0.00    -0.309 N 
ATOM     16  C   UNL     1       1.534  -5.972   0.919  0.00  0.00    +0.217 C 
ATOM     17  O   UNL     1       1.306  -6.665  -0.050  0.00  0.00    -0.275 OA
ATOM     18  H   UNL     1       1.142  -4.204   1.804  0.00  0.00    +0.149 HD
BRANCH  15  19
ATOM     19  C   UNL     1       0.059  -4.275  -0.021  0.00  0.00    +0.100 C 
ATOM     20  C   UNL     1      -1.353  -4.805   0.234  0.00  0.00    +0.033 C 
BRANCH  19  25
ATOM     21  C   UNL     1      -0.018   1.503   0.010  0.00  0.00    +0.044 C 
ATOM     22  C   UNL     1       0.002  -0.004   0.002  0.00  0.00    -0.050 A 
ATOM     23  C   UNL     1       0.006  -0.689  -1.199  0.00  0.00    +0.004 A 
ATOM     24  C   UNL     1       0.025  -2.071  -1.206  0.00  0.00    +0.006 A 
ATOM     25  C   UNL     1       0.040  -2.768  -0.013  0.00  0.00    -0.027 A 
ATOM     26  C   UNL     1       0.037  -2.084   1.188  0.00  0.00    +0.006 A 
ATOM     27  C   UNL     1       0.023  -0.702   1.195  0.00  0.00    +0.004 A 
ENDBRANCH  19  25
ENDBRANCH  15  19
ENDBRANCH   1  16
TORSDOF 3
