REMARK  Name = ZINC62846948
REMARK  5 active torsions:
REMARK  status: ('A' for Active; 'I' for Inactive)
REMARK    1  A    between atoms: C_1  and  C_2
REMARK    2  A    between atoms: C_2  and  C_3
REMARK    3  A    between atoms: C_3  and  C_4
REMARK    4  A    between atoms: C_4  and  C_20
REMARK    5  A    between atoms: C_16  and  N_19
REMARK                            x       y       z     vdW  Elec       q    Type
REMARK                         _______ _______ _______ _____ _____    ______ ____
ROOT
ATOM      1  C   UNL     1       0.687  -3.056  -0.643  0.00  0.00    +0.075 C 
ATOM      2  C   UNL     1       1.699  -2.841   0.484  0.00  0.00    +0.037 C 
ATOM      3  C   UNL     1       2.872  -2.007  -0.040  0.00  0.00    +0.110 C 
ATOM      4  N   UNL     1       3.426  -2.667  -1.231  0.00  0.00    -0.285 N 
ATOM      5  C   UNL     1       2.520  -3.002  -2.338  0.00  0.00    +0.110 C 
ATOM      6  C   UNL     1       1.351  -3.824  -1.788  0.00  0.00    +0.037 C 
ATOM      7  C   UNL     1       4.740  -2.959  -1.306  0.00  0.00    +0.305 C 
ATOM      8  O   UNL     1       5.442  -2.859  -0.319  0.00  0.00    -0.252 OA
ATOM      9  N   UNL     1       5.275  -3.361  -2.476  0.00  0.00    -0.287 N 
ATOM     10  C   UNL     1       4.634  -3.012  -3.751  0.00  0.00    +0.109 C 
ATOM     11  C   UNL     1       5.670  -2.333  -4.653  0.00  0.00    +0.017 C 
ATOM     12  C   UNL     1       6.893  -3.242  -4.792  0.00  0.00    -0.013 C 
ATOM     13  C   UNL     1       7.524  -3.465  -3.416  0.00  0.00    -0.057 C 
ATOM     14  C   UNL     1       6.513  -4.151  -2.500  0.00  0.00    +0.093 C 
ENDROOT
BRANCH  13  15
ATOM     15  N   UNL     1       8.717  -4.311  -3.555  0.00  0.00    +0.381 N 
ATOM     16  H   UNL     1       9.384  -3.856  -4.160  0.00  0.00    -0.090 HD
ATOM     17  H   UNL     1       9.133  -4.458  -2.647  0.00  0.00    -0.090 HD
ATOM     18  H   UNL     1       8.454  -5.200  -3.952  0.00  0.00    -0.090 HD
ENDBRANCH  13  15
BRANCH   1  19
ATOM     19  C   UNL     1      -0.485  -3.848  -0.121  0.00  0.00    +0.362 C 
ATOM     20  O   UNL     1      -1.606  -3.371  -0.155  0.00  0.00    -0.246 OA
ATOM     21  O   UNL     1      -0.311  -4.965   0.336  0.00  0.00    -0.246 OA
ENDBRANCH   1  19
BRANCH   1  22
ATOM     22  C   UNL     1       0.198  -1.700  -1.155  0.00  0.00    +0.018 C 
BRANCH  22  24
ATOM     23  C   UNL     1      -0.955   0.424  -0.522  0.00  0.00    +0.004 C 
ATOM     24  C   UNL     1      -0.466  -0.932  -0.010  0.00  0.00    -0.002 C 
ENDBRANCH  22  24
ENDBRANCH   1  22
TORSDOF 4
