REMARK  Name = ZINC54399235
REMARK  3 active torsions:
REMARK  status: ('A' for Active; 'I' for Inactive)
REMARK    1  A    between atoms: C_1  and  C_2
REMARK    2  A    between atoms: C_4  and  C_16
REMARK    3  A    between atoms: C_8  and  C_13
REMARK                            x       y       z     vdW  Elec       q    Type
REMARK                         _______ _______ _______ _____ _____    ______ ____
ROOT
ATOM      1  C   UNL     1       0.517   1.478  -0.013  0.00  0.00    +0.069 C 
ATOM      2  C   UNL     1       0.259  -0.007   0.002  0.00  0.00    +0.075 A 
ATOM      3  C   UNL     1      -0.157  -0.778  -1.090  0.00  0.00    +0.062 A 
ATOM      4  C   UNL     1      -0.276  -2.060  -0.675  0.00  0.00    +0.058 A 
ATOM      5  N   UNL     1       0.055  -2.098   0.644  0.00  0.00    -0.215 N 
ATOM      6  N   UNL     1       0.391  -0.796   1.038  0.00  0.00    -0.169 NA
ATOM      7  C   UNL     1       0.064  -3.229   1.456  0.00  0.00    +0.185 A 
ATOM      8  C   UNL     1      -0.724  -3.271   2.615  0.00  0.00    +0.169 A 
ATOM      9  N   UNL     1      -0.709  -4.355   3.384  0.00  0.00    -0.245 NA
ATOM     10  C   UNL     1       0.044  -5.385   3.056  0.00  0.00    +0.131 A 
ATOM     11  C   UNL     1       0.825  -5.344   1.909  0.00  0.00    +0.133 A 
ATOM     12  N   UNL     1       0.815  -4.275   1.134  0.00  0.00    -0.233 NA
ATOM     13  C   UNL     1      -0.700  -3.234  -1.520  0.00  0.00    +0.067 C 
ATOM     14 BR   UNL     1      -0.494  -0.140  -2.838  0.00  0.00    -0.047 Br
ENDROOT
BRANCH   8  15
ATOM     15  C   UNL     1      -1.568  -2.112   2.981  0.00  0.00    +0.264 C 
ATOM     16  O   UNL     1      -1.660  -1.165   2.225  0.00  0.00    -0.269 OA
ATOM     17  N   UNL     1      -2.236  -2.108   4.151  0.00  0.00    -0.324 N 
ATOM     18  H   UNL     1      -2.163  -2.865   4.754  0.00  0.00    +0.145 HD
ATOM     19  H   UNL     1      -2.790  -1.349   4.391  0.00  0.00    +0.145 HD
ENDBRANCH   8  15
TORSDOF 1
