REMARK  Name = ZINC39545678
REMARK  7 active torsions:
REMARK  status: ('A' for Active; 'I' for Inactive)
REMARK    1  A    between atoms: C_1  and  C_2
REMARK    2  A    between atoms: C_2  and  C_3
REMARK    3  A    between atoms: C_2  and  S_4
REMARK    4  A    between atoms: S_4  and  N_7
REMARK    5  A    between atoms: N_7  and  C_8
REMARK    6  A    between atoms: C_13  and  O_14
REMARK    7  A    between atoms: C_15  and  C_17
REMARK                            x       y       z     vdW  Elec       q    Type
REMARK                         _______ _______ _______ _____ _____    ______ ____
ROOT
ATOM      1  N   UNL     1       0.094  -1.925  -1.000  0.00  0.00    -0.139 N 
ATOM      2  C   UNL     1       1.062  -2.650  -0.405  0.00  0.00    +0.258 C 
ATOM      3  O   UNL     1       0.895  -3.834  -0.201  0.00  0.00    -0.272 OA
ENDROOT
BRANCH   2   4
ATOM      4  C   UNL     1       2.353  -1.990   0.007  0.00  0.00    +0.151 C 
ATOM      5  C   UNL     1       2.761  -2.439   1.423  0.00  0.00    +0.081 C 
ATOM      6  C   UNL     1       4.079  -3.152   1.218  0.00  0.00    +0.055 C 
ATOM      7  C   UNL     1       4.396  -3.125  -0.051  0.00  0.00    +0.090 C 
ATOM      8  N   UNL     1       5.534  -3.717  -0.635  0.00  0.00    -0.303 N 
ATOM      9  C   UNL     1       5.323  -4.271  -1.909  0.00  0.00    +0.037 A 
ATOM     10  C   UNL     1       6.342  -4.979  -2.530  0.00  0.00    +0.023 A 
ATOM     11  C   UNL     1       6.139  -5.515  -3.787  0.00  0.00    +0.002 A 
ATOM     12  C   UNL     1       4.921  -5.342  -4.420  0.00  0.00    +0.000 A 
ATOM     13  C   UNL     1       3.906  -4.640  -3.800  0.00  0.00    +0.007 A 
ATOM     14  C   UNL     1       4.098  -4.103  -2.537  0.00  0.00    -0.010 A 
ATOM     15  C   UNL     1       2.963  -3.365  -1.877  0.00  0.00    +0.124 C 
ATOM     16  N   UNL     1       3.461  -2.445  -0.849  0.00  0.00    -0.369 NA
ATOM     17 CL   UNL     1       5.025  -3.891   2.472  0.00  0.00    -0.085 Cl
ATOM     18  H   UNL     1       6.396  -3.740  -0.191  0.00  0.00    +0.153 HD
ATOM     19  H   UNL     1       3.900  -1.649  -1.288  0.00  0.00    +0.129 HD
ENDBRANCH   2   4
BRANCH   1  20
ATOM     20  C   UNL     1      -1.152  -2.507  -1.268  0.00  0.00    +0.101 A 
ATOM     21  C   UNL     1      -2.122  -2.560  -0.278  0.00  0.00    +0.029 A 
ATOM     22  C   UNL     1      -3.350  -3.135  -0.545  0.00  0.00    +0.002 A 
ATOM     23  C   UNL     1      -3.616  -3.657  -1.797  0.00  0.00    +0.004 A 
ATOM     24  C   UNL     1      -2.654  -3.608  -2.789  0.00  0.00    +0.047 A 
ATOM     25  C   UNL     1      -1.422  -3.028  -2.531  0.00  0.00    +0.140 A 
BRANCH  25  26
ATOM     26  O   UNL     1      -0.477  -2.973  -3.508  0.00  0.00    -0.505 OA
ATOM     27  H   UNL     1       0.108  -3.743  -3.533  0.00  0.00    +0.292 HD
ENDBRANCH  25  26
ENDBRANCH   1  20
BRANCH   1  28
ATOM     28  S   UNL     1       0.378  -0.347  -1.414  0.00  0.00    +0.054 S 
ATOM     29  O   UNL     1      -0.768   0.044  -2.158  0.00  0.00    -0.154 OA
ATOM     30  O   UNL     1       1.665  -0.356  -2.017  0.00  0.00    -0.154 OA
BRANCH  28  32
ATOM     31  C   UNL     1       0.664   2.035  -0.102  0.00  0.00    +0.033 C 
ATOM     32  C   UNL     1       0.433   0.546   0.163  0.00  0.00    +0.146 C 
ATOM     33  C   UNL     1      -0.893   0.359   0.902  0.00  0.00    +0.033 C 
ENDBRANCH  28  32
ENDBRANCH   1  28
TORSDOF 5
