REMARK  Name = ZINC24172746
REMARK  10 active torsions:
REMARK  status: ('A' for Active; 'I' for Inactive)
REMARK    1  A    between atoms: C_1  and  C_2
REMARK    2  A    between atoms: C_2  and  C_3
REMARK    3  A    between atoms: C_3  and  C_5
REMARK    4  A    between atoms: C_3  and  C_6
REMARK    5  A    between atoms: C_6  and  C_7
REMARK    6  A    between atoms: C_8  and  C_32
REMARK    7  A    between atoms: C_16  and  S_18
REMARK    8  A    between atoms: S_18  and  C_19
REMARK    9  A    between atoms: C_19  and  C_20
REMARK   10  A    between atoms: C_26  and  C_29
REMARK                            x       y       z     vdW  Elec       q    Type
REMARK                         _______ _______ _______ _____ _____    ______ ____
ROOT
ATOM      1  C   UNL     1      -3.588   5.077  -8.706  0.00  0.00    -0.023 A 
ATOM      2  C   UNL     1      -4.829   4.640  -8.445  0.00  0.00    -0.007 A 
ATOM      3  S   UNL     1      -4.656   3.811  -6.877  0.00  0.00    -0.073 S 
ATOM      4  C   UNL     1      -2.921   4.076  -6.615  0.00  0.00    +0.117 A 
ATOM      5  C   UNL     1      -2.525   4.801  -7.755  0.00  0.00    +0.075 A 
ATOM      6  C   UNL     1      -1.141   5.161  -7.815  0.00  0.00    +0.261 A 
ATOM      7  O   UNL     1      -0.707   5.790  -8.764  0.00  0.00    -0.267 OA
ATOM      8  N   UNL     1      -0.327   4.799  -6.807  0.00  0.00    -0.301 N 
ATOM      9  H   UNL     1       0.738   5.076  -6.834  0.00  0.00    +0.171 HD
ATOM     10  C   UNL     1      -0.794   4.090  -5.738  0.00  0.00    +0.170 A 
ATOM     11  N   UNL     1      -2.063   3.746  -5.657  0.00  0.00    -0.216 NA
ATOM     12  C   UNL     1      -6.073   4.809  -9.280  0.00  0.00    +0.052 C 
ENDROOT
BRANCH   1  13
ATOM     13  C   UNL     1      -3.301   5.846  -9.970  0.00  0.00    +0.040 C 
BRANCH  13  14
ATOM     14  C   UNL     1      -3.494   7.341  -9.713  0.00  0.00    -0.010 C 
ATOM     15  C   UNL     1      -4.966   7.618  -9.397  0.00  0.00    +0.008 C 
BRANCH  14  17
ATOM     16  C   UNL     1      -3.158   9.629 -10.659  0.00  0.00    +0.004 C 
ATOM     17  C   UNL     1      -3.083   8.130 -10.957  0.00  0.00    +0.000 C 
ENDBRANCH  14  17
ENDBRANCH  13  14
ENDBRANCH   1  13
BRANCH  10  18
ATOM     18  S   UNL     1       0.314   3.634  -4.446  0.00  0.00    -0.078 S 
BRANCH  18  19
ATOM     19  C   UNL     1      -0.827   2.757  -3.349  0.00  0.00    +0.173 C 
BRANCH  19  20
ATOM     20  C   UNL     1      -0.078   2.261  -2.138  0.00  0.00    +0.226 C 
ATOM     21  O   UNL     1       1.110   2.480  -2.029  0.00  0.00    -0.275 OA
ATOM     22  N   UNL     1      -0.729   1.575  -1.178  0.00  0.00    -0.300 N 
ATOM     23  C   UNL     1      -2.168   1.303  -1.297  0.00  0.00    +0.108 C 
ATOM     24  C   UNL     1      -2.869   1.797  -0.028  0.00  0.00    +0.020 C 
ATOM     25  C   UNL     1      -2.208   1.161   1.197  0.00  0.00    +0.016 C 
ATOM     26  C   UNL     1      -0.736   1.583   1.264  0.00  0.00    +0.092 C 
ATOM     27  C   UNL     1      -0.013   1.086   0.008  0.00  0.00    +0.120 C 
BRANCH  26  28
ATOM     28  C   UNL     1      -0.091   0.982   2.486  0.00  0.00    +0.215 C 
ATOM     29  O   UNL     1      -0.743   0.287   3.236  0.00  0.00    -0.276 OA
ATOM     30  N   UNL     1       1.211   1.216   2.746  0.00  0.00    -0.329 N 
ATOM     31  H   UNL     1       1.682   0.778   3.638  0.00  0.00    +0.145 HD
ATOM     32  H   UNL     1       1.802   1.847   2.065  0.00  0.00    +0.145 HD
ENDBRANCH  26  28
ENDBRANCH  19  20
ENDBRANCH  18  19
ENDBRANCH  10  18
TORSDOF 7
