REMARK  Name = ZINC57631332
REMARK  4 active torsions:
REMARK  status: ('A' for Active; 'I' for Inactive)
REMARK    1  A    between atoms: C_6  and  N_7
REMARK    2  A    between atoms: C_8  and  C_10
REMARK    3  A    between atoms: C_10  and  C_12
REMARK    4  A    between atoms: C_10  and  O_22
REMARK                            x       y       z     vdW  Elec       q    Type
REMARK                         _______ _______ _______ _____ _____    ______ ____
ROOT
ATOM      1  C   UNL     1      -2.480  -2.828  -0.204  0.00  0.00    +0.230 C 
ENDROOT
BRANCH   1   2
ATOM      2  C   UNL     1      -3.176  -2.462  -1.489  0.00  0.00    -0.007 A 
ATOM      3  C   UNL     1      -2.852  -3.121  -2.661  0.00  0.00    +0.010 A 
ATOM      4  C   UNL     1      -3.487  -2.787  -3.842  0.00  0.00    +0.050 A 
ATOM      5  C   UNL     1      -4.451  -1.790  -3.855  0.00  0.00    +0.162 A 
ATOM      6  C   UNL     1      -4.778  -1.130  -2.677  0.00  0.00    +0.162 A 
ATOM      7  C   UNL     1      -4.140  -1.472  -1.494  0.00  0.00    +0.056 A 
ATOM      8  O   UNL     1      -5.727  -0.154  -2.666  0.00  0.00    -0.485 OA
ATOM      9  C   UNL     1      -6.081   0.414  -3.932  0.00  0.00    +0.270 C 
ATOM     10  C   UNL     1      -6.288  -0.732  -4.932  0.00  0.00    +0.270 C 
ATOM     11  O   UNL     1      -5.065  -1.470  -5.027  0.00  0.00    -0.485 OA
ENDBRANCH   1   2
BRANCH   1  13
ATOM     12  N   UNL     1      -1.200  -0.722   0.010  0.00  0.00    -0.283 N 
ATOM     13  C   UNL     1      -1.184  -2.065  -0.099  0.00  0.00    +0.250 C 
ATOM     14  O   UNL     1      -0.127  -2.660  -0.113  0.00  0.00    -0.272 OA
ATOM     15  H   UNL     1      -2.045  -0.252   0.098  0.00  0.00    +0.155 HD
BRANCH  12  21
ATOM     16  C   UNL     1       1.071  -0.454  -0.766  0.00  0.00    +0.026 A 
ATOM     17  C   UNL     1       2.256   0.256  -0.779  0.00  0.00    +0.040 A 
ATOM     18  C   UNL     1       2.378   1.416  -0.032  0.00  0.00    +0.124 A 
ATOM     19  C   UNL     1       1.312   1.866   0.730  0.00  0.00    +0.040 A 
ATOM     20  C   UNL     1       0.126   1.159   0.745  0.00  0.00    +0.026 A 
ATOM     21  C   UNL     1       0.002  -0.004  -0.004  0.00  0.00    +0.034 A 
ATOM     22  F   UNL     1       3.538   2.108  -0.045  0.00  0.00    -0.205 F 
ENDBRANCH  12  21
ENDBRANCH   1  13
BRANCH   1  23
ATOM     23  O   UNL     1      -2.208  -4.231  -0.192  0.00  0.00    -0.378 OA
ATOM     24  H   UNL     1      -1.643  -4.528  -0.917  0.00  0.00    +0.211 HD
ENDBRANCH   1  23
TORSDOF 4
