REMARK  Name = ZINC55331360
REMARK  5 active torsions:
REMARK  status: ('A' for Active; 'I' for Inactive)
REMARK    1  A    between atoms: C_1  and  C_2
REMARK    2  A    between atoms: C_5  and  C_9
REMARK    3  A    between atoms: C_6  and  C_8
REMARK    4  A    between atoms: C_9  and  C_11
REMARK    5  A    between atoms: C_9  and  O_24
REMARK                            x       y       z     vdW  Elec       q    Type
REMARK                         _______ _______ _______ _____ _____    ______ ____
ROOT
ATOM      1  C   UNL     1      -1.099  -4.806  -0.300  0.00  0.00    +0.001 A 
ATOM      2  C   UNL     1      -1.745  -5.161  -1.468  0.00  0.00    +0.035 A 
ATOM      3  C   UNL     1      -3.006  -5.735  -1.412  0.00  0.00    +0.067 A 
ATOM      4  C   UNL     1      -3.617  -5.952  -0.175  0.00  0.00    +0.068 A 
ATOM      5  C   UNL     1      -2.962  -5.593   0.992  0.00  0.00    +0.043 A 
ATOM      6  C   UNL     1      -1.702  -5.026   0.927  0.00  0.00    +0.026 A 
ATOM      7 BR   UNL     1      -0.804  -4.543   2.519  0.00  0.00    -0.050 Br
ATOM      8  N   UNL     1      -4.856  -6.533  -0.436  0.00  0.00    -0.306 N 
ATOM      9  H   UNL     1      -5.510  -6.798   0.230  0.00  0.00    +0.170 HD
ATOM     10  C   UNL     1      -4.992  -6.663  -1.769  0.00  0.00    +0.325 A 
ATOM     11  O   UNL     1      -5.963  -7.135  -2.331  0.00  0.00    -0.247 OA
ATOM     12  N   UNL     1      -3.893  -6.191  -2.385  0.00  0.00    -0.306 N 
ATOM     13  H   UNL     1      -3.743  -6.171  -3.344  0.00  0.00    +0.170 HD
ENDROOT
BRANCH   1  14
ATOM     14  C   UNL     1       0.271  -4.181  -0.361  0.00  0.00    +0.177 C 
BRANCH  14  19
ATOM     15  C   UNL     1      -0.086   1.537  -0.167  0.00  0.00    +0.065 C 
ATOM     16  C   UNL     1      -0.016   0.033  -0.228  0.00  0.00    +0.039 A 
ATOM     17  C   UNL     1      -1.105  -0.683  -0.688  0.00  0.00    +0.023 A 
ATOM     18  C   UNL     1      -1.031  -2.067  -0.740  0.00  0.00    +0.010 A 
ATOM     19  C   UNL     1       0.141  -2.680  -0.324  0.00  0.00    +0.006 A 
ATOM     20  C   UNL     1       1.189  -1.898   0.124  0.00  0.00    +0.044 A 
ATOM     21  N   UNL     1       1.085  -0.584   0.154  0.00  0.00    -0.257 NA
ATOM     22  C   UNL     1       2.467  -2.555   0.578  0.00  0.00    +0.066 C 
ENDBRANCH  14  19
BRANCH  14  23
ATOM     23  O   UNL     1       0.920  -4.574  -1.572  0.00  0.00    -0.382 OA
ATOM     24  H   UNL     1       0.450  -4.309  -2.374  0.00  0.00    +0.211 HD
ENDBRANCH  14  23
ENDBRANCH   1  14
TORSDOF 3
