REMARK  Name = ZINC36748503
REMARK  9 active torsions:
REMARK  status: ('A' for Active; 'I' for Inactive)
REMARK    1  A    between atoms: C_1  and  C_2
REMARK    2  A    between atoms: C_7  and  C_33
REMARK    3  A    between atoms: N_12  and  C_16
REMARK    4  A    between atoms: C_16  and  N_17
REMARK    5  A    between atoms: C_20  and  O_31
REMARK    6  A    between atoms: C_23  and  O_29
REMARK    7  A    between atoms: C_25  and  O_28
REMARK    8  A    between atoms: O_29  and  C_30
REMARK    9  A    between atoms: O_31  and  C_32
REMARK                            x       y       z     vdW  Elec       q    Type
REMARK                         _______ _______ _______ _____ _____    ______ ____
ROOT
ATOM      1  C   UNL     1       3.332   1.546   2.915  0.00  0.00    +0.205 C 
ENDROOT
BRANCH   1  11
ATOM      2  C   UNL     1      -0.019   1.526   0.010  0.00  0.00    +0.010 C 
ATOM      3  C   UNL     1       0.002  -0.004   0.002  0.00  0.00    +0.019 C 
ATOM      4  C   UNL     1       0.718  -0.497  -1.258  0.00  0.00    +0.006 C 
ATOM      5  C   UNL     1       0.756  -2.027  -1.256  0.00  0.00    +0.001 C 
ATOM      6  C   UNL     1       1.519  -2.517  -0.023  0.00  0.00    +0.006 C 
ATOM      7  C   UNL     1       0.807  -2.032   1.242  0.00  0.00    +0.019 C 
ATOM      8  C   UNL     1       0.739  -0.509   1.238  0.00  0.00    +0.118 C 
ATOM      9  C   UNL     1       2.128   0.083   1.303  0.00  0.00    +0.248 C 
ATOM     10  O   UNL     1       3.022  -0.055   0.496  0.00  0.00    -0.273 OA
ATOM     11  N   UNL     1       2.163   0.796   2.447  0.00  0.00    -0.210 N 
ATOM     12  C   UNL     1       0.998   0.734   3.103  0.00  0.00    +0.310 C 
ATOM     13  O   UNL     1       0.786   1.296   4.159  0.00  0.00    -0.252 OA
ATOM     14  N   UNL     1       0.086  -0.021   2.460  0.00  0.00    -0.284 N 
ATOM     15  C   UNL     1       1.580  -2.503   2.475  0.00  0.00    +0.010 C 
ATOM     16  H   UNL     1      -0.822  -0.205   2.747  0.00  0.00    +0.151 HD
ENDBRANCH   1  11
BRANCH   1  17
ATOM     17  N   UNL     1       3.279   2.915   2.387  0.00  0.00    -0.279 NA
ATOM     18  C   UNL     1       3.789   2.969   1.013  0.00  0.00    +0.125 C 
ATOM     19  C   UNL     1       3.821   4.391   0.518  0.00  0.00    +0.017 A 
ATOM     20  C   UNL     1       3.914   4.613  -0.853  0.00  0.00    +0.125 A 
ATOM     21  C   UNL     1       3.950   5.904  -1.353  0.00  0.00    +0.049 A 
ATOM     22  C   UNL     1       3.895   6.979  -0.486  0.00  0.00    +0.049 A 
ATOM     23  C   UNL     1       3.801   6.760   0.878  0.00  0.00    +0.126 A 
ATOM     24  C   UNL     1       3.762   5.463   1.381  0.00  0.00    +0.032 A 
ATOM     25  C   UNL     1       3.649   5.273   2.872  0.00  0.00    +0.162 C 
ATOM     26  C   UNL     1       4.033   3.841   3.247  0.00  0.00    +0.122 C 
BRANCH  25  27
ATOM     27  O   UNL     1       4.526   6.186   3.534  0.00  0.00    -0.386 OA
ATOM     28  H   UNL     1       4.506   6.121   4.499  0.00  0.00    +0.210 HD
ENDBRANCH  25  27
BRANCH  23  29
ATOM     29  O   UNL     1       3.748   7.818   1.731  0.00  0.00    -0.495 OA
ATOM     30  C   UNL     1       3.792   9.122   1.150  0.00  0.00    +0.277 C 
ENDBRANCH  23  29
BRANCH  20  31
ATOM     31  O   UNL     1       3.969   3.556  -1.707  0.00  0.00    -0.495 OA
ATOM     32  C   UNL     1       4.063   3.853  -3.102  0.00  0.00    +0.277 C 
ENDBRANCH  20  31
ENDBRANCH   1  17
TORSDOF 5
