REMARK  Name = ZINC12243292
REMARK  8 active torsions:
REMARK  status: ('A' for Active; 'I' for Inactive)
REMARK    1  A    between atoms: C_4  and  S_7
REMARK    2  A    between atoms: S_7  and  N_10
REMARK    3  A    between atoms: N_10  and  C_11
REMARK    4  A    between atoms: C_14  and  N_17
REMARK    5  A    between atoms: C_20  and  N_65
REMARK    6  A    between atoms: C_23  and  C_24
REMARK    7  A    between atoms: C_23  and  N_65
REMARK    8  A    between atoms: C_24  and  C_25
REMARK                            x       y       z     vdW  Elec       q    Type
REMARK                         _______ _______ _______ _____ _____    ______ ____
ROOT
ATOM      1  N   UNL     1       2.112  -4.366  -2.091  0.00  0.00    -0.330 N 
ATOM      2  C   UNL     1       0.904  -3.967  -2.824  0.00  0.00    +0.103 C 
ATOM      3  C   UNL     1       0.793  -2.441  -2.834  0.00  0.00    +0.003 C 
ATOM      4  C   UNL     1       0.729  -1.929  -1.392  0.00  0.00    -0.069 C 
ATOM      5  C   UNL     1       1.974  -2.399  -0.635  0.00  0.00    +0.003 C 
ATOM      6  C   UNL     1       2.052  -3.927  -0.691  0.00  0.00    +0.103 C 
ENDROOT
BRANCH   1  10
ATOM      7  C   UNL     1       2.719  -8.483  -2.340  0.00  0.00    +0.048 A 
ATOM      8  C   UNL     1       3.610  -7.692  -1.627  0.00  0.00    +0.026 A 
ATOM      9  C   UNL     1       3.409  -6.329  -1.544  0.00  0.00    +0.025 A 
ATOM     10  C   UNL     1       2.316  -5.748  -2.174  0.00  0.00    +0.030 A 
ATOM     11  C   UNL     1       1.422  -6.540  -2.883  0.00  0.00    +0.025 A 
ATOM     12  C   UNL     1       1.626  -7.904  -2.969  0.00  0.00    +0.026 A 
BRANCH   7  13
ATOM     13  N   UNL     1       2.923  -9.866  -2.423  0.00  0.00    -0.216 N 
ATOM     14  H   UNL     1       3.804 -10.215  -2.629  0.00  0.00    +0.174 HD
BRANCH  13  15
ATOM     15  S   UNL     1       1.659 -10.906  -2.170  0.00  0.00    +0.072 S 
ATOM     16  O   UNL     1       0.607 -10.483  -3.026  0.00  0.00    -0.150 OA
ATOM     17  O   UNL     1       2.199 -12.220  -2.218  0.00  0.00    -0.150 OA
BRANCH  15  21
ATOM     18  C   UNL     1       0.217 -10.254   2.071  0.00  0.00    +0.000 A 
ATOM     19  C   UNL     1      -0.400  -9.597   1.023  0.00  0.00    +0.002 A 
ATOM     20  C   UNL     1       0.041  -9.796  -0.272  0.00  0.00    +0.029 A 
ATOM     21  C   UNL     1       1.098 -10.652  -0.519  0.00  0.00    +0.108 A 
ATOM     22  C   UNL     1       1.712 -11.313   0.529  0.00  0.00    +0.029 A 
ATOM     23  C   UNL     1       1.275 -11.110   1.825  0.00  0.00    +0.002 A 
ENDBRANCH  15  21
ENDBRANCH  13  15
ENDBRANCH   7  13
ENDBRANCH   1  10
BRANCH   4  24
ATOM     24  N   UNL     1       0.684  -0.455  -1.402  0.00  0.00    +0.381 N 
ATOM     25  H   UNL     1       0.145  -0.137  -2.216  0.00  0.00    -0.086 HD
ATOM     26  H   UNL     1       1.641  -0.087  -1.461  0.00  0.00    -0.086 HD
BRANCH  24  27
ATOM     27  C   UNL     1       0.046   0.046  -0.170  0.00  0.00    -0.079 C 
BRANCH  27  28
ATOM     28  C   UNL     1       0.014   1.575  -0.208  0.00  0.00    +0.029 C 
BRANCH  28  29
ATOM     29  C   UNL     1      -0.646   2.104   1.067  0.00  0.00    +0.209 C 
ATOM     30  C   UNL     1      -0.596   3.637   1.079  0.00  0.00    +0.273 C 
ATOM     31  O   UNL     1      -1.233   4.098   2.276  0.00  0.00    -0.485 OA
ATOM     32  C   UNL     1      -2.427   3.526   2.591  0.00  0.00    +0.162 A 
ATOM     33  C   UNL     1      -3.260   4.152   3.507  0.00  0.00    +0.049 A 
ATOM     34  C   UNL     1      -4.474   3.583   3.841  0.00  0.00    +0.004 A 
ATOM     35  C   UNL     1      -4.863   2.389   3.262  0.00  0.00    +0.004 A 
ATOM     36  C   UNL     1      -4.039   1.761   2.347  0.00  0.00    +0.049 A 
ATOM     37  C   UNL     1      -2.819   2.328   2.007  0.00  0.00    +0.162 A 
ATOM     38  O   UNL     1      -2.019   1.700   1.103  0.00  0.00    -0.482 OA
ENDBRANCH  28  29
ENDBRANCH  27  28
ENDBRANCH  24  27
ENDBRANCH   4  24
TORSDOF 8
