REMARK  Name = ZINC08771413
REMARK  7 active torsions:
REMARK  status: ('A' for Active; 'I' for Inactive)
REMARK    1  A    between atoms: C_1  and  C_2
REMARK    2  A    between atoms: C_5  and  N_8
REMARK    3  A    between atoms: C_14  and  C_29
REMARK    4  A    between atoms: C_15  and  C_17
REMARK    5  A    between atoms: N_19  and  C_20
REMARK    6  A    between atoms: C_20  and  C_22
REMARK    7  A    between atoms: C_20  and  C_23
REMARK                            x       y       z     vdW  Elec       q    Type
REMARK                         _______ _______ _______ _____ _____    ______ ____
ROOT
ATOM      1  N   UNL     1       1.237  -2.080  -0.020  0.00  0.00    -0.269 N 
ATOM      2  C   UNL     1       2.410  -2.734  -0.137  0.00  0.00    +0.310 C 
ATOM      3  O   UNL     1       3.455  -2.113  -0.144  0.00  0.00    -0.252 OA
ATOM      4  N   UNL     1       2.424  -4.077  -0.245  0.00  0.00    -0.248 N 
ATOM      5  C   UNL     1       3.627  -4.750  -0.365  0.00  0.00    +0.166 A 
ATOM      6  N   UNL     1       4.854  -4.252  -0.398  0.00  0.00    -0.229 NA
ATOM      7  C   UNL     1       5.903  -5.024  -0.512  0.00  0.00    +0.060 A 
ATOM      8  C   UNL     1       5.691  -6.392  -0.610  0.00  0.00    +0.098 A 
ATOM      9  S   UNL     1       3.908  -6.456  -0.517  0.00  0.00    -0.047 S 
ATOM     10  C   UNL     1       7.294  -4.447  -0.543  0.00  0.00    +0.067 C 
ATOM     11  H   UNL     1       0.409  -2.578   0.063  0.00  0.00    +0.156 HD
ATOM     12  H   UNL     1       1.590  -4.573  -0.240  0.00  0.00    +0.158 HD
ENDROOT
BRANCH   1  17
ATOM     13  C   UNL     1       1.143   3.593  -0.019  0.00  0.00    +0.044 C 
ATOM     14  C   UNL     1       1.168   2.086  -0.019  0.00  0.00    -0.050 A 
ATOM     15  C   UNL     1       2.111   1.412  -0.773  0.00  0.00    +0.005 A 
ATOM     16  C   UNL     1       2.137   0.031  -0.776  0.00  0.00    +0.023 A 
ATOM     17  C   UNL     1       1.214  -0.680  -0.020  0.00  0.00    +0.035 A 
ATOM     18  C   UNL     1       0.268  -0.001   0.736  0.00  0.00    +0.023 A 
ATOM     19  C   UNL     1       0.248   1.381   0.734  0.00  0.00    +0.005 A 
ENDBRANCH   1  17
BRANCH   8  20
ATOM     20  C   UNL     1       6.660  -7.480  -0.751  0.00  0.00    +0.253 C 
ATOM     21  O   UNL     1       7.851  -7.232  -0.797  0.00  0.00    -0.270 OA
ATOM     22  N   UNL     1       6.233  -8.756  -0.830  0.00  0.00    -0.304 N 
ATOM     23  H   UNL     1       5.284  -8.953  -0.793  0.00  0.00    +0.150 HD
BRANCH  22  24
ATOM     24  C   UNL     1       7.203  -9.845  -0.971  0.00  0.00    +0.100 C 
ATOM     25  C   UNL     1       7.555 -10.026  -2.449  0.00  0.00    +0.033 C 
BRANCH  24  26
ATOM     26  C   UNL     1       6.606 -11.121  -0.437  0.00  0.00    -0.027 A 
ATOM     27  C   UNL     1       5.277 -11.416  -0.676  0.00  0.00    +0.005 A 
ATOM     28  C   UNL     1       4.730 -12.589  -0.190  0.00  0.00    +0.000 A 
ATOM     29  C   UNL     1       5.511 -13.463   0.544  0.00  0.00    +0.000 A 
ATOM     30  C   UNL     1       6.838 -13.166   0.788  0.00  0.00    +0.000 A 
ATOM     31  C   UNL     1       7.386 -11.995   0.298  0.00  0.00    +0.005 A 
ENDBRANCH  24  26
ENDBRANCH  22  24
ENDBRANCH   8  20
TORSDOF 4
