REMARK  Name = ZINC00052590
REMARK  3 active torsions:
REMARK  status: ('A' for Active; 'I' for Inactive)
REMARK    1  A    between atoms: C_6  and  C_7
REMARK    2  A    between atoms: C_7  and  C_9
REMARK    3  A    between atoms: C_10  and  N_19
REMARK                            x       y       z     vdW  Elec       q    Type
REMARK                         _______ _______ _______ _____ _____    ______ ____
ROOT
ATOM      1  C   UNL     1      -2.483   1.086   0.045  0.00  0.00    +0.197 A 
ATOM      2  C   UNL     1      -1.215   1.638   0.052  0.00  0.00    +0.082 A 
ATOM      3  C   UNL     1      -1.415   3.092   0.092  0.00  0.00    +0.043 A 
ATOM      4  C   UNL     1      -0.551   4.188   0.120  0.00  0.00    +0.033 A 
ATOM      5  C   UNL     1      -1.070   5.464   0.155  0.00  0.00    +0.042 A 
ATOM      6  C   UNL     1      -2.445   5.659   0.163  0.00  0.00    +0.023 A 
ATOM      7  C   UNL     1      -3.308   4.586   0.129  0.00  0.00    +0.048 A 
ATOM      8  C   UNL     1      -2.807   3.289   0.097  0.00  0.00    +0.138 A 
ATOM      9  O   UNL     1      -3.401   2.079   0.071  0.00  0.00    -0.450 OA
ATOM     10 CL   UNL     1      -0.001   6.831   0.190  0.00  0.00    -0.084 Cl
ENDROOT
BRANCH   2  11
ATOM     11  N   UNL     1      -0.009   0.961   0.032  0.00  0.00    -0.354 N 
ATOM     12  H   UNL     1       0.003  -0.009   0.010  0.00  0.00    +0.142 HD
ATOM     13  H   UNL     1       0.825   1.456   0.036  0.00  0.00    +0.142 HD
ENDBRANCH   2  11
BRANCH   1  14
ATOM     14  C   UNL     1      -2.774  -0.297   0.014  0.00  0.00    +0.230 C 
ATOM     15  O   UNL     1      -1.871  -1.107  -0.108  0.00  0.00    -0.283 OA
BRANCH  14  21
ATOM     16  C   UNL     1      -5.219   0.164   0.147  0.00  0.00    +0.014 A 
ATOM     17  C   UNL     1      -6.522  -0.275   0.249  0.00  0.00    +0.039 A 
ATOM     18  C   UNL     1      -6.794  -1.631   0.348  0.00  0.00    +0.123 A 
ATOM     19  C   UNL     1      -5.758  -2.553   0.337  0.00  0.00    +0.039 A 
ATOM     20  C   UNL     1      -4.452  -2.126   0.229  0.00  0.00    +0.014 A 
ATOM     21  C   UNL     1      -4.173  -0.761   0.130  0.00  0.00    +0.026 A 
ATOM     22  F   UNL     1      -8.072  -2.055   0.454  0.00  0.00    -0.205 F 
ENDBRANCH  14  21
ENDBRANCH   1  14
TORSDOF 3
