REMARK  Name = ZINC45890417
REMARK  8 active torsions:
REMARK  status: ('A' for Active; 'I' for Inactive)
REMARK    1  A    between atoms: C_1  and  C_2
REMARK    2  A    between atoms: C_6  and  C_23
REMARK    3  A    between atoms: C_7  and  N_8
REMARK    4  A    between atoms: C_9  and  C_11
REMARK    5  A    between atoms: C_11  and  C_13
REMARK    6  A    between atoms: C_11  and  O_14
REMARK    7  A    between atoms: O_14  and  C_15
REMARK    8  A    between atoms: N_27  and  N_28
REMARK                            x       y       z     vdW  Elec       q    Type
REMARK                         _______ _______ _______ _____ _____    ______ ____
ROOT
ATOM      1  C   UNL     1       1.265   1.075  -0.264  0.00  0.00    +0.046 C 
ATOM      2  C   UNL     1       1.102  -0.412  -0.085  0.00  0.00    -0.027 A 
ATOM      3  C   UNL     1       1.442  -1.252  -1.112  0.00  0.00    +0.034 A 
ATOM      4  C   UNL     1       1.302  -2.652  -0.980  0.00  0.00    +0.081 A 
ATOM      5  C   UNL     1       0.800  -3.118   0.257  0.00  0.00    +0.045 A 
ATOM      6  C   UNL     1       0.460  -2.275   1.284  0.00  0.00    -0.013 A 
ATOM      7  C   UNL     1       0.615  -0.903   1.124  0.00  0.00    +0.041 A 
ATOM      8  C   UNL     1      -0.072  -2.832   2.579  0.00  0.00    +0.047 C 
ATOM      9  S   UNL     1       0.780  -4.879   0.019  0.00  0.00    -0.051 S 
ATOM     10  C   UNL     1       1.418  -4.888  -1.650  0.00  0.00    +0.173 A 
ATOM     11  N   UNL     1       1.591  -3.609  -1.891  0.00  0.00    -0.224 NA
ATOM     12  N   UNL     1       1.667  -5.966  -2.475  0.00  0.00    -0.262 N 
ATOM     13  H   UNL     1       1.490  -6.867  -2.163  0.00  0.00    +0.168 HD
ENDROOT
BRANCH   7  14
ATOM     14  N   UNL     1       0.279  -0.025   2.163  0.00  0.00    -0.282 N 
ATOM     15  C   UNL     1       0.813  -0.197   3.389  0.00  0.00    +0.258 C 
ATOM     16  O   UNL     1       1.504  -1.166   3.619  0.00  0.00    -0.271 OA
ATOM     17  H   UNL     1      -0.338   0.705   2.000  0.00  0.00    +0.155 HD
BRANCH  15  18
ATOM     18  C   UNL     1       0.552   0.817   4.473  0.00  0.00    +0.256 C 
ATOM     19  C   UNL     1       1.185   2.155   4.083  0.00  0.00    +0.062 C 
BRANCH  18  20
ATOM     20  O   UNL     1       1.123   0.360   5.700  0.00  0.00    -0.478 OA
BRANCH  20  21
ATOM     21  C   UNL     1       0.566   0.823   6.850  0.00  0.00    +0.140 A 
ATOM     22  C   UNL     1      -0.438   1.779   6.800  0.00  0.00    +0.048 A 
ATOM     23  C   UNL     1      -1.003   2.249   7.970  0.00  0.00    +0.023 A 
ATOM     24  C   UNL     1      -0.569   1.766   9.192  0.00  0.00    +0.043 A 
ATOM     25  C   UNL     1       0.431   0.812   9.245  0.00  0.00    +0.043 A 
ATOM     26  C   UNL     1       0.996   0.335   8.077  0.00  0.00    +0.084 A 
ATOM     27 CL   UNL     1       2.246  -0.867   8.143  0.00  0.00    -0.080 Cl
ATOM     28 CL   UNL     1      -1.281   2.359  10.660  0.00  0.00    -0.083 Cl
ENDBRANCH  20  21
ENDBRANCH  18  20
ENDBRANCH  15  18
ENDBRANCH   7  14
BRANCH  12  29
ATOM     29  N   UNL     1       2.161  -5.764  -3.733  0.00  0.00    -0.255 NA
ATOM     30  H   UNL     1       3.020  -5.237  -3.703  0.00  0.00    +0.140 HD
ATOM     31  H   UNL     1       2.291  -6.640  -4.216  0.00  0.00    +0.140 HD
ENDBRANCH  12  29
TORSDOF 5
