REMARK  Name = ZINC09450927
REMARK  10 active torsions:
REMARK  status: ('A' for Active; 'I' for Inactive)
REMARK    1  A    between atoms: C_1  and  C_2
REMARK    2  A    between atoms: C_2  and  C_4
REMARK    3  A    between atoms: C_2  and  N_57
REMARK    4  A    between atoms: N_6  and  C_7
REMARK    5  A    between atoms: C_12  and  O_13
REMARK    6  A    between atoms: O_13  and  C_14
REMARK    7  A    between atoms: C_16  and  C_17
REMARK    8  A    between atoms: C_16  and  N_57
REMARK    9  A    between atoms: C_17  and  C_19
REMARK   10  A    between atoms: C_17  and  C_25
REMARK                            x       y       z     vdW  Elec       q    Type
REMARK                         _______ _______ _______ _____ _____    ______ ____
ROOT
ATOM      1  C   UNL     1      -5.969   1.760  -0.955  0.00  0.00    -0.069 C 
ENDROOT
BRANCH   1   2
ATOM      2  N   UNL     1      -4.807   1.154  -0.278  0.00  0.00    +0.387 N 
ATOM      3  H   UNL     1      -5.081   0.861   0.667  0.00  0.00    -0.085 HD
ATOM      4  H   UNL     1      -4.492   0.336  -0.812  0.00  0.00    -0.085 HD
BRANCH   2   6
ATOM      5  C   UNL     1      -3.894   2.999   1.059  0.00  0.00    -0.004 C 
ATOM      6  C   UNL     1      -3.703   2.128  -0.184  0.00  0.00    +0.013 C 
BRANCH   6   7
ATOM      7  C   UNL     1      -2.396   1.385  -0.081  0.00  0.00    +0.203 C 
ATOM      8  O   UNL     1      -2.385   0.172  -0.088  0.00  0.00    -0.277 OA
ATOM      9  N   UNL     1      -1.239   2.069   0.019  0.00  0.00    -0.284 N 
ATOM     10  H   UNL     1      -1.252   3.035   0.105  0.00  0.00    +0.155 HD
BRANCH   9  11
ATOM     11  C   UNL     1      -0.016   1.384  -0.002  0.00  0.00    +0.077 A 
ATOM     12  C   UNL     1       0.075   0.144  -0.616  0.00  0.00    +0.047 A 
ATOM     13  C   UNL     1       1.284  -0.528  -0.640  0.00  0.00    +0.043 A 
ATOM     14  C   UNL     1       2.403   0.035  -0.052  0.00  0.00    +0.024 A 
ATOM     15  C   UNL     1       2.318   1.271   0.562  0.00  0.00    +0.049 A 
ATOM     16  C   UNL     1       1.111   1.950   0.590  0.00  0.00    +0.141 A 
ATOM     17 CL   UNL     1       1.398  -2.080  -1.409  0.00  0.00    -0.083 Cl
BRANCH  16  18
ATOM     18  O   UNL     1       1.026   3.165   1.193  0.00  0.00    -0.493 OA
ATOM     19  C   UNL     1       2.223   3.684   1.778  0.00  0.00    +0.277 C 
ENDBRANCH  16  18
ENDBRANCH   9  11
ENDBRANCH   6   7
ENDBRANCH   2   6
ENDBRANCH   1   2
BRANCH   1  20
ATOM     20  C   UNL     1      -7.096   0.729  -1.038  0.00  0.00    +0.034 C 
BRANCH  20  21
ATOM     21  C   UNL     1      -8.240   1.298  -1.836  0.00  0.00    -0.017 A 
ATOM     22  C   UNL     1      -8.948   2.400  -1.542  0.00  0.00    +0.087 A 
ATOM     23  N   UNL     1      -9.905   2.608  -2.497  0.00  0.00    -0.360 N 
ATOM     24  H   UNL     1     -10.537   3.344  -2.502  0.00  0.00    +0.165 HD
ATOM     25  C   UNL     1      -9.842   1.614  -3.448  0.00  0.00    +0.047 A 
ATOM     26  C   UNL     1      -8.796   0.750  -3.075  0.00  0.00    +0.003 A 
ATOM     27  C   UNL     1      -8.498  -0.363  -3.864  0.00  0.00    +0.010 A 
ATOM     28  C   UNL     1      -9.224  -0.607  -4.995  0.00  0.00    +0.001 A 
ATOM     29  C   UNL     1     -10.257   0.242  -5.367  0.00  0.00    +0.002 A 
ATOM     30  C   UNL     1     -10.568   1.346  -4.603  0.00  0.00    +0.026 A 
ENDBRANCH  20  21
BRANCH  20  31
ATOM     31  C   UNL     1      -7.571   0.392   0.352  0.00  0.00    -0.042 A 
ATOM     32  C   UNL     1      -8.079   1.384   1.169  0.00  0.00    +0.004 A 
ATOM     33  C   UNL     1      -8.519   1.075   2.442  0.00  0.00    +0.000 A 
ATOM     34  C   UNL     1      -8.442  -0.227   2.902  0.00  0.00    +0.000 A 
ATOM     35  C   UNL     1      -7.928  -1.219   2.088  0.00  0.00    +0.000 A 
ATOM     36  C   UNL     1      -7.492  -0.909   0.813  0.00  0.00    +0.004 A 
ENDBRANCH  20  31
ENDBRANCH   1  20
TORSDOF 8
