REMARK  Name = ZINC40537255
REMARK  6 active torsions:
REMARK  status: ('A' for Active; 'I' for Inactive)
REMARK    1  A    between atoms: C_1  and  C_2
REMARK    2  A    between atoms: C_2  and  C_4
REMARK    3  A    between atoms: C_2  and  N_8
REMARK    4  A    between atoms: C_4  and  C_5
REMARK    5  A    between atoms: N_11  and  C_12
REMARK    6  A    between atoms: C_17  and  C_18
REMARK                            x       y       z     vdW  Elec       q    Type
REMARK                         _______ _______ _______ _____ _____    ______ ____
ROOT
ATOM      1  N   UNL     1       0.689  -0.461  -1.209  0.00  0.00    -0.296 N 
ATOM      2  C   UNL     1       2.031  -0.583  -1.216  0.00  0.00    +0.304 C 
ATOM      3  O   UNL     1       2.673  -0.298  -0.224  0.00  0.00    -0.253 OA
ATOM      4  N   UNL     1       2.662  -1.022  -2.324  0.00  0.00    -0.269 N 
ATOM      5  H   UNL     1       0.177  -0.688  -2.001  0.00  0.00    +0.151 HD
ATOM      6  H   UNL     1       2.147  -1.326  -3.087  0.00  0.00    +0.156 HD
ENDROOT
BRANCH   4   7
ATOM      7  C   UNL     1       4.061  -1.037  -2.373  0.00  0.00    +0.046 A 
ATOM      8  C   UNL     1       4.795  -0.174  -1.570  0.00  0.00    +0.025 A 
ATOM      9  C   UNL     1       6.174  -0.191  -1.620  0.00  0.00    +0.022 A 
ATOM     10  C   UNL     1       6.826  -1.068  -2.469  0.00  0.00    +0.042 A 
ATOM     11  C   UNL     1       6.098  -1.929  -3.270  0.00  0.00    +0.034 A 
ATOM     12  C   UNL     1       4.717  -1.920  -3.219  0.00  0.00    +0.077 A 
ATOM     13 CL   UNL     1       8.561  -1.087  -2.530  0.00  0.00    -0.084 Cl
BRANCH  12  14
ATOM     14  C   UNL     1       3.925  -2.863  -4.087  0.00  0.00    +0.419 C 
ATOM     15  F   UNL     1       4.801  -3.647  -4.846  0.00  0.00    -0.166 F 
ATOM     16  F   UNL     1       3.139  -3.692  -3.279  0.00  0.00    -0.166 F 
ATOM     17  F   UNL     1       3.098  -2.127  -4.942  0.00  0.00    -0.166 F 
ENDBRANCH  12  14
ENDBRANCH   4   7
BRANCH   1  19
ATOM     18  C   UNL     1      -0.004   1.545   0.005  0.00  0.00    +0.028 C 
ATOM     19  C   UNL     1       0.003   0.015  -0.005  0.00  0.00    +0.082 C 
BRANCH  19  20
ATOM     20  C   UNL     1      -1.437  -0.501  -0.001  0.00  0.00    +0.147 C 
BRANCH  20  21
ATOM     21  C   UNL     1      -1.431  -2.004   0.112  0.00  0.00    +0.358 C 
ATOM     22  O   UNL     1      -0.373  -2.606   0.183  0.00  0.00    -0.246 OA
ATOM     23  O   UNL     1      -2.484  -2.618   0.134  0.00  0.00    -0.246 OA
ENDBRANCH  20  21
ENDBRANCH  19  20
ENDBRANCH   1  19
TORSDOF 5
