REMARK  Name = ZINC47400949
REMARK  4 active torsions:
REMARK  status: ('A' for Active; 'I' for Inactive)
REMARK    1  A    between atoms: C_1  and  C_2
REMARK    2  A    between atoms: C_2  and  C_7
REMARK    3  A    between atoms: C_13  and  C_16
REMARK    4  A    between atoms: C_16  and  N_17
REMARK                            x       y       z     vdW  Elec       q    Type
REMARK                         _______ _______ _______ _____ _____    ______ ____
ROOT
ATOM      1  C   UNL     1      -1.261  -0.559  -0.604  0.00  0.00    +0.224 C 
ATOM      2  O   UNL     1      -1.766  -1.561  -0.143  0.00  0.00    -0.275 OA
ATOM      3  N   UNL     1      -1.837   0.065  -1.651  0.00  0.00    -0.301 N 
ATOM      4  C   UNL     1      -1.186   1.220  -2.285  0.00  0.00    +0.108 C 
ATOM      5  C   UNL     1      -2.177   2.387  -2.320  0.00  0.00    +0.019 C 
ATOM      6  C   UNL     1      -3.466   1.935  -3.011  0.00  0.00    +0.008 C 
ATOM      7  C   UNL     1      -4.098   0.789  -2.217  0.00  0.00    +0.024 C 
ATOM      8  C   UNL     1      -3.125  -0.400  -2.183  0.00  0.00    +0.112 C 
ENDROOT
BRANCH   1  10
ATOM      9  C   UNL     1       1.246  -0.084  -0.907  0.00  0.00    +0.024 C 
ATOM     10  C   UNL     1       0.010  -0.012  -0.007  0.00  0.00    +0.080 C 
ATOM     11  C   UNL     1       0.220  -0.195   1.497  0.00  0.00    +0.058 C 
ATOM     12  C   UNL     1      -0.111   1.188   0.933  0.00  0.00    +0.133 C 
ATOM     13 CL   UNL     1      -1.763   1.841   1.243  0.00  0.00    -0.100 Cl
ATOM     14 CL   UNL     1       1.214   2.411   0.897  0.00  0.00    -0.100 Cl
ENDBRANCH   1  10
BRANCH   7  15
ATOM     15  C   UNL     1      -5.403   0.361  -2.889  0.00  0.00    +0.110 C 
BRANCH  15  16
ATOM     16  N   UNL     1      -6.371   1.458  -2.820  0.00  0.00    -0.299 N 
ATOM     17  C   UNL     1      -7.600   1.308  -3.352  0.00  0.00    +0.297 C 
ATOM     18  O   UNL     1      -7.906   0.260  -3.889  0.00  0.00    -0.253 OA
ATOM     19  N   UNL     1      -8.491   2.317  -3.289  0.00  0.00    -0.313 N 
ATOM     20  H   UNL     1      -6.127   2.294  -2.392  0.00  0.00    +0.150 HD
ATOM     21  H   UNL     1      -8.246   3.153  -2.861  0.00  0.00    +0.146 HD
ATOM     22  H   UNL     1      -9.375   2.209  -3.671  0.00  0.00    +0.146 HD
ENDBRANCH  15  16
ENDBRANCH   7  15
TORSDOF 3
