REMARK  Name = ZINC08791069
REMARK  7 active torsions:
REMARK  status: ('A' for Active; 'I' for Inactive)
REMARK    1  A    between atoms: C_1  and  C_2
REMARK    2  A    between atoms: C_7  and  C_8
REMARK    3  A    between atoms: C_17  and  C_19
REMARK    4  A    between atoms: C_19  and  C_20
REMARK    5  A    between atoms: C_20  and  C_21
REMARK    6  A    between atoms: N_26  and  C_29
REMARK    7  A    between atoms: C_29  and  C_30
REMARK                            x       y       z     vdW  Elec       q    Type
REMARK                         _______ _______ _______ _____ _____    ______ ____
ROOT
ATOM      1  C   UNL     1      -0.159   3.472  -7.535  0.00  0.00    +0.044 C 
ATOM      2  C   UNL     1      -0.015   3.152  -6.069  0.00  0.00    -0.046 A 
ATOM      3  C   UNL     1       0.210   1.848  -5.668  0.00  0.00    +0.004 A 
ATOM      4  C   UNL     1       0.341   1.554  -4.322  0.00  0.00    +0.005 A 
ATOM      5  C   UNL     1       0.248   2.559  -3.386  0.00  0.00    -0.027 A 
ATOM      6  C   UNL     1       0.023   3.876  -3.777  0.00  0.00    +0.039 A 
ATOM      7  C   UNL     1      -0.109   4.162  -5.134  0.00  0.00    -0.026 A 
ATOM      8  C   UNL     1      -0.354   5.580  -5.582  0.00  0.00    +0.046 C 
ATOM      9  N   UNL     1      -0.031   4.710  -2.659  0.00  0.00    -0.286 N 
ATOM     10  C   UNL     1       0.147   4.030  -1.509  0.00  0.00    +0.211 C 
ATOM     11  O   UNL     1       0.149   4.491  -0.388  0.00  0.00    -0.277 OA
ATOM     12  C   UNL     1       0.342   2.587  -1.887  0.00  0.00    +0.050 C 
ATOM     13  C   UNL     1      -0.718   1.688  -1.239  0.00  0.00    +0.088 C 
ATOM     14  C   UNL     1      -0.013   1.086   0.008  0.00  0.00    +0.073 C 
ATOM     15  C   UNL     1       1.403   1.701  -0.002  0.00  0.00    -0.057 C 
ATOM     16  C   UNL     1      -0.790   1.654   1.175  0.00  0.00    +0.224 C 
ATOM     17  O   UNL     1      -0.558   1.434   2.344  0.00  0.00    -0.275 OA
ATOM     18  N   UNL     1      -1.782   2.437   0.691  0.00  0.00    -0.237 N 
ATOM     19  C   UNL     1      -1.825   2.526  -0.643  0.00  0.00    +0.225 C 
ATOM     20  O   UNL     1      -2.628   3.178  -1.275  0.00  0.00    -0.275 OA
ATOM     21  H   UNL     1      -0.180   5.667  -2.704  0.00  0.00    +0.155 HD
ATOM     22  N   UNL     1       1.615   2.082  -1.401  0.00  0.00    +0.394 N 
ATOM     23  H   UNL     1       2.334   2.811  -1.465  0.00  0.00    -0.083 HD
ATOM     24  H   UNL     1       1.905   1.265  -1.950  0.00  0.00    -0.083 HD
ENDROOT
BRANCH  15  25
ATOM     25  C   UNL     1       2.435   0.670   0.460  0.00  0.00    -0.006 C 
BRANCH  25  26
ATOM     26  C   UNL     1       3.809   1.334   0.561  0.00  0.00    +0.094 C 
BRANCH  26  27
ATOM     27  C   UNL     1       4.826   0.318   1.016  0.00  0.00    +0.210 C 
ATOM     28  O   UNL     1       4.484  -0.824   1.238  0.00  0.00    -0.276 OA
ATOM     29  N   UNL     1       6.114   0.679   1.178  0.00  0.00    -0.329 N 
ATOM     30  H   UNL     1       6.387   1.593   1.001  0.00  0.00    +0.145 HD
ATOM     31  H   UNL     1       6.768   0.026   1.470  0.00  0.00    +0.145 HD
ENDBRANCH  26  27
ENDBRANCH  25  26
ENDBRANCH  15  25
BRANCH  18  32
ATOM     32  C   UNL     1      -2.727   3.138   1.564  0.00  0.00    +0.151 C 
BRANCH  32  33
ATOM     33  C   UNL     1      -3.925   2.259   1.816  0.00  0.00    -0.026 A 
ATOM     34  C   UNL     1      -5.019   2.325   0.973  0.00  0.00    +0.009 A 
ATOM     35  C   UNL     1      -6.118   1.518   1.198  0.00  0.00    +0.050 A 
ATOM     36  C   UNL     1      -6.130   0.647   2.275  0.00  0.00    +0.166 A 
ATOM     37  C   UNL     1      -5.031   0.584   3.127  0.00  0.00    +0.167 A 
ATOM     38  C   UNL     1      -3.930   1.393   2.893  0.00  0.00    +0.054 A 
ATOM     39  O   UNL     1      -5.285  -0.339   4.100  0.00  0.00    -0.453 OA
ATOM     40  C   UNL     1      -6.378  -1.132   3.601  0.00  0.00    +0.466 C 
ATOM     41  O   UNL     1      -7.074  -0.237   2.714  0.00  0.00    -0.453 OA
ENDBRANCH  32  33
ENDBRANCH  18  32
TORSDOF 5
