REMARK  Name = ZINC14949356
REMARK  6 active torsions:
REMARK  status: ('A' for Active; 'I' for Inactive)
REMARK    1  A    between atoms: C_5  and  C_7
REMARK    2  A    between atoms: C_7  and  N_8
REMARK    3  A    between atoms: C_12  and  C_15
REMARK    4  A    between atoms: C_12  and  O_23
REMARK    5  A    between atoms: C_15  and  N_53
REMARK    6  A    between atoms: C_16  and  N_53
REMARK                            x       y       z     vdW  Elec       q    Type
REMARK                         _______ _______ _______ _____ _____    ______ ____
ROOT
ATOM      1  N   UNL     1       2.677   4.499  -1.335  0.00  0.00    -0.295 N 
ATOM      2  C   UNL     1       2.149   5.829  -1.612  0.00  0.00    +0.108 C 
ATOM      3  C   UNL     1       2.048   6.061  -3.120  0.00  0.00    +0.022 C 
ATOM      4  C   UNL     1       3.395   5.707  -3.762  0.00  0.00    +0.044 C 
ATOM      5  C   UNL     1       3.610   4.197  -3.633  0.00  0.00    +0.127 C 
ATOM      6  C   UNL     1       3.356   3.765  -2.217  0.00  0.00    +0.246 C 
ATOM      7  O   UNL     1       3.787   2.689  -1.859  0.00  0.00    -0.273 OA
ENDROOT
BRANCH   5   8
ATOM      8  O   UNL     1       2.712   3.513  -4.510  0.00  0.00    -0.381 OA
ATOM      9  H   UNL     1       2.791   2.549  -4.481  0.00  0.00    +0.211 HD
ENDBRANCH   5   8
BRANCH   1  10
ATOM     10  C   UNL     1       2.453   3.935  -0.001  0.00  0.00    +0.145 C 
BRANCH  10  15
ATOM     11  C   UNL     1      -0.013   1.076   0.008  0.00  0.00    +0.000 A 
ATOM     12  C   UNL     1      -1.220   1.750   0.017  0.00  0.00    +0.003 A 
ATOM     13  C   UNL     1      -1.240   3.132   0.030  0.00  0.00    +0.038 A 
ATOM     14  C   UNL     1      -0.050   3.841   0.022  0.00  0.00    +0.128 A 
ATOM     15  C   UNL     1       1.158   3.165   0.007  0.00  0.00    +0.005 A 
ATOM     16  C   UNL     1       1.175   1.783   0.000  0.00  0.00    +0.008 A 
ATOM     17  F   UNL     1      -0.068   5.192   0.030  0.00  0.00    -0.205 F 
ENDBRANCH  10  15
ENDBRANCH   1  10
BRANCH   5  18
ATOM     18  C   UNL     1       5.051   3.854  -4.015  0.00  0.00    -0.037 C 
BRANCH  18  19
ATOM     19  N   UNL     1       5.252   2.398  -3.888  0.00  0.00    +0.383 N 
ATOM     20  H   UNL     1       4.600   1.911  -4.515  0.00  0.00    -0.085 HD
ATOM     21  H   UNL     1       5.071   2.114  -2.918  0.00  0.00    -0.085 HD
BRANCH  19  22
ATOM     22  C   UNL     1       6.636   2.038  -4.250  0.00  0.00    -0.072 C 
ATOM     23  C   UNL     1       6.740   1.931  -5.786  0.00  0.00    -0.016 C 
ATOM     24  C   UNL     1       8.186   2.066  -6.178  0.00  0.00    -0.002 C 
ATOM     25  C   UNL     1       8.889   0.703  -6.321  0.00  0.00    -0.000 C 
ATOM     26  C   UNL     1       8.502  -0.288  -5.206  0.00  0.00    -0.000 C 
ATOM     27  C   UNL     1       8.438   0.365  -3.852  0.00  0.00    -0.002 C 
ATOM     28  C   UNL     1       6.981   0.792  -3.582  0.00  0.00    -0.016 C 
ENDBRANCH  19  22
ENDBRANCH  18  19
ENDBRANCH   5  18
TORSDOF 6
