REMARK  Name = ZINC40801510
REMARK  7 active torsions:
REMARK  status: ('A' for Active; 'I' for Inactive)
REMARK    1  A    between atoms: C_3  and  N_8
REMARK    2  A    between atoms: C_10  and  N_24
REMARK    3  A    between atoms: C_11  and  N_15
REMARK    4  A    between atoms: N_15  and  C_16
REMARK    5  A    between atoms: C_16  and  C_17
REMARK    6  A    between atoms: C_17  and  C_18
REMARK    7  A    between atoms: C_18  and  N_19
REMARK                            x       y       z     vdW  Elec       q    Type
REMARK                         _______ _______ _______ _____ _____    ______ ____
ROOT
ATOM      1  N   UNL     1       3.604   1.998  -0.022  0.00  0.00    -0.295 N 
ATOM      2  C   UNL     1       3.656   3.383  -0.120  0.00  0.00    +0.149 A 
ATOM      3  C   UNL     1       4.882   4.040  -0.241  0.00  0.00    +0.105 A 
ATOM      4  C   UNL     1       4.877   5.433  -0.337  0.00  0.00    +0.145 A 
ATOM      5  N   UNL     1       3.712   6.077  -0.310  0.00  0.00    -0.219 NA
ATOM      6  C   UNL     1       2.577   5.418  -0.195  0.00  0.00    +0.225 A 
ATOM      7  N   UNL     1       2.537   4.104  -0.107  0.00  0.00    -0.219 NA
ATOM      8  H   UNL     1       4.414   1.473  -0.126  0.00  0.00    +0.154 HD
ENDROOT
BRANCH   1  11
ATOM      9  C   UNL     1       0.119   1.396   0.971  0.00  0.00    +0.022 A 
ATOM     10  C   UNL     1       1.306   2.073   0.741  0.00  0.00    +0.028 A 
ATOM     11  C   UNL     1       2.385   1.359   0.227  0.00  0.00    +0.070 A 
ATOM     12  C   UNL     1       2.233   0.002  -0.036  0.00  0.00    +0.150 A 
ATOM     13  N   UNL     1       1.084  -0.603   0.198  0.00  0.00    -0.242 NA
ATOM     14  C   UNL     1       0.044   0.046   0.685  0.00  0.00    +0.112 A 
ATOM     15 CL   UNL     1       3.567  -0.905  -0.678  0.00  0.00    -0.060 Cl
ENDBRANCH   1  11
BRANCH   3  16
ATOM     16  N   UNL     1       6.087   3.320  -0.264  0.00  0.00    -0.353 N 
ATOM     17  H   UNL     1       6.075   2.353  -0.196  0.00  0.00    +0.143 HD
ATOM     18  H   UNL     1       6.931   3.790  -0.348  0.00  0.00    +0.143 HD
ENDBRANCH   3  16
BRANCH   4  19
ATOM     19  N   UNL     1       6.069   6.137  -0.458  0.00  0.00    -0.327 N 
ATOM     20  H   UNL     1       6.914   5.660  -0.476  0.00  0.00    +0.148 HD
BRANCH  19  21
ATOM     21  C   UNL     1       6.051   7.598  -0.557  0.00  0.00    +0.105 C 
BRANCH  21  22
ATOM     22  C   UNL     1       7.484   8.119  -0.680  0.00  0.00    +0.040 C 
BRANCH  22  23
ATOM     23  C   UNL     1       7.464   9.646  -0.785  0.00  0.00    +0.124 C 
BRANCH  23  24
ATOM     24  N   UNL     1       8.837  10.144  -0.902  0.00  0.00    -0.338 N 
ATOM     25  C   UNL     1       9.666  10.491   0.130  0.00  0.00    +0.104 A 
ATOM     26  C   UNL     1      10.827  10.894  -0.422  0.00  0.00    +0.101 A 
ATOM     27  N   UNL     1      10.710  10.796  -1.754  0.00  0.00    -0.352 N 
ATOM     28  C   UNL     1       9.522  10.342  -2.049  0.00  0.00    +0.173 A 
ATOM     29  H   UNL     1      11.400  11.022  -2.397  0.00  0.00    +0.166 HD
ENDBRANCH  23  24
ENDBRANCH  22  23
ENDBRANCH  21  22
ENDBRANCH  19  21
ENDBRANCH   4  19
TORSDOF 7
