REMARK  Name = ZINC63637533
REMARK  5 active torsions:
REMARK  status: ('A' for Active; 'I' for Inactive)
REMARK    1  A    between atoms: C_1  and  C_2
REMARK    2  A    between atoms: C_4  and  C_33
REMARK    3  A    between atoms: C_9  and  C_14
REMARK    4  A    between atoms: N_22  and  C_24
REMARK    5  A    between atoms: C_29  and  C_30
REMARK                            x       y       z     vdW  Elec       q    Type
REMARK                         _______ _______ _______ _____ _____    ______ ____
ROOT
ATOM      1  C   UNL     1      -0.094   1.564  -0.151  0.00  0.00    +0.062 C 
ATOM      2  C   UNL     1      -0.035   0.058  -0.155  0.00  0.00    +0.023 C 
ATOM      3  C   UNL     1      -1.068  -0.714   0.008  0.00  0.00    +0.002 C 
ATOM      4  C   UNL     1      -2.503  -0.397   0.339  0.00  0.00    +0.118 C 
ATOM      5  C   UNL     1      -2.971  -1.414   1.366  0.00  0.00    +0.026 C 
ATOM      6  C   UNL     1      -2.252  -2.513   1.672  0.00  0.00    +0.014 C 
ATOM      7  C   UNL     1      -2.786  -3.517   2.673  0.00  0.00    +0.060 C 
ATOM      8  C   UNL     1      -3.617  -2.796   3.734  0.00  0.00    +0.039 C 
ATOM      9  C   UNL     1      -4.771  -2.073   3.031  0.00  0.00    +0.088 C 
ATOM     10  C   UNL     1      -4.202  -1.150   1.991  0.00  0.00    +0.162 C 
ATOM     11  O   UNL     1      -4.821  -0.150   1.683  0.00  0.00    -0.292 OA
ATOM     12  N   UNL     1      -1.022  -2.797   1.138  0.00  0.00    -0.324 N 
ATOM     13  C   UNL     1      -0.601  -2.162  -0.114  0.00  0.00    +0.207 C 
ATOM     14  N   UNL     1       0.860  -2.048  -0.197  0.00  0.00    -0.228 N 
ATOM     15  N   UNL     1       1.126  -0.676  -0.339  0.00  0.00    -0.266 N 
ATOM     16  H   UNL     1      -0.429  -3.419   1.589  0.00  0.00    +0.148 HD
ATOM     17  H   UNL     1       1.997  -0.297  -0.536  0.00  0.00    +0.170 HD
ENDROOT
BRANCH   4  18
ATOM     18  C   UNL     1      -2.600   0.994   0.912  0.00  0.00    +0.096 A 
ATOM     19  N   UNL     1      -2.909   2.087   0.233  0.00  0.00    -0.349 N 
ATOM     20  C   UNL     1      -2.896   3.132   1.086  0.00  0.00    +0.101 A 
ATOM     21  C   UNL     1      -2.573   2.652   2.304  0.00  0.00    +0.101 A 
ATOM     22  N   UNL     1      -2.397   1.321   2.178  0.00  0.00    -0.349 N 
ATOM     23  H   UNL     1      -2.161   0.708   2.893  0.00  0.00    +0.166 HD
ATOM     24  H   UNL     1      -3.109   2.129  -0.715  0.00  0.00    +0.166 HD
ENDBRANCH   4  18
BRANCH  14  25
ATOM     25  C   UNL     1       1.784  -3.081  -0.149  0.00  0.00    +0.064 A 
ATOM     26  C   UNL     1       1.692  -4.143  -1.041  0.00  0.00    +0.025 A 
ATOM     27  C   UNL     1       2.613  -5.169  -0.992  0.00  0.00    +0.002 A 
ATOM     28  C   UNL     1       3.635  -5.151  -0.055  0.00  0.00    +0.001 A 
ATOM     29  C   UNL     1       3.744  -4.109   0.838  0.00  0.00    +0.017 A 
ATOM     30  C   UNL     1       2.823  -3.057   0.797  0.00  0.00    +0.086 A 
BRANCH  30  31
ATOM     31  C   UNL     1       2.936  -1.937   1.743  0.00  0.00    +0.388 C 
ATOM     32  O   UNL     1       3.842  -1.920   2.566  0.00  0.00    -0.241 OA
ATOM     33  O   UNL     1       2.125  -1.022   1.708  0.00  0.00    -0.241 OA
ENDBRANCH  30  31
ENDBRANCH  14  25
BRANCH   8  34
ATOM     34  C   UNL     1      -4.166  -3.797   4.717  0.00  0.00    -0.006 A 
ATOM     35  C   UNL     1      -3.972  -3.873   6.057  0.00  0.00    +0.011 A 
ATOM     36  C   UNL     1      -4.585  -4.889   6.766  0.00  0.00    +0.008 A 
ATOM     37  C   UNL     1      -5.361  -5.779   6.101  0.00  0.00    +0.045 A 
ATOM     38  S   UNL     1      -5.248  -5.186   4.421  0.00  0.00    -0.101 S 
ENDBRANCH   8  34
TORSDOF 4
