REMARK  Name = ZINC62833713
REMARK  3 active torsions:
REMARK  status: ('A' for Active; 'I' for Inactive)
REMARK    1  A    between atoms: C_5  and  C_12
REMARK    2  A    between atoms: C_9  and  N_11
REMARK    3  A    between atoms: C_18  and  O_21
REMARK                            x       y       z     vdW  Elec       q    Type
REMARK                         _______ _______ _______ _____ _____    ______ ____
ROOT
ATOM      1  C   UNL     1      -0.023   1.313  -0.153  0.00  0.00    +0.002 A 
ATOM      2  C   UNL     1       1.129   1.931  -0.543  0.00  0.00    +0.010 A 
ATOM      3  C   UNL     1       2.370   1.346  -0.253  0.00  0.00    +0.002 A 
ATOM      4  C   UNL     1       3.709   1.727  -0.515  0.00  0.00    +0.041 A 
ATOM      5  C   UNL     1       4.521   0.768   0.002  0.00  0.00    +0.103 A 
ATOM      6  N   UNL     1       3.746  -0.214   0.586  0.00  0.00    -0.349 N 
ATOM      7  H   UNL     1       4.081  -1.011   1.027  0.00  0.00    +0.166 HD
ATOM      8  C   UNL     1       2.420   0.123   0.440  0.00  0.00    +0.068 A 
ATOM      9  C   UNL     1       1.227  -0.494   0.830  0.00  0.00    +0.049 A 
ATOM     10  C   UNL     1       0.017   0.105   0.531  0.00  0.00    +0.025 A 
ENDROOT
BRANCH   5  11
ATOM     11  C   UNL     1       5.991   0.775  -0.053  0.00  0.00    +0.263 C 
ATOM     12  O   UNL     1       6.590   1.826  -0.178  0.00  0.00    -0.268 OA
ATOM     13  N   UNL     1       6.674  -0.384   0.035  0.00  0.00    -0.294 N 
ATOM     14  C   UNL     1       5.967  -1.672   0.031  0.00  0.00    +0.108 C 
ATOM     15  C   UNL     1       6.563  -2.558  -1.067  0.00  0.00    +0.021 C 
ATOM     16  C   UNL     1       8.075  -2.671  -0.861  0.00  0.00    +0.034 C 
ATOM     17  C   UNL     1       8.711  -1.283  -0.962  0.00  0.00    +0.132 C 
ATOM     18  C   UNL     1       8.140  -0.383   0.132  0.00  0.00    +0.139 C 
BRANCH  17  19
ATOM     19  O   UNL     1      10.127  -1.394  -0.800  0.00  0.00    -0.390 OA
ATOM     20  H   UNL     1      10.596  -0.550  -0.852  0.00  0.00    +0.210 HD
ENDBRANCH  17  19
ENDBRANCH   5  11
BRANCH   9  21
ATOM     21  N   UNL     1       1.258  -1.710   1.519  0.00  0.00    -0.356 N 
ATOM     22  H   UNL     1       2.108  -2.128   1.727  0.00  0.00    +0.142 HD
ATOM     23  H   UNL     1       0.429  -2.136   1.789  0.00  0.00    +0.142 HD
ENDBRANCH   9  21
TORSDOF 3
