REMARK  Name = ZINC32916138
REMARK  10 active torsions:
REMARK  status: ('A' for Active; 'I' for Inactive)
REMARK    1  A    between atoms: C_1  and  C_2
REMARK    2  A    between atoms: C_3  and  S_9
REMARK    3  A    between atoms: C_4  and  C_8
REMARK    4  A    between atoms: S_9  and  N_12
REMARK    5  A    between atoms: C_16  and  C_19
REMARK    6  A    between atoms: N_21  and  C_22
REMARK    7  A    between atoms: C_27  and  C_28
REMARK    8  A    between atoms: C_28  and  N_29
REMARK    9  A    between atoms: N_29  and  C_30
REMARK   10  A    between atoms: N_29  and  C_31
REMARK                            x       y       z     vdW  Elec       q    Type
REMARK                         _______ _______ _______ _____ _____    ______ ____
ROOT
ATOM      1  C   UNL     1       0.579   4.972  -1.443  0.00  0.00    +0.222 C 
ATOM      2  O   UNL     1      -0.006   5.375  -2.426  0.00  0.00    -0.275 OA
ATOM      3  N   UNL     1       0.318   3.741  -0.961  0.00  0.00    -0.285 N 
ATOM      4  H   UNL     1       0.793   3.403  -0.028  0.00  0.00    +0.155 HD
ENDROOT
BRANCH   1   9
ATOM      5  N   UNL     1       2.796   7.968  -0.911  0.00  0.00    -0.176 NA
ATOM      6  C   UNL     1       4.127   7.358  -0.791  0.00  0.00    +0.109 C 
ATOM      7  C   UNL     1       3.991   6.022  -0.054  0.00  0.00    +0.018 C 
ATOM      8  C   UNL     1       2.961   5.148  -0.774  0.00  0.00    +0.015 C 
ATOM      9  C   UNL     1       1.600   5.847  -0.762  0.00  0.00    +0.091 C 
ATOM     10  C   UNL     1       1.708   7.181  -1.508  0.00  0.00    +0.122 C 
BRANCH   5  11
ATOM     11  S   UNL     1       2.527   9.516  -0.386  0.00  0.00    +0.064 S 
ATOM     12  O   UNL     1       1.136   9.615  -0.111  0.00  0.00    -0.153 OA
ATOM     13  O   UNL     1       3.519   9.790   0.594  0.00  0.00    -0.153 OA
BRANCH  11  16
ATOM     14  C   UNL     1       5.328  10.982  -1.279  0.00  0.00    +0.067 C 
ATOM     15  C   UNL     1       4.042  11.158  -2.044  0.00  0.00    +0.060 A 
ATOM     16  C   UNL     1       2.850  10.591  -1.744  0.00  0.00    +0.148 A 
ATOM     17  C   UNL     1       1.919  11.014  -2.698  0.00  0.00    +0.086 A 
ATOM     18  N   UNL     1       2.531  11.803  -3.544  0.00  0.00    -0.177 NA
ATOM     19  N   UNL     1       3.873  11.906  -3.154  0.00  0.00    -0.280 N 
ATOM     20  H   UNL     1       4.724  12.456  -3.582  0.00  0.00    +0.189 HD
ATOM     21  C   UNL     1       0.463  10.630  -2.743  0.00  0.00    +0.069 C 
ENDBRANCH  11  16
ENDBRANCH   5  11
ENDBRANCH   1   9
BRANCH   3  22
ATOM     22  C   UNL     1      -0.559   2.893  -1.646  0.00  0.00    +0.035 A 
ATOM     23  C   UNL     1      -1.656   3.419  -2.316  0.00  0.00    +0.023 A 
ATOM     24  C   UNL     1      -2.523   2.579  -2.985  0.00  0.00    +0.002 A 
ATOM     25  C   UNL     1      -2.297   1.215  -2.995  0.00  0.00    +0.000 A 
ATOM     26  C   UNL     1      -1.203   0.688  -2.335  0.00  0.00    +0.003 A 
ATOM     27  C   UNL     1      -0.332   1.523  -1.662  0.00  0.00    -0.043 A 
BRANCH  27  28
ATOM     28  C   UNL     1       0.861   0.948  -0.942  0.00  0.00    -0.041 C 
BRANCH  28  29
ATOM     29  N   UNL     1       0.565   0.850   0.493  0.00  0.00    +0.382 N 
ATOM     30  C   UNL     1      -0.501  -0.129   0.746  0.00  0.00    -0.095 C 
ATOM     31  H   UNL     1       0.208   1.833   0.833  0.00  0.00    -0.081 HD
BRANCH  29  32
ATOM     32  C   UNL     1       1.775   0.519   1.258  0.00  0.00    -0.069 C 
ATOM     33  C   UNL     1       2.260  -0.878   0.868  0.00  0.00    -0.015 C 
ATOM     34  C   UNL     1       3.519  -1.222   1.664  0.00  0.00    -0.002 C 
ATOM     35  C   UNL     1       3.200  -1.193   3.160  0.00  0.00    -0.000 C 
ATOM     36  C   UNL     1       2.716   0.204   3.551  0.00  0.00    -0.002 C 
ATOM     37  C   UNL     1       1.456   0.548   2.755  0.00  0.00    -0.015 C 
ENDBRANCH  29  32
ENDBRANCH  28  29
ENDBRANCH  27  28
ENDBRANCH   3  22
TORSDOF 7
