REMARK  Name = ZINC15040273
REMARK  8 active torsions:
REMARK  status: ('A' for Active; 'I' for Inactive)
REMARK    1  A    between atoms: C_3  and  O_26
REMARK    2  A    between atoms: C_4  and  C_8
REMARK    3  A    between atoms: N_12  and  C_16
REMARK    4  A    between atoms: C_16  and  C_17
REMARK    5  A    between atoms: C_17  and  C_18
REMARK    6  A    between atoms: C_18  and  C_19
REMARK    7  A    between atoms: N_21  and  C_22
REMARK    8  A    between atoms: C_22  and  C_23
REMARK                            x       y       z     vdW  Elec       q    Type
REMARK                         _______ _______ _______ _____ _____    ______ ____
ROOT
ATOM      1  C   UNL     1       3.688  -0.686  -0.037  0.00  0.00    +0.032 C 
ATOM      2  C   UNL     1       3.711  -2.040   0.058  0.00  0.00    +0.077 C 
ATOM      3  C   UNL     1       4.864  -2.956   0.168  0.00  0.00    +0.258 C 
ATOM      4  O   UNL     1       6.009  -2.544   0.186  0.00  0.00    -0.269 OA
ATOM      5  N   UNL     1       4.589  -4.247   0.247  0.00  0.00    -0.255 N 
ATOM      6  C   UNL     1       3.318  -4.700   0.227  0.00  0.00    +0.121 C 
ATOM      7  S   UNL     1       2.764  -6.317   0.317  0.00  0.00    -0.027 S 
ATOM      8  S   UNL     1       2.354  -3.203   0.092  0.00  0.00    -0.061 S 
ENDROOT
BRANCH   1  12
ATOM      9  C   UNL     1       0.027   1.328  -0.778  0.00  0.00    +0.023 A 
ATOM     10  C   UNL     1       1.102   2.030  -0.267  0.00  0.00    +0.047 A 
ATOM     11  C   UNL     1       2.302   1.384  -0.021  0.00  0.00    +0.124 A 
ATOM     12  C   UNL     1       2.421   0.011  -0.293  0.00  0.00    +0.019 A 
ATOM     13  C   UNL     1       1.325  -0.689  -0.811  0.00  0.00    +0.031 A 
ATOM     14  C   UNL     1       0.139  -0.027  -1.049  0.00  0.00    +0.042 A 
ATOM     15 CL   UNL     1      -1.221  -0.895  -1.690  0.00  0.00    -0.084 Cl
BRANCH  11  16
ATOM     16  O   UNL     1       3.358   2.074   0.481  0.00  0.00    -0.506 OA
ATOM     17  H   UNL     1       3.395   2.087   1.447  0.00  0.00    +0.292 HD
ENDBRANCH  11  16
ENDBRANCH   1  12
BRANCH   5  18
ATOM     18  C   UNL     1       5.689  -5.208   0.357  0.00  0.00    +0.115 C 
BRANCH  18  19
ATOM     19  C   UNL     1       6.015  -5.443   1.834  0.00  0.00    +0.029 C 
BRANCH  19  20
ATOM     20  C   UNL     1       7.164  -6.446   1.949  0.00  0.00    +0.097 C 
BRANCH  20  21
ATOM     21  C   UNL     1       7.485  -6.677   3.403  0.00  0.00    +0.214 C 
ATOM     22  O   UNL     1       6.856  -6.096   4.263  0.00  0.00    -0.276 OA
ATOM     23  N   UNL     1       8.470  -7.529   3.749  0.00  0.00    -0.305 N 
ATOM     24  H   UNL     1       8.973  -7.993   3.062  0.00  0.00    +0.149 HD
BRANCH  23  25
ATOM     25  C   UNL     1       8.782  -7.754   5.163  0.00  0.00    +0.229 C 
BRANCH  25  26
ATOM     26  C   UNL     1       9.914  -8.742   5.277  0.00  0.00    +0.373 C 
ATOM     27  O   UNL     1      10.414  -9.215   4.270  0.00  0.00    -0.245 OA
ATOM     28  O   UNL     1      10.330  -9.069   6.375  0.00  0.00    -0.245 OA
ENDBRANCH  25  26
ENDBRANCH  23  25
ENDBRANCH  20  21
ENDBRANCH  19  20
ENDBRANCH  18  19
ENDBRANCH   5  18
TORSDOF 8
