REMARK  Name = ZINC65436348
REMARK  4 active torsions:
REMARK  status: ('A' for Active; 'I' for Inactive)
REMARK    1  A    between atoms: C_4  and  C_8
REMARK    2  A    between atoms: C_8  and  C_9
REMARK    3  A    between atoms: C_9  and  N_10
REMARK    4  A    between atoms: N_13  and  N_14
REMARK                            x       y       z     vdW  Elec       q    Type
REMARK                         _______ _______ _______ _____ _____    ______ ____
ROOT
ATOM      1  N   UNL     1       5.510  -1.574   1.377  0.00  0.00    -0.298 N 
ATOM      2  C   UNL     1       6.159  -1.821   2.532  0.00  0.00    +0.316 C 
ATOM      3  O   UNL     1       5.684  -1.449   3.588  0.00  0.00    -0.251 OA
ATOM      4  N   UNL     1       7.335  -2.479   2.517  0.00  0.00    -0.219 N 
ATOM      5  H   UNL     1       5.889  -1.870   0.535  0.00  0.00    +0.150 HD
ATOM      6  H   UNL     1       7.802  -2.657   3.348  0.00  0.00    +0.174 HD
ENDROOT
BRANCH   4   7
ATOM      7  N   UNL     1       7.882  -2.908   1.301  0.00  0.00    -0.246 N 
ATOM      8  C   UNL     1       9.096  -3.587   1.285  0.00  0.00    +0.157 A 
ATOM      9  C   UNL     1       9.646  -4.010   0.075  0.00  0.00    +0.050 A 
ATOM     10  C   UNL     1      10.857  -4.683   0.113  0.00  0.00    +0.045 A 
ATOM     11  C   UNL     1      11.447  -4.895   1.353  0.00  0.00    +0.152 A 
ATOM     12  N   UNL     1      10.854  -4.460   2.448  0.00  0.00    -0.136 NA
ATOM     13  N   UNL     1       9.736  -3.832   2.418  0.00  0.00    -0.132 NA
ATOM     14 CL   UNL     1      12.963  -5.734   1.460  0.00  0.00    -0.060 Cl
ATOM     15  H   UNL     1       7.415  -2.730   0.469  0.00  0.00    +0.172 HD
ENDBRANCH   4   7
BRANCH   1  16
ATOM     16  C   UNL     1       4.232  -0.858   1.394  0.00  0.00    +0.110 C 
BRANCH  16  17
ATOM     17  C   UNL     1       3.711  -0.711  -0.037  0.00  0.00    +0.057 C 
BRANCH  17  21
ATOM     18  C   UNL     1      -0.017   1.379   0.010  0.00  0.00    +0.018 A 
ATOM     19  C   UNL     1       1.171   2.086   0.002  0.00  0.00    +0.040 A 
ATOM     20  C   UNL     1       2.379   1.411  -0.013  0.00  0.00    +0.127 A 
ATOM     21  C   UNL     1       2.397   0.026  -0.021  0.00  0.00    -0.010 A 
ATOM     22  C   UNL     1       1.209  -0.680  -0.013  0.00  0.00    +0.021 A 
ATOM     23  C   UNL     1       0.002  -0.004   0.002  0.00  0.00    +0.018 A 
ATOM     24 BR   UNL     1      -1.623  -0.971   0.013  0.00  0.00    -0.050 Br
ATOM     25  F   UNL     1       3.539   2.102  -0.021  0.00  0.00    -0.205 F 
ENDBRANCH  17  21
ENDBRANCH  16  17
ENDBRANCH   1  16
TORSDOF 4
