REMARK  Name = ZINC54894847
REMARK  1 active torsions:
REMARK  status: ('A' for Active; 'I' for Inactive)
REMARK    1  A    between atoms: C_17  and  N_22
REMARK                            x       y       z     vdW  Elec       q    Type
REMARK                         _______ _______ _______ _____ _____    ______ ____
ROOT
ATOM      1  C   UNL     1      -0.017   1.379   0.010  0.00  0.00    +0.002 A 
ATOM      2  C   UNL     1       1.167   2.094   0.002  0.00  0.00    +0.002 A 
ATOM      3  C   UNL     1       2.381   1.430  -0.011  0.00  0.00    +0.025 A 
ATOM      4  C   UNL     1       2.406   0.047  -0.018  0.00  0.00    +0.057 A 
ATOM      5  C   UNL     1       1.213  -0.677  -0.014  0.00  0.00    +0.055 A 
ATOM      6  C   UNL     1       0.002  -0.004   0.002  0.00  0.00    +0.025 A 
ATOM      7  N   UNL     1       1.254  -2.076  -0.032  0.00  0.00    -0.283 N 
ATOM      8  C   UNL     1       2.399  -2.734   0.232  0.00  0.00    +0.235 C 
ATOM      9  O   UNL     1       2.423  -3.945   0.168  0.00  0.00    -0.274 OA
ATOM     10  C   UNL     1       3.651  -1.983   0.607  0.00  0.00    +0.209 C 
ATOM     11  N   UNL     1       3.620  -0.655  -0.024  0.00  0.00    -0.269 N 
ATOM     12  C   UNL     1       4.756  -0.114  -0.609  0.00  0.00    +0.166 A 
ATOM     13  N   UNL     1       4.894   1.051  -1.203  0.00  0.00    -0.229 NA
ATOM     14  C   UNL     1       6.055   1.442  -1.723  0.00  0.00    +0.052 A 
ATOM     15  C   UNL     1       7.069   0.550  -1.589  0.00  0.00    -0.000 A 
ATOM     16  S   UNL     1       6.297  -0.787  -0.723  0.00  0.00    -0.058 S 
ATOM     17  C   UNL     1       8.477   0.694  -2.060  0.00  0.00    -0.035 C 
ATOM     18  C   UNL     1       8.718   2.172  -2.408  0.00  0.00    -0.011 C 
ATOM     19  C   UNL     1       7.554   2.672  -3.268  0.00  0.00    +0.005 C 
ATOM     20  C   UNL     1       6.282   2.773  -2.425  0.00  0.00    +0.056 C 
ATOM     21  H   UNL     1       0.450  -2.577  -0.238  0.00  0.00    +0.155 HD
ENDROOT
BRANCH  17  22
ATOM     22  N   UNL     1       9.400   0.278  -0.996  0.00  0.00    +0.383 N 
ATOM     23  H   UNL     1       9.224  -0.687  -0.756  0.00  0.00    -0.089 HD
ATOM     24  H   UNL     1      10.351   0.376  -1.318  0.00  0.00    -0.089 HD
ATOM     25  H   UNL     1       9.258   0.857  -0.182  0.00  0.00    -0.089 HD
ENDBRANCH  17  22
TORSDOF 1
