REMARK  Name = ZINC11566905
REMARK  7 active torsions:
REMARK  status: ('A' for Active; 'I' for Inactive)
REMARK    1  A    between atoms: C_1  and  C_2
REMARK    2  A    between atoms: C_5  and  N_9
REMARK    3  A    between atoms: C_6  and  C_8
REMARK    4  A    between atoms: C_10  and  N_25
REMARK    5  A    between atoms: C_11  and  C_18
REMARK    6  A    between atoms: C_19  and  C_24
REMARK    7  A    between atoms: C_21  and  C_23
REMARK                            x       y       z     vdW  Elec       q    Type
REMARK                         _______ _______ _______ _____ _____    ______ ____
ROOT
ATOM      1  N   UNL     1       1.275  -2.095  -0.046  0.00  0.00    -0.249 N 
ATOM      2  C   UNL     1       1.293  -2.773   1.150  0.00  0.00    +0.119 A 
ATOM      3  C   UNL     1       1.284  -4.160   1.140  0.00  0.00    +0.104 A 
ATOM      4  C   UNL     1       1.267  -4.830  -0.105  0.00  0.00    +0.265 A 
ATOM      5  O   UNL     1       1.263  -6.048  -0.147  0.00  0.00    -0.267 OA
ATOM      6  N   UNL     1       1.255  -4.111  -1.244  0.00  0.00    -0.274 N 
ATOM      7  H   UNL     1       1.243  -4.583  -2.126  0.00  0.00    +0.173 HD
ATOM      8  C   UNL     1       1.259  -2.767  -1.211  0.00  0.00    +0.335 A 
ATOM      9  O   UNL     1       1.248  -2.146  -2.256  0.00  0.00    -0.246 OA
ENDROOT
BRANCH   1  14
ATOM     10  C   UNL     1       1.293   3.580  -0.071  0.00  0.00    +0.044 C 
ATOM     11  C   UNL     1       1.288   2.073  -0.064  0.00  0.00    -0.050 A 
ATOM     12  C   UNL     1       0.088   1.387  -0.047  0.00  0.00    +0.005 A 
ATOM     13  C   UNL     1       0.080   0.006  -0.041  0.00  0.00    +0.027 A 
ATOM     14  C   UNL     1       1.280  -0.694  -0.052  0.00  0.00    +0.056 A 
ATOM     15  C   UNL     1       2.483  -0.002  -0.070  0.00  0.00    -0.026 A 
ATOM     16  C   UNL     1       2.484   1.379  -0.076  0.00  0.00    +0.008 A 
ATOM     17  C   UNL     1       3.787  -0.757  -0.083  0.00  0.00    +0.046 C 
ENDBRANCH   1  14
BRANCH   3  18
ATOM     18  C   UNL     1       1.297  -4.926   2.411  0.00  0.00    +0.090 A 
ATOM     19  C   UNL     1       0.239  -5.716   2.770  0.00  0.00    +0.015 A 
ATOM     20  S   UNL     1       0.820  -6.355   4.334  0.00  0.00    -0.077 S 
ATOM     21  C   UNL     1       2.349  -5.534   4.362  0.00  0.00    +0.076 A 
ATOM     22  N   UNL     1       2.330  -4.861   3.236  0.00  0.00    -0.244 NA
ATOM     23  C   UNL     1       3.427  -5.582   5.414  0.00  0.00    +0.073 C 
ATOM     24  C   UNL     1      -1.056  -5.978   2.045  0.00  0.00    +0.054 C 
ENDBRANCH   3  18
BRANCH   2  25
ATOM     25  N   UNL     1       1.315  -2.086   2.337  0.00  0.00    -0.343 N 
ATOM     26  H   UNL     1       1.240  -1.119   2.339  0.00  0.00    +0.144 HD
ATOM     27  H   UNL     1       1.405  -2.568   3.174  0.00  0.00    +0.144 HD
ENDBRANCH   2  25
TORSDOF 3
