REMARK  Name = ZINC64165406
REMARK  7 active torsions:
REMARK  status: ('A' for Active; 'I' for Inactive)
REMARK    1  A    between atoms: C_1  and  C_2
REMARK    2  A    between atoms: C_2  and  C_3
REMARK    3  A    between atoms: C_3  and  N_4
REMARK    4  A    between atoms: C_11  and  O_26
REMARK    5  A    between atoms: C_13  and  C_16
REMARK    6  A    between atoms: C_16  and  N_18
REMARK    7  A    between atoms: C_22  and  C_25
REMARK                            x       y       z     vdW  Elec       q    Type
REMARK                         _______ _______ _______ _____ _____    ______ ____
ROOT
ATOM      1  N   UNL     1      -1.313  -1.979   0.004  0.00  0.00    -0.267 N 
ATOM      2  C   UNL     1      -1.247  -2.602  -1.246  0.00  0.00    +0.043 A 
ATOM      3  C   UNL     1      -1.518  -1.873  -2.397  0.00  0.00    +0.024 A 
ATOM      4  C   UNL     1      -1.458  -2.487  -3.632  0.00  0.00    +0.002 A 
ATOM      5  C   UNL     1      -1.129  -3.827  -3.722  0.00  0.00    +0.000 A 
ATOM      6  C   UNL     1      -0.857  -4.554  -2.578  0.00  0.00    +0.008 A 
ATOM      7  C   UNL     1      -0.913  -3.946  -1.337  0.00  0.00    +0.007 A 
ATOM      8  C   UNL     1      -0.605  -4.748  -0.103  0.00  0.00    +0.187 C 
ATOM      9  C   UNL     1      -1.089  -4.051   1.133  0.00  0.00    +0.111 C 
ATOM     10  C   UNL     1      -1.404  -2.738   1.142  0.00  0.00    +0.255 C 
ATOM     11  O   UNL     1      -1.821  -2.164   2.292  0.00  0.00    -0.270 OA
ENDROOT
BRANCH   9  12
ATOM     12  C   UNL     1      -1.217  -4.793   2.330  0.00  0.00    +0.273 C 
ATOM     13  O   UNL     1      -1.710  -4.275   3.321  0.00  0.00    -0.268 OA
BRANCH  12  14
ATOM     14  N   UNL     1      -0.795  -6.067   2.379  0.00  0.00    -0.152 NA
ATOM     15  C   UNL     1      -0.915  -6.764   3.503  0.00  0.00    +0.163 A 
ATOM     16  N   UNL     1      -1.439  -6.363   4.696  0.00  0.00    -0.339 N 
ATOM     17  H   UNL     1      -1.787  -5.465   4.806  0.00  0.00    +0.167 HD
ATOM     18  C   UNL     1      -1.464  -7.249   5.730  0.00  0.00    +0.021 A 
ATOM     19  C   UNL     1      -0.967  -8.469   5.505  0.00  0.00    +0.069 A 
ATOM     20  S   UNL     1      -0.463  -8.357   3.798  0.00  0.00    -0.060 S 
ATOM     21  C   UNL     1      -2.029  -6.869   7.074  0.00  0.00    +0.064 C 
ENDBRANCH  12  14
ENDBRANCH   9  12
BRANCH   8  22
ATOM     22  O   UNL     1      -1.244  -6.023  -0.202  0.00  0.00    -0.382 OA
ATOM     23  H   UNL     1      -0.994  -6.643   0.497  0.00  0.00    +0.211 HD
ENDBRANCH   8  22
BRANCH   1  24
ATOM     24  C   UNL     1      -1.279  -0.518   0.097  0.00  0.00    +0.114 C 
BRANCH  24  26
ATOM     25  C   UNL     1       0.208   1.478   0.316  0.00  0.00    +0.005 C 
ATOM     26  C   UNL     1       0.172  -0.049   0.219  0.00  0.00    +0.016 C 
ENDBRANCH  24  26
ENDBRANCH   1  24
TORSDOF 5
