REMARK  Name = ZINC35316063
REMARK  6 active torsions:
REMARK  status: ('A' for Active; 'I' for Inactive)
REMARK    1  A    between atoms: C_1  and  C_2
REMARK    2  A    between atoms: C_2  and  C_3
REMARK    3  A    between atoms: C_4  and  C_21
REMARK    4  A    between atoms: C_11  and  S_12
REMARK    5  A    between atoms: S_12  and  C_13
REMARK    6  A    between atoms: C_13  and  C_14
REMARK                            x       y       z     vdW  Elec       q    Type
REMARK                         _______ _______ _______ _____ _____    ______ ____
ROOT
ATOM      1  C   UNL     1      -1.412  -0.526   0.013  0.00  0.00    +0.018 A 
ATOM      2  C   UNL     1      -2.037  -0.860  -1.146  0.00  0.00    +0.048 A 
ATOM      3  N   UNL     1      -3.292  -1.323  -1.138  0.00  0.00    -0.221 NA
ATOM      4  C   UNL     1      -3.970  -1.474  -0.023  0.00  0.00    +0.201 A 
ATOM      5  N   UNL     1      -3.411  -1.160   1.183  0.00  0.00    -0.242 N 
ATOM      6  C   UNL     1      -2.114  -0.683   1.228  0.00  0.00    +0.169 A 
ATOM      7  N   UNL     1      -1.828  -0.470   2.494  0.00  0.00    -0.128 NA
ATOM      8  N   UNL     1      -2.839  -0.781   3.228  0.00  0.00    -0.122 NA
ATOM      9  C   UNL     1      -3.834  -1.200   2.480  0.00  0.00    +0.199 A 
ATOM     10  N   UNL     1      -5.257  -1.954  -0.070  0.00  0.00    -0.328 N 
ATOM     11  C   UNL     1      -1.308  -0.708  -2.457  0.00  0.00    +0.066 C 
ATOM     12  H   UNL     1      -5.659  -2.179  -0.924  0.00  0.00    +0.145 HD
ATOM     13  H   UNL     1      -5.763  -2.067   0.750  0.00  0.00    +0.145 HD
ENDROOT
BRANCH   1  15
ATOM     14  C   UNL     1      -0.019   1.526   0.010  0.00  0.00    +0.009 C 
ATOM     15  C   UNL     1       0.002  -0.004   0.002  0.00  0.00    +0.037 C 
ENDBRANCH   1  15
BRANCH   9  16
ATOM     16  S   UNL     1      -5.415  -1.733   3.047  0.00  0.00    -0.081 S 
BRANCH  16  17
ATOM     17  C   UNL     1      -5.324  -1.538   4.848  0.00  0.00    +0.114 C 
BRANCH  17  18
ATOM     18  C   UNL     1      -6.630  -1.965   5.466  0.00  0.00    -0.019 A 
ATOM     19  C   UNL     1      -7.653  -1.047   5.649  0.00  0.00    +0.007 A 
ATOM     20  C   UNL     1      -8.838  -1.484   6.222  0.00  0.00    +0.020 A 
ATOM     21  C   UNL     1      -8.958  -2.812   6.589  0.00  0.00    +0.111 A 
ATOM     22  N   UNL     1      -7.964  -3.657   6.400  0.00  0.00    -0.263 NA
ATOM     23  C   UNL     1      -6.825  -3.277   5.853  0.00  0.00    +0.115 A 
ENDBRANCH  17  18
ENDBRANCH  16  17
ENDBRANCH   9  16
TORSDOF 4
