REMARK  Name = ZINC65616934
REMARK  9 active torsions:
REMARK  status: ('A' for Active; 'I' for Inactive)
REMARK    1  A    between atoms: C_1  and  C_2
REMARK    2  A    between atoms: C_4  and  C_8
REMARK    3  A    between atoms: C_5  and  C_7
REMARK    4  A    between atoms: C_8  and  C_9
REMARK    5  A    between atoms: C_8  and  N_10
REMARK    6  A    between atoms: C_11  and  C_13
REMARK    7  A    between atoms: N_15  and  C_16
REMARK    8  A    between atoms: C_19  and  N_22
REMARK    9  A    between atoms: C_23  and  C_25
REMARK                            x       y       z     vdW  Elec       q    Type
REMARK                         _______ _______ _______ _____ _____    ______ ____
ROOT
ATOM      1  C   UNL     1      -4.808  -3.823  -1.753  0.00  0.00    +0.303 C 
ATOM      2  O   UNL     1      -5.250  -2.693  -1.702  0.00  0.00    -0.265 OA
ATOM      3  N   UNL     1      -5.532  -4.803  -2.329  0.00  0.00    -0.278 N 
ATOM      4  H   UNL     1      -5.152  -5.690  -2.430  0.00  0.00    +0.155 HD
ENDROOT
BRANCH   3   5
ATOM      5  C   UNL     1      -6.829  -4.542  -2.780  0.00  0.00    +0.034 A 
ATOM      6  C   UNL     1      -7.809  -5.522  -2.681  0.00  0.00    +0.025 A 
ATOM      7  C   UNL     1      -9.090  -5.265  -3.126  0.00  0.00    +0.025 A 
ATOM      8  C   UNL     1      -9.399  -4.026  -3.673  0.00  0.00    +0.034 A 
ATOM      9  C   UNL     1      -8.419  -3.046  -3.772  0.00  0.00    +0.025 A 
ATOM     10  C   UNL     1      -7.140  -3.301  -3.321  0.00  0.00    +0.025 A 
BRANCH   8  11
ATOM     11  N   UNL     1     -10.698  -3.764  -4.125  0.00  0.00    -0.279 N 
ATOM     12  C   UNL     1     -11.755  -4.292  -3.477  0.00  0.00    +0.284 C 
ATOM     13  O   UNL     1     -11.579  -5.062  -2.551  0.00  0.00    -0.266 OA
ATOM     14  H   UNL     1     -10.837  -3.204  -4.904  0.00  0.00    +0.155 HD
BRANCH  12  15
ATOM     15  C   UNL     1     -13.118  -3.937  -3.887  0.00  0.00    +0.189 A 
ATOM     16  C   UNL     1     -14.272  -4.393  -3.316  0.00  0.00    +0.054 A 
ATOM     17  C   UNL     1     -15.331  -3.800  -4.020  0.00  0.00    +0.042 A 
ATOM     18  C   UNL     1     -14.785  -3.019  -4.978  0.00  0.00    +0.196 A 
ATOM     19  O   UNL     1     -13.451  -3.100  -4.891  0.00  0.00    -0.458 OA
ENDBRANCH  12  15
ENDBRANCH   8  11
ENDBRANCH   3   5
BRANCH   1  21
ATOM     20  N   UNL     1      -2.740  -3.145  -0.603  0.00  0.00    -0.301 N 
ATOM     21  C   UNL     1      -3.464  -4.125  -1.179  0.00  0.00    +0.300 C 
ATOM     22  O   UNL     1      -3.022  -5.255  -1.230  0.00  0.00    -0.265 OA
ATOM     23  H   UNL     1      -3.093  -2.242  -0.562  0.00  0.00    +0.150 HD
BRANCH  20  24
ATOM     24  C   UNL     1      -1.421  -3.442  -0.040  0.00  0.00    +0.104 C 
ATOM     25  C   UNL     1      -1.582  -3.961   1.390  0.00  0.00    +0.033 C 
BRANCH  24  29
ATOM     26  C   UNL     1      -0.006   1.452   0.031  0.00  0.00    +0.086 C 
ATOM     27  C   UNL     1       0.016  -0.055   0.004  0.00  0.00    +0.103 A 
ATOM     28  C   UNL     1      -1.064  -0.857   0.002  0.00  0.00    +0.050 A 
ATOM     29  C   UNL     1      -0.586  -2.187  -0.027  0.00  0.00    +0.013 A 
ATOM     30  C   UNL     1       0.757  -2.118  -0.042  0.00  0.00    +0.107 A 
ATOM     31  O   UNL     1       1.116  -0.824  -0.029  0.00  0.00    -0.465 OA
ATOM     32  C   UNL     1       1.700  -3.294  -0.073  0.00  0.00    +0.086 C 
ENDBRANCH  24  29
ENDBRANCH  20  24
ENDBRANCH   1  21
TORSDOF 6
