REMARK  Name = ZINC19619518
REMARK  7 active torsions:
REMARK  status: ('A' for Active; 'I' for Inactive)
REMARK    1  A    between atoms: C_1  and  C_2
REMARK    2  A    between atoms: C_5  and  N_12
REMARK    3  A    between atoms: C_7  and  S_8
REMARK    4  A    between atoms: S_8  and  N_11
REMARK    5  A    between atoms: C_13  and  C_15
REMARK    6  A    between atoms: C_15  and  O_16
REMARK    7  A    between atoms: O_16  and  C_17
REMARK                            x       y       z     vdW  Elec       q    Type
REMARK                         _______ _______ _______ _____ _____    ______ ____
ROOT
ATOM      1  N   UNL     1      -2.456   3.823   0.046  0.00  0.00    -0.283 N 
ATOM      2  C   UNL     1      -3.614   3.140  -0.048  0.00  0.00    +0.255 C 
ATOM      3  O   UNL     1      -3.604   1.927  -0.055  0.00  0.00    -0.272 OA
ATOM      4  H   UNL     1      -2.470   4.919   0.140  0.00  0.00    +0.155 HD
ENDROOT
BRANCH   1   9
ATOM      5  C   UNL     1       2.490   1.045  -0.039  0.00  0.00    +0.046 C 
ATOM      6  C   UNL     1       1.176   1.784  -0.017  0.00  0.00    -0.024 A 
ATOM      7  C   UNL     1       0.104   1.307  -0.750  0.00  0.00    +0.007 A 
ATOM      8  C   UNL     1      -1.099   1.984  -0.735  0.00  0.00    +0.024 A 
ATOM      9  C   UNL     1      -1.236   3.138   0.025  0.00  0.00    +0.035 A 
ATOM     10  C   UNL     1      -0.158   3.615   0.758  0.00  0.00    +0.052 A 
ATOM     11  C   UNL     1       1.045   2.936   0.736  0.00  0.00    +0.110 A 
BRANCH  11  12
ATOM     12  S   UNL     1       2.414   3.539   1.667  0.00  0.00    +0.056 S 
ATOM     13  O   UNL     1       3.530   3.553   0.786  0.00  0.00    -0.153 OA
ATOM     14  O   UNL     1       1.963   4.705   2.343  0.00  0.00    -0.153 OA
BRANCH  12  15
ATOM     15  N   UNL     1       2.747   2.413   2.834  0.00  0.00    -0.204 NA
ATOM     16  H   UNL     1       3.599   2.754   3.440  0.00  0.00    +0.144 HD
ATOM     17  H   UNL     1       2.996   1.454   2.358  0.00  0.00    +0.144 HD
ENDBRANCH  12  15
ENDBRANCH  11  12
ENDBRANCH   1   9
BRANCH   2  18
ATOM     18  C   UNL     1      -4.921   3.883  -0.144  0.00  0.00    +0.325 C 
BRANCH  18  19
ATOM     19  O   UNL     1      -5.997   2.946  -0.234  0.00  0.00    -0.480 OA
BRANCH  19  20
ATOM     20  C   UNL     1      -7.253   3.456  -0.328  0.00  0.00    +0.158 A 
ATOM     21  C   UNL     1      -7.991   3.703   0.822  0.00  0.00    +0.084 A 
ATOM     22  C   UNL     1      -9.267   4.227   0.723  0.00  0.00    +0.024 A 
ATOM     23  C   UNL     1      -9.812   4.493  -0.519  0.00  0.00    +0.003 A 
ATOM     24  C   UNL     1      -9.082   4.242  -1.666  0.00  0.00    +0.024 A 
ATOM     25  C   UNL     1      -7.803   3.724  -1.573  0.00  0.00    +0.084 A 
ATOM     26 CL   UNL     1      -6.887   3.408  -3.014  0.00  0.00    -0.080 Cl
ATOM     27 CL   UNL     1      -7.310   3.362   2.382  0.00  0.00    -0.080 Cl
ENDBRANCH  19  20
ENDBRANCH  18  19
ENDBRANCH   2  18
TORSDOF 6
