REMARK  Name = ZINC52943926
REMARK  5 active torsions:
REMARK  status: ('A' for Active; 'I' for Inactive)
REMARK    1  A    between atoms: C_1  and  C_2
REMARK    2  A    between atoms: C_5  and  O_23
REMARK    3  A    between atoms: C_6  and  C_8
REMARK    4  A    between atoms: C_8  and  C_10
REMARK    5  A    between atoms: O_23  and  C_24
REMARK                            x       y       z     vdW  Elec       q    Type
REMARK                         _______ _______ _______ _____ _____    ______ ____
ROOT
ATOM      1  C   UNL     1      -1.356  -3.219   2.872  0.00  0.00    -0.023 A 
ATOM      2  C   UNL     1      -2.068  -4.106   2.082  0.00  0.00    +0.007 A 
ATOM      3  C   UNL     1      -3.359  -4.459   2.421  0.00  0.00    +0.028 A 
ATOM      4  C   UNL     1      -3.946  -3.923   3.557  0.00  0.00    +0.067 A 
ATOM      5  C   UNL     1      -3.228  -3.028   4.354  0.00  0.00    +0.067 A 
ATOM      6  C   UNL     1      -1.930  -2.684   4.008  0.00  0.00    +0.033 A 
ATOM      7  N   UNL     1      -4.065  -2.667   5.407  0.00  0.00    -0.306 N 
ATOM      8  H   UNL     1      -3.842  -2.055   6.125  0.00  0.00    +0.170 HD
ATOM      9  C   UNL     1      -5.238  -3.312   5.257  0.00  0.00    +0.325 A 
ATOM     10  O   UNL     1      -6.190  -3.217   6.009  0.00  0.00    -0.247 OA
ATOM     11  N   UNL     1      -5.196  -4.077   4.151  0.00  0.00    -0.306 N 
ATOM     12  H   UNL     1      -5.915  -4.640   3.822  0.00  0.00    +0.170 HD
ENDROOT
BRANCH   1  13
ATOM     13  C   UNL     1       0.052  -2.841   2.493  0.00  0.00    +0.144 C 
ATOM     14 CL   UNL     1       1.046  -4.333   2.307  0.00  0.00    -0.112 Cl
BRANCH  13  20
ATOM     15  C   UNL     1      -0.018   1.503   0.010  0.00  0.00    +0.044 C 
ATOM     16  C   UNL     1       0.002  -0.004   0.002  0.00  0.00    -0.050 A 
ATOM     17  C   UNL     1       0.006  -0.688  -1.200  0.00  0.00    +0.007 A 
ATOM     18  C   UNL     1       0.024  -2.069  -1.210  0.00  0.00    +0.046 A 
ATOM     19  C   UNL     1       0.039  -2.770  -0.013  0.00  0.00    +0.125 A 
ATOM     20  C   UNL     1       0.036  -2.082   1.191  0.00  0.00    +0.016 A 
ATOM     21  C   UNL     1       0.023  -0.701   1.196  0.00  0.00    +0.012 A 
BRANCH  19  22
ATOM     22  O   UNL     1       0.057  -4.129  -0.021  0.00  0.00    -0.495 OA
ATOM     23  C   UNL     1       0.058  -4.771  -1.298  0.00  0.00    +0.277 C 
ENDBRANCH  19  22
ENDBRANCH  13  20
ENDBRANCH   1  13
TORSDOF 3
