REMARK  Name = ZINC58433026
REMARK  2 active torsions:
REMARK  status: ('A' for Active; 'I' for Inactive)
REMARK    1  A    between atoms: C_8  and  C_24
REMARK    2  A    between atoms: C_11  and  C_13
REMARK                            x       y       z     vdW  Elec       q    Type
REMARK                         _______ _______ _______ _____ _____    ______ ____
ROOT
ATOM      1  C   UNL     1      -0.075   1.528  -1.500  0.00  0.00    +0.000 A 
ATOM      2  C   UNL     1       0.927   2.179  -0.802  0.00  0.00    +0.002 A 
ATOM      3  C   UNL     1       2.132   1.551  -0.571  0.00  0.00    +0.024 A 
ATOM      4  C   UNL     1       2.351   0.254  -1.038  0.00  0.00    +0.041 A 
ATOM      5  C   UNL     1       1.341  -0.390  -1.736  0.00  0.00    -0.024 A 
ATOM      6  C   UNL     1       0.135   0.244  -1.966  0.00  0.00    +0.005 A 
ATOM      7  C   UNL     1       1.828  -1.767  -2.126  0.00  0.00    +0.069 C 
ATOM      8  C   UNL     1       3.257  -1.846  -1.564  0.00  0.00    +0.171 C 
ATOM      9  N   UNL     1       3.485  -0.553  -0.913  0.00  0.00    -0.255 N 
ATOM     10  C   UNL     1       4.622  -0.195  -0.284  0.00  0.00    +0.251 C 
ATOM     11  O   UNL     1       4.669   0.849   0.341  0.00  0.00    -0.270 OA
ENDROOT
BRANCH  10  12
ATOM     12  C   UNL     1       5.799  -1.059  -0.353  0.00  0.00    +0.052 C 
ATOM     13  C   UNL     1       7.043  -0.518  -0.347  0.00  0.00    +0.023 C 
ATOM     14  C   UNL     1       8.191  -1.433  -0.439  0.00  0.00    +0.019 A 
ATOM     15  C   UNL     1       9.481  -1.018  -0.111  0.00  0.00    +0.031 A 
ATOM     16  C   UNL     1      10.529  -1.911  -0.211  0.00  0.00    +0.042 A 
ATOM     17  C   UNL     1      10.303  -3.211  -0.635  0.00  0.00    +0.023 A 
ATOM     18  C   UNL     1       9.027  -3.633  -0.963  0.00  0.00    +0.048 A 
ATOM     19  C   UNL     1       7.965  -2.752  -0.868  0.00  0.00    +0.128 A 
ATOM     20  O   UNL     1       6.702  -3.135  -1.182  0.00  0.00    -0.487 OA
ATOM     21  C   UNL     1       5.636  -2.555  -0.425  0.00  0.00    +0.269 C 
ATOM     22 CL   UNL     1      12.139  -1.403   0.195  0.00  0.00    -0.084 Cl
ENDBRANCH  10  12
BRANCH   8  23
ATOM     23  C   UNL     1       4.247  -2.052  -2.681  0.00  0.00    +0.232 C 
ATOM     24  O   UNL     1       5.149  -1.259  -2.846  0.00  0.00    -0.274 OA
ATOM     25  N   UNL     1       4.131  -3.119  -3.496  0.00  0.00    -0.328 N 
ATOM     26  H   UNL     1       3.409  -3.754  -3.364  0.00  0.00    +0.145 HD
ATOM     27  H   UNL     1       4.768  -3.252  -4.215  0.00  0.00    +0.145 HD
ENDBRANCH   8  23
TORSDOF 2
