REMARK  Name = ZINC40233423
REMARK  5 active torsions:
REMARK  status: ('A' for Active; 'I' for Inactive)
REMARK    1  A    between atoms: C_3  and  N_9
REMARK    2  A    between atoms: C_10  and  C_12
REMARK    3  A    between atoms: C_15  and  C_17
REMARK    4  A    between atoms: C_18  and  C_19
REMARK    5  A    between atoms: C_19  and  O_20
REMARK                            x       y       z     vdW  Elec       q    Type
REMARK                         _______ _______ _______ _____ _____    ______ ____
ROOT
ATOM      1  N   UNL     1       3.583   2.127  -0.021  0.00  0.00    -0.280 N 
ATOM      2  C   UNL     1       3.566   3.471  -0.116  0.00  0.00    +0.255 C 
ATOM      3  O   UNL     1       2.506   4.069  -0.103  0.00  0.00    -0.269 OA
ATOM      4  H   UNL     1       4.428   1.656   0.049  0.00  0.00    +0.155 HD
ENDROOT
BRANCH   1   7
ATOM      5  C   UNL     1       0.065   1.242  -0.621  0.00  0.00    +0.003 A 
ATOM      6  C   UNL     1       1.250   1.952  -0.619  0.00  0.00    +0.025 A 
ATOM      7  C   UNL     1       2.382   1.410  -0.024  0.00  0.00    +0.054 A 
ATOM      8  C   UNL     1       2.319   0.154   0.568  0.00  0.00    +0.080 A 
ATOM      9  C   UNL     1       1.129  -0.551   0.562  0.00  0.00    +0.061 A 
ATOM     10  C   UNL     1       0.004  -0.007  -0.032  0.00  0.00    +0.021 A 
ATOM     11 CL   UNL     1       1.048  -2.120   1.300  0.00  0.00    -0.082 Cl
ATOM     12 CL   UNL     1       3.731  -0.528   1.312  0.00  0.00    -0.080 Cl
ENDBRANCH   1   7
BRANCH   2  13
ATOM     13  C   UNL     1       4.823   4.213  -0.235  0.00  0.00    +0.075 A 
ATOM     14  C   UNL     1       5.021   5.583  -0.337  0.00  0.00    +0.022 A 
ATOM     15  C   UNL     1       6.298   6.056  -0.439  0.00  0.00    +0.025 A 
ATOM     16  C   UNL     1       7.348   5.147  -0.436  0.00  0.00    +0.063 A 
ATOM     17  S   UNL     1       6.495   3.587  -0.278  0.00  0.00    -0.075 S 
BRANCH  16  18
ATOM     18  C   UNL     1       8.755   5.398  -0.532  0.00  0.00    -0.057 C 
ATOM     19  C   UNL     1       9.908   5.603  -0.610  0.00  0.00    -0.069 C 
BRANCH  19  20
ATOM     20  C   UNL     1      11.354   5.861  -0.707  0.00  0.00    +0.244 C 
BRANCH  20  21
ATOM     21  O   UNL     1      12.063   4.620  -0.663  0.00  0.00    -0.383 OA
ATOM     22  H   UNL     1      13.023   4.714  -0.723  0.00  0.00    +0.211 HD
ENDBRANCH  20  21
ENDBRANCH  19  20
ENDBRANCH  16  18
ENDBRANCH   2  13
TORSDOF 5
