REMARK  Name = ZINC12648297
REMARK  5 active torsions:
REMARK  status: ('A' for Active; 'I' for Inactive)
REMARK    1  A    between atoms: C_3  and  C_14
REMARK    2  A    between atoms: C_6  and  C_7
REMARK    3  A    between atoms: C_19  and  C_21
REMARK    4  A    between atoms: C_21  and  O_22
REMARK    5  A    between atoms: O_22  and  C_23
REMARK                            x       y       z     vdW  Elec       q    Type
REMARK                         _______ _______ _______ _____ _____    ______ ____
ROOT
ATOM      1  C   UNL     1       3.680  -2.386   0.205  0.00  0.00    +0.022 C 
ATOM      2  C   UNL     1       3.142  -3.341  -0.865  0.00  0.00    -0.011 C 
ATOM      3  C   UNL     1       3.798  -3.015  -2.209  0.00  0.00    -0.082 C 
ATOM      4  C   UNL     1       4.050  -0.686  -1.586  0.00  0.00    -0.075 C 
ATOM      5  C   UNL     1       3.402  -0.943  -0.224  0.00  0.00    +0.017 C 
ATOM      6  N   UNL     1       3.495  -1.620  -2.585  0.00  0.00    +0.379 N 
ATOM      7  H   UNL     1       2.477  -1.497  -2.635  0.00  0.00    -0.086 HD
ATOM      8  H   UNL     1       3.910  -1.420  -3.502  0.00  0.00    -0.086 HD
ENDROOT
BRANCH   1  11
ATOM      9  C   UNL     1       1.008  -3.202   2.741  0.00  0.00    +0.009 A 
ATOM     10  C   UNL     1       1.641  -2.948   1.541  0.00  0.00    +0.004 A 
ATOM     11  C   UNL     1       2.994  -2.663   1.518  0.00  0.00    -0.044 A 
ATOM     12  C   UNL     1       3.721  -2.636   2.694  0.00  0.00    +0.004 A 
ATOM     13  C   UNL     1       3.097  -2.884   3.900  0.00  0.00    +0.009 A 
ATOM     14  C   UNL     1       1.734  -3.171   3.930  0.00  0.00    -0.018 A 
BRANCH  14  15
ATOM     15  C   UNL     1       1.058  -3.443   5.223  0.00  0.00    -0.018 A 
ATOM     16  C   UNL     1      -0.306  -3.724   5.252  0.00  0.00    +0.011 A 
ATOM     17  C   UNL     1      -0.929  -3.983   6.456  0.00  0.00    +0.039 A 
ATOM     18  C   UNL     1      -0.202  -3.951   7.635  0.00  0.00    +0.123 A 
ATOM     19  C   UNL     1       1.153  -3.666   7.611  0.00  0.00    +0.039 A 
ATOM     20  C   UNL     1       1.786  -3.413   6.411  0.00  0.00    +0.011 A 
ATOM     21  F   UNL     1      -0.818  -4.199   8.812  0.00  0.00    -0.205 F 
ENDBRANCH  14  15
ENDBRANCH   1  11
BRANCH   5  22
ATOM     22  C   UNL     1       1.891  -0.723  -0.327  0.00  0.00    +0.231 C 
BRANCH  22  23
ATOM     23  O   UNL     1       1.631   0.636  -0.684  0.00  0.00    -0.492 OA
BRANCH  23  24
ATOM     24  C   UNL     1       0.328   1.001  -0.818  0.00  0.00    +0.124 A 
ATOM     25  C   UNL     1      -0.678   0.068  -0.610  0.00  0.00    +0.049 A 
ATOM     26  C   UNL     1      -2.003   0.435  -0.751  0.00  0.00    +0.053 A 
ATOM     27  C   UNL     1      -2.331   1.737  -1.089  0.00  0.00    +0.166 A 
ATOM     28  C   UNL     1      -1.323   2.675  -1.299  0.00  0.00    +0.170 A 
ATOM     29  C   UNL     1       0.004   2.304  -1.163  0.00  0.00    +0.095 A 
ATOM     30  O   UNL     1      -1.899   3.870  -1.624  0.00  0.00    -0.452 OA
ATOM     31  C   UNL     1      -3.274   3.758  -1.212  0.00  0.00    +0.466 C 
ATOM     32  O   UNL     1      -3.539   2.345  -1.283  0.00  0.00    -0.453 OA
ENDBRANCH  23  24
ENDBRANCH  22  23
ENDBRANCH   5  22
TORSDOF 5
