REMARK  Name = ZINC13012590
REMARK  6 active torsions:
REMARK  status: ('A' for Active; 'I' for Inactive)
REMARK    1  A    between atoms: C_3  and  C_6
REMARK    2  A    between atoms: C_6  and  C_8
REMARK    3  A    between atoms: C_6  and  N_15
REMARK    4  A    between atoms: N_18  and  C_19
REMARK    5  A    between atoms: C_22  and  S_25
REMARK    6  A    between atoms: S_25  and  N_28
REMARK                            x       y       z     vdW  Elec       q    Type
REMARK                         _______ _______ _______ _____ _____    ______ ____
ROOT
ATOM      1  N   UNL     1       2.515   3.861  -0.888  0.00  0.00    -0.288 N 
ATOM      2  C   UNL     1       2.293   4.025  -2.208  0.00  0.00    +0.305 C 
ATOM      3  O   UNL     1       1.168   3.909  -2.654  0.00  0.00    -0.252 OA
ATOM      4  N   UNL     1       3.318   4.318  -3.032  0.00  0.00    -0.269 N 
ATOM      5  H   UNL     1       3.413   3.954  -0.533  0.00  0.00    +0.151 HD
ATOM      6  H   UNL     1       4.203   4.477  -2.669  0.00  0.00    +0.156 HD
ENDROOT
BRANCH   4   7
ATOM      7  C   UNL     1       3.105   4.393  -4.414  0.00  0.00    +0.035 A 
ATOM      8  C   UNL     1       4.097   3.979  -5.294  0.00  0.00    +0.025 A 
ATOM      9  C   UNL     1       3.882   4.050  -6.656  0.00  0.00    +0.030 A 
ATOM     10  C   UNL     1       2.685   4.542  -7.144  0.00  0.00    +0.105 A 
ATOM     11  C   UNL     1       1.698   4.959  -6.271  0.00  0.00    +0.030 A 
ATOM     12  C   UNL     1       1.905   4.886  -4.907  0.00  0.00    +0.025 A 
BRANCH  10  13
ATOM     13  S   UNL     1       2.417   4.636  -8.883  0.00  0.00    +0.056 S 
ATOM     14  O   UNL     1       3.279   3.676  -9.479  0.00  0.00    -0.153 OA
ATOM     15  O   UNL     1       1.010   4.621  -9.079  0.00  0.00    -0.153 OA
BRANCH  13  16
ATOM     16  N   UNL     1       2.949   6.123  -9.381  0.00  0.00    -0.204 NA
ATOM     17  H   UNL     1       3.299   6.238 -10.278  0.00  0.00    +0.144 HD
ATOM     18  H   UNL     1       2.910   6.880  -8.775  0.00  0.00    +0.144 HD
ENDBRANCH  13  16
ENDBRANCH  10  13
ENDBRANCH   4   7
BRANCH   1  19
ATOM     19  C   UNL     1       1.401   3.543   0.008  0.00  0.00    +0.142 C 
BRANCH  19  20
ATOM     20  C   UNL     1       1.734   4.000   1.405  0.00  0.00    -0.022 A 
ATOM     21  C   UNL     1       3.013   3.829   1.902  0.00  0.00    +0.008 A 
ATOM     22  C   UNL     1       3.320   4.253   3.181  0.00  0.00    +0.038 A 
ATOM     23  C   UNL     1       2.344   4.840   3.968  0.00  0.00    +0.123 A 
ATOM     24  C   UNL     1       1.063   5.005   3.472  0.00  0.00    +0.038 A 
ATOM     25  C   UNL     1       0.759   4.586   2.191  0.00  0.00    +0.008 A 
ATOM     26  F   UNL     1       2.643   5.250   5.221  0.00  0.00    -0.205 F 
ENDBRANCH  19  20
BRANCH  19  29
ATOM     27  C   UNL     1       0.022  -0.008   0.018  0.00  0.00    +0.008 A 
ATOM     28  C   UNL     1      -0.005   1.374   0.019  0.00  0.00    +0.013 A 
ATOM     29  C   UNL     1       1.168   2.054   0.010  0.00  0.00    +0.014 A 
ATOM     30  S   UNL     1       2.363   0.728  -0.001  0.00  0.00    -0.099 S 
ATOM     31  C   UNL     1       1.220  -0.642   0.008  0.00  0.00    +0.045 A 
ENDBRANCH  19  29
ENDBRANCH   1  19
TORSDOF 6
