REMARK  Name = ZINC38692860
REMARK  7 active torsions:
REMARK  status: ('A' for Active; 'I' for Inactive)
REMARK    1  A    between atoms: C_1  and  C_2
REMARK    2  A    between atoms: N_4  and  C_5
REMARK    3  A    between atoms: C_8  and  S_11
REMARK    4  A    between atoms: S_11  and  N_14
REMARK    5  A    between atoms: N_14  and  C_15
REMARK    6  A    between atoms: N_21  and  S_25
REMARK    7  A    between atoms: S_25  and  C_28
REMARK                            x       y       z     vdW  Elec       q    Type
REMARK                         _______ _______ _______ _____ _____    ______ ____
ROOT
ATOM      1  N   UNL     1      -2.585  -7.273  -0.719  0.00  0.00    -0.216 N 
ATOM      2  H   UNL     1      -2.993  -7.793  -0.009  0.00  0.00    +0.174 HD
ENDROOT
BRANCH   1   3
ATOM      3  C   UNL     1      -3.253  -7.106  -1.934  0.00  0.00    +0.050 A 
ATOM      4  C   UNL     1      -3.313  -5.852  -2.530  0.00  0.00    +0.025 A 
ATOM      5  C   UNL     1      -3.975  -5.688  -3.730  0.00  0.00    +0.007 A 
ATOM      6  C   UNL     1      -4.583  -6.768  -4.349  0.00  0.00    -0.025 A 
ATOM      7  C   UNL     1      -4.523  -8.021  -3.759  0.00  0.00    +0.056 A 
ATOM      8  C   UNL     1      -3.855  -8.192  -2.552  0.00  0.00    +0.049 A 
ATOM      9  N   UNL     1      -5.121  -9.130  -4.367  0.00  0.00    -0.207 N 
ATOM     10  C   UNL     1      -6.064  -8.912  -5.472  0.00  0.00    +0.131 C 
ATOM     11  C   UNL     1      -5.450  -7.866  -6.413  0.00  0.00    +0.025 C 
ATOM     12  C   UNL     1      -5.301  -6.548  -5.655  0.00  0.00    +0.038 C 
BRANCH   9  13
ATOM     13  S   UNL     1      -4.770 -10.664  -3.851  0.00  0.00    +0.043 S 
ATOM     14  O   UNL     1      -5.172 -11.508  -4.921  0.00  0.00    -0.155 OA
ATOM     15  O   UNL     1      -3.410 -10.608  -3.444  0.00  0.00    -0.155 OA
ATOM     16  C   UNL     1      -5.842 -10.928  -2.412  0.00  0.00    +0.218 C 
ENDBRANCH   9  13
ENDBRANCH   1   3
BRANCH   1  17
ATOM     17  S   UNL     1      -1.097  -6.583  -0.490  0.00  0.00    +0.072 S 
ATOM     18  O   UNL     1      -0.658  -6.982   0.801  0.00  0.00    -0.150 OA
ATOM     19  O   UNL     1      -1.221  -5.218  -0.864  0.00  0.00    -0.150 OA
BRANCH  17  23
ATOM     20  C   UNL     1       1.734  -8.489  -3.467  0.00  0.00    +0.033 A 
ATOM     21  C   UNL     1       1.109  -7.287  -3.772  0.00  0.00    +0.025 A 
ATOM     22  C   UNL     1       0.246  -6.708  -2.862  0.00  0.00    +0.030 A 
ATOM     23  C   UNL     1       0.004  -7.325  -1.649  0.00  0.00    +0.109 A 
ATOM     24  C   UNL     1       0.625  -8.521  -1.341  0.00  0.00    +0.030 A 
ATOM     25  C   UNL     1       1.484  -9.108  -2.249  0.00  0.00    +0.025 A 
BRANCH  20  29
ATOM     26  C   UNL     1       3.524 -11.051  -5.565  0.00  0.00    +0.109 C 
ATOM     27  C   UNL     1       2.660 -10.420  -4.504  0.00  0.00    +0.214 C 
ATOM     28  O   UNL     1       2.012 -11.119  -3.755  0.00  0.00    -0.276 OA
ATOM     29  N   UNL     1       2.609  -9.078  -4.387  0.00  0.00    -0.286 N 
ATOM     30  H   UNL     1       3.178  -8.521  -4.940  0.00  0.00    +0.155 HD
ENDBRANCH  20  29
ENDBRANCH  17  23
ENDBRANCH   1  17
TORSDOF 5
