REMARK  Name = ZINC39504018
REMARK  4 active torsions:
REMARK  status: ('A' for Active; 'I' for Inactive)
REMARK    1  A    between atoms: C_1  and  O_2
REMARK    2  A    between atoms: O_2  and  N_3
REMARK    3  A    between atoms: C_5  and  O_15
REMARK    4  A    between atoms: C_11  and  O_14
REMARK                            x       y       z     vdW  Elec       q    Type
REMARK                         _______ _______ _______ _____ _____    ______ ____
ROOT
ATOM      1  N   UNL     1      -1.326  -0.617   0.011  0.00  0.00    -0.180 NA
ATOM      2  C   UNL     1      -1.511  -1.463   1.212  0.00  0.00    +0.146 C 
ATOM      3  C   UNL     1      -2.410  -2.633   0.737  0.00  0.00    +0.133 C 
ATOM      4  C   UNL     1      -1.881  -2.873  -0.703  0.00  0.00    +0.057 C 
ATOM      5  C   UNL     1      -1.528  -1.454  -1.179  0.00  0.00    +0.052 C 
ATOM      6  C   UNL     1      -2.653  -0.891  -2.056  0.00  0.00    +0.027 C 
ATOM      7  C   UNL     1      -2.024  -0.599  -3.436  0.00  0.00    +0.033 C 
ATOM      8  C   UNL     1      -0.514  -0.422  -3.136  0.00  0.00    +0.116 C 
ATOM      9  C   UNL     1      -0.255  -1.486  -2.039  0.00  0.00    +0.056 C 
ENDROOT
BRANCH   1  11
ATOM     10  C   UNL     1      -0.017   1.425   0.010  0.00  0.00    +0.221 C 
ATOM     11  O   UNL     1       0.002  -0.004   0.002  0.00  0.00    -0.300 OA
ENDBRANCH   1  11
BRANCH   8  12
ATOM     12  O   UNL     1       0.268  -0.691  -4.302  0.00  0.00    -0.392 OA
ATOM     13  H   UNL     1       0.084  -0.099  -5.044  0.00  0.00    +0.210 HD
ENDBRANCH   8  12
BRANCH   3  14
ATOM     14  O   UNL     1      -2.217  -3.790   1.553  0.00  0.00    -0.390 OA
ATOM     15  H   UNL     1      -2.445  -3.657   2.484  0.00  0.00    +0.210 HD
ENDBRANCH   3  14
TORSDOF 3
