REMARK  Name = ZINC42191751
REMARK  4 active torsions:
REMARK  status: ('A' for Active; 'I' for Inactive)
REMARK    1  A    between atoms: C_8  and  O_22
REMARK    2  A    between atoms: C_10  and  N_12
REMARK    3  A    between atoms: N_12  and  S_13
REMARK    4  A    between atoms: S_13  and  C_16
REMARK                            x       y       z     vdW  Elec       q    Type
REMARK                         _______ _______ _______ _____ _____    ______ ____
ROOT
ATOM      1  C   UNL     1       0.221   1.833   0.222  0.00  0.00    +0.000 A 
ATOM      2  C   UNL     1       1.471   2.424   0.235  0.00  0.00    +0.000 A 
ATOM      3  C   UNL     1       2.605   1.639   0.169  0.00  0.00    +0.005 A 
ATOM      4  C   UNL     1       2.495   0.260   0.089  0.00  0.00    -0.023 A 
ATOM      5  C   UNL     1       1.245  -0.330   0.075  0.00  0.00    -0.040 A 
ATOM      6  C   UNL     1       0.109   0.459   0.142  0.00  0.00    +0.004 A 
ATOM      7  C   UNL     1       1.391  -1.834  -0.017  0.00  0.00    +0.068 C 
ATOM      8  C   UNL     1       2.839  -2.071  -0.498  0.00  0.00    +0.142 C 
ATOM      9  C   UNL     1       3.566  -0.806   0.007  0.00  0.00    +0.135 C 
ENDROOT
BRANCH   9  10
ATOM     10  N   UNL     1       4.146  -1.047   1.330  0.00  0.00    -0.180 NA
ATOM     11  H   UNL     1       3.585  -1.007   2.120  0.00  0.00    +0.149 HD
BRANCH  10  12
ATOM     12  S   UNL     1       5.760  -1.387   1.477  0.00  0.00    +0.065 S 
ATOM     13  O   UNL     1       6.018  -1.540   2.866  0.00  0.00    -0.153 OA
ATOM     14  O   UNL     1       6.048  -2.408   0.532  0.00  0.00    -0.153 OA
BRANCH  12  15
ATOM     15  C   UNL     1       6.644   0.045   0.956  0.00  0.00    +0.144 A 
ATOM     16  C   UNL     1       7.126   1.069   1.701  0.00  0.00    +0.038 A 
ATOM     17  C   UNL     1       7.797   2.100   1.071  0.00  0.00    +0.030 A 
ATOM     18  C   UNL     1       7.952   2.057  -0.276  0.00  0.00    +0.080 A 
ATOM     19  S   UNL     1       7.143   0.520  -0.691  0.00  0.00    -0.057 S 
ATOM     20 CL   UNL     1       8.739   3.196  -1.323  0.00  0.00    -0.076 Cl
ENDBRANCH  12  15
ENDBRANCH  10  12
ENDBRANCH   9  10
BRANCH   8  21
ATOM     21  O   UNL     1       2.893  -2.159  -1.923  0.00  0.00    -0.390 OA
ATOM     22  H   UNL     1       2.379  -2.890  -2.292  0.00  0.00    +0.210 HD
ENDBRANCH   8  21
TORSDOF 4
