REMARK  Name = ZINC17194549
REMARK  3 active torsions:
REMARK  status: ('A' for Active; 'I' for Inactive)
REMARK    1  A    between atoms: C_1  and  C_2
REMARK    2  A    between atoms: C_6  and  N_8
REMARK    3  A    between atoms: C_11  and  C_17
REMARK                            x       y       z     vdW  Elec       q    Type
REMARK                         _______ _______ _______ _____ _____    ______ ____
ROOT
ATOM      1  N   UNL     1       1.183  -0.652  -0.013  0.00  0.00    -0.256 N 
ATOM      2  C   UNL     1       0.106   0.001  -0.491  0.00  0.00    +0.265 A 
ATOM      3  O   UNL     1      -0.845  -0.623  -0.929  0.00  0.00    -0.267 OA
ATOM      4  C   UNL     1       0.087   1.407  -0.481  0.00  0.00    +0.072 A 
ATOM      5  C   UNL     1       1.163   2.080   0.015  0.00  0.00    +0.258 A 
ATOM      6  N   UNL     1       2.240   1.376   0.491  0.00  0.00    -0.302 N 
ATOM      7  C   UNL     1       2.236   0.031   0.472  0.00  0.00    +0.168 A 
ATOM      8  S   UNL     1       3.592  -0.824   1.074  0.00  0.00    -0.012 S 
ATOM      9  O   UNL     1       1.171   3.430   0.035  0.00  0.00    -0.267 OA
ATOM     10  H   UNL     1       3.113   1.911   0.892  0.00  0.00    +0.171 HD
ENDROOT
BRANCH   4  11
ATOM     11  C   UNL     1      -1.105   2.158  -1.016  0.00  0.00    +0.001 C 
ATOM     12  C   UNL     1      -2.302   1.878  -0.146  0.00  0.00    -0.054 A 
ATOM     13  C   UNL     1      -2.129   1.862   1.230  0.00  0.00    +0.002 A 
ATOM     14  C   UNL     1      -3.199   1.612   2.065  0.00  0.00    +0.000 A 
ATOM     15  C   UNL     1      -4.451   1.378   1.528  0.00  0.00    +0.000 A 
ATOM     16  C   UNL     1      -4.624   1.400   0.167  0.00  0.00    +0.004 A 
ATOM     17  C   UNL     1      -3.550   1.645  -0.675  0.00  0.00    -0.047 A 
ATOM     18  C   UNL     1      -3.789   1.643  -2.163  0.00  0.00    +0.016 C 
ATOM     19  C   UNL     1      -2.624   2.325  -2.881  0.00  0.00    -0.077 C 
ATOM     20  N   UNL     1      -1.367   1.733  -2.395  0.00  0.00    +0.387 N 
ATOM     21  H   UNL     1      -0.541   2.061  -3.043  0.00  0.00    -0.085 HD
ATOM     22  H   UNL     1      -1.448   0.636  -2.432  0.00  0.00    -0.085 HD
ENDBRANCH   4  11
BRANCH   1  28
ATOM     23  C   UNL     1       2.293  -4.854  -2.315  0.00  0.00    +0.044 C 
ATOM     24  C   UNL     1       1.740  -4.114  -1.124  0.00  0.00    -0.048 A 
ATOM     25  C   UNL     1       1.257  -4.819  -0.037  0.00  0.00    +0.003 A 
ATOM     26  C   UNL     1       0.749  -4.145   1.058  0.00  0.00    +0.002 A 
ATOM     27  C   UNL     1       0.728  -2.764   1.071  0.00  0.00    +0.026 A 
ATOM     28  C   UNL     1       1.208  -2.053  -0.021  0.00  0.00    +0.052 A 
ATOM     29  C   UNL     1       1.717  -2.734  -1.119  0.00  0.00    +0.029 A 
ENDBRANCH   1  28
TORSDOF 2
