REMARK  Name = ZINC39669304
REMARK  4 active torsions:
REMARK  status: ('A' for Active; 'I' for Inactive)
REMARK    1  A    between atoms: C_4  and  C_8
REMARK    2  A    between atoms: C_12  and  C_21
REMARK    3  A    between atoms: N_23  and  C_24
REMARK    4  A    between atoms: C_24  and  C_25
REMARK                            x       y       z     vdW  Elec       q    Type
REMARK                         _______ _______ _______ _____ _____    ______ ____
ROOT
ATOM      1  C   UNL     1       3.817  -0.790  -0.005  0.00  0.00    +0.249 C 
ATOM      2  O   UNL     1       4.407  -1.055   1.024  0.00  0.00    -0.270 OA
ATOM      3  N   UNL     1       4.383  -1.065  -1.197  0.00  0.00    -0.296 N 
ATOM      4  C   UNL     1       3.826  -0.811  -2.547  0.00  0.00    +0.121 C 
ATOM      5  C   UNL     1       5.035  -0.340  -3.385  0.00  0.00    +0.100 C 
ATOM      6  C   UNL     1       6.263  -0.921  -2.664  0.00  0.00    -0.004 C 
ATOM      7  C   UNL     1       5.705  -1.684  -1.454  0.00  0.00    +0.115 C 
ATOM      8  C   UNL     1       7.181   0.203  -2.194  0.00  0.00    -0.010 C 
ATOM      9  C   UNL     1       8.422  -0.401  -1.531  0.00  0.00    -0.082 C 
ATOM     10  N   UNL     1       9.122  -1.262  -2.492  0.00  0.00    +0.379 N 
ATOM     11  C   UNL     1       8.265  -2.393  -2.868  0.00  0.00    -0.082 C 
ATOM     12  C   UNL     1       7.017  -1.873  -3.588  0.00  0.00    -0.010 C 
ATOM     13  H   UNL     1       9.352  -0.727  -3.316  0.00  0.00    -0.086 HD
ATOM     14  H   UNL     1       9.971  -1.611  -2.073  0.00  0.00    -0.086 HD
ENDROOT
BRANCH   1  18
ATOM     15  C   UNL     1      -0.030   1.004   0.155  0.00  0.00    +0.003 A 
ATOM     16  C   UNL     1       1.100   1.802   0.119  0.00  0.00    +0.021 A 
ATOM     17  C   UNL     1       2.354   1.226   0.067  0.00  0.00    +0.054 A 
ATOM     18  C   UNL     1       2.479  -0.166   0.051  0.00  0.00    +0.073 A 
ATOM     19  C   UNL     1       1.333  -0.965   0.088  0.00  0.00    +0.054 A 
ATOM     20  C   UNL     1       0.086  -0.374   0.139  0.00  0.00    +0.021 A 
ATOM     21 CL   UNL     1       1.476  -2.695   0.067  0.00  0.00    -0.083 Cl
ATOM     22 CL   UNL     1       3.770   2.228   0.022  0.00  0.00    -0.083 Cl
ENDBRANCH   1  18
BRANCH   5  23
ATOM     23  C   UNL     1       4.943  -0.882  -4.789  0.00  0.00    +0.218 C 
ATOM     24  O   UNL     1       4.405  -1.949  -4.993  0.00  0.00    -0.275 OA
ATOM     25  N   UNL     1       5.460  -0.180  -5.817  0.00  0.00    -0.315 N 
ATOM     26  H   UNL     1       5.890   0.674  -5.654  0.00  0.00    +0.149 HD
BRANCH  25  27
ATOM     27  C   UNL     1       5.370  -0.706  -7.181  0.00  0.00    +0.109 C 
BRANCH  27  28
ATOM     28  C   UNL     1       6.028   0.278  -8.152  0.00  0.00    +0.024 C 
ATOM     29  C   UNL     1       5.827  -0.210  -9.588  0.00  0.00    +0.008 C 
ATOM     30  C   UNL     1       6.456   0.789 -10.561  0.00  0.00    +0.019 C 
ATOM     31  C   UNL     1       7.960   0.884 -10.288  0.00  0.00    +0.108 C 
ATOM     32  N   UNL     1       8.164   1.212  -8.871  0.00  0.00    -0.299 N 
ATOM     33  C   UNL     1       7.527   0.367  -7.851  0.00  0.00    +0.113 C 
ATOM     34  C   UNL     1       8.942   2.296  -8.502  0.00  0.00    +0.218 A 
ATOM     35  N   UNL     1       9.112   2.562  -7.215  0.00  0.00    -0.223 NA
ATOM     36  C   UNL     1       9.849   3.590  -6.830  0.00  0.00    +0.116 A 
ATOM     37  C   UNL     1      10.447   4.391  -7.789  0.00  0.00    +0.039 A 
ATOM     38  C   UNL     1      10.249   4.084  -9.126  0.00  0.00    +0.116 A 
ATOM     39  N   UNL     1       9.504   3.039  -9.444  0.00  0.00    -0.223 NA
ENDBRANCH  27  28
ENDBRANCH  25  27
ENDBRANCH   5  23
TORSDOF 4
