REMARK  Name = ZINC49234823
REMARK  5 active torsions:
REMARK  status: ('A' for Active; 'I' for Inactive)
REMARK    1  A    between atoms: C_1  and  C_2
REMARK    2  A    between atoms: C_2  and  C_4
REMARK    3  A    between atoms: C_2  and  N_10
REMARK    4  A    between atoms: C_4  and  N_5
REMARK    5  A    between atoms: C_12  and  N_18
REMARK                            x       y       z     vdW  Elec       q    Type
REMARK                         _______ _______ _______ _____ _____    ______ ____
ROOT
ATOM      1  N   UNL     1       0.688  -0.476  -1.203  0.00  0.00    -0.323 N 
ATOM      2  C   UNL     1      -0.017  -0.613  -2.397  0.00  0.00    +0.140 A 
ATOM      3  C   UNL     1       0.641  -1.069  -3.543  0.00  0.00    +0.066 A 
ATOM      4  C   UNL     1      -0.076  -1.199  -4.724  0.00  0.00    +0.043 A 
ATOM      5  C   UNL     1      -1.425  -0.868  -4.719  0.00  0.00    +0.038 A 
ATOM      6  C   UNL     1      -2.008  -0.423  -3.549  0.00  0.00    +0.128 A 
ATOM      7  N   UNL     1      -1.304  -0.314  -2.437  0.00  0.00    -0.238 NA
ATOM      8 BR   UNL     1      -2.452  -1.024  -6.299  0.00  0.00    -0.049 Br
ATOM      9  H   UNL     1       1.632  -0.695  -1.170  0.00  0.00    +0.148 HD
ENDROOT
BRANCH   3  10
ATOM     10  N   UNL     1       2.003  -1.390  -3.499  0.00  0.00    -0.355 N 
ATOM     11  H   UNL     1       2.498  -1.297  -2.669  0.00  0.00    +0.142 HD
ATOM     12  H   UNL     1       2.453  -1.707  -4.298  0.00  0.00    +0.142 HD
ENDBRANCH   3  10
BRANCH   1  14
ATOM     13  C   UNL     1      -0.019   1.526   0.010  0.00  0.00    +0.029 C 
ATOM     14  C   UNL     1       0.002  -0.004   0.002  0.00  0.00    +0.088 C 
BRANCH  14  15
ATOM     15  C   UNL     1       0.742  -0.511   1.242  0.00  0.00    +0.144 C 
BRANCH  15  16
ATOM     16  N   UNL     1       0.659  -1.972   1.296  0.00  0.00    -0.337 N 
ATOM     17  C   UNL     1      -0.320  -2.708   1.907  0.00  0.00    +0.104 A 
ATOM     18  C   UNL     1      -0.010  -4.005   1.716  0.00  0.00    +0.101 A 
ATOM     19  N   UNL     1       1.127  -4.059   1.008  0.00  0.00    -0.352 N 
ATOM     20  C   UNL     1       1.531  -2.846   0.748  0.00  0.00    +0.173 A 
ATOM     21  H   UNL     1       1.577  -4.872   0.729  0.00  0.00    +0.166 HD
ENDBRANCH  15  16
ENDBRANCH  14  15
ENDBRANCH   1  14
TORSDOF 4
