REMARK  Name = ZINC51171085
REMARK  6 active torsions:
REMARK  status: ('A' for Active; 'I' for Inactive)
REMARK    1  A    between atoms: C_3  and  C_8
REMARK    2  A    between atoms: C_5  and  N_7
REMARK    3  A    between atoms: C_8  and  N_9
REMARK    4  A    between atoms: N_9  and  C_10
REMARK    5  A    between atoms: C_10  and  C_11
REMARK    6  A    between atoms: C_14  and  C_16
REMARK                            x       y       z     vdW  Elec       q    Type
REMARK                         _______ _______ _______ _____ _____    ______ ____
ROOT
ATOM      1  N   UNL     1       4.072   2.509   1.464  0.00  0.00    -0.284 N 
ATOM      2  C   UNL     1       3.742   3.748   1.878  0.00  0.00    +0.254 C 
ATOM      3  O   UNL     1       2.970   4.423   1.223  0.00  0.00    -0.269 OA
ENDROOT
BRANCH   2   4
ATOM      4  C   UNL     1       4.313   4.283   3.116  0.00  0.00    +0.075 A 
ATOM      5  C   UNL     1       4.021   5.469   3.772  0.00  0.00    +0.022 A 
ATOM      6  C   UNL     1       4.729   5.703   4.927  0.00  0.00    +0.028 A 
ATOM      7  C   UNL     1       5.640   4.785   5.338  0.00  0.00    +0.079 A 
ATOM      8  S   UNL     1       5.560   3.575   4.176  0.00  0.00    -0.072 S 
ATOM      9 CL   UNL     1       6.653   4.845   6.747  0.00  0.00    -0.076 Cl
ENDBRANCH   2   4
BRANCH   1  10
ATOM     10  C   UNL     1       3.596   2.019   0.168  0.00  0.00    +0.143 C 
BRANCH  10  13
ATOM     11  C   UNL     1      -0.127   1.432   0.406  0.00  0.00    +0.002 A 
ATOM     12  C   UNL     1       1.095   2.058   0.242  0.00  0.00    +0.005 A 
ATOM     13  C   UNL     1       2.267   1.332   0.347  0.00  0.00    -0.028 A 
ATOM     14  C   UNL     1       2.220  -0.022   0.616  0.00  0.00    +0.028 A 
ATOM     15  C   UNL     1       0.995  -0.654   0.781  0.00  0.00    +0.025 A 
ATOM     16  C   UNL     1      -0.181   0.079   0.674  0.00  0.00    +0.023 A 
BRANCH  15  17
ATOM     17  N   UNL     1       0.944  -2.023   1.052  0.00  0.00    -0.358 N 
ATOM     18  H   UNL     1       1.766  -2.534   1.126  0.00  0.00    +0.142 HD
ATOM     19  H   UNL     1       0.087  -2.463   1.167  0.00  0.00    +0.142 HD
ENDBRANCH  15  17
ENDBRANCH  10  13
ENDBRANCH   1  10
BRANCH   1  20
ATOM     20  C   UNL     1       4.905   1.651   2.310  0.00  0.00    +0.203 C 
BRANCH  20  21
ATOM     21  C   UNL     1       6.359   1.953   2.053  0.00  0.00    +0.228 C 
ATOM     22  O   UNL     1       6.669   2.800   1.242  0.00  0.00    -0.274 OA
ATOM     23  N   UNL     1       7.316   1.280   2.723  0.00  0.00    -0.328 N 
ATOM     24  H   UNL     1       7.069   0.603   3.372  0.00  0.00    +0.145 HD
ATOM     25  H   UNL     1       8.252   1.474   2.558  0.00  0.00    +0.145 HD
ENDBRANCH  20  21
ENDBRANCH   1  20
TORSDOF 6
