REMARK  Name = ZINC22145361
REMARK  5 active torsions:
REMARK  status: ('A' for Active; 'I' for Inactive)
REMARK    1  A    between atoms: C_1  and  O_2
REMARK    2  A    between atoms: O_2  and  C_3
REMARK    3  A    between atoms: C_5  and  N_20
REMARK    4  A    between atoms: C_8  and  N_9
REMARK    5  A    between atoms: N_12  and  C_13
REMARK                            x       y       z     vdW  Elec       q    Type
REMARK                         _______ _______ _______ _____ _____    ______ ____
ROOT
ATOM      1  N   UNL     1       1.118   1.991   0.029  0.00  0.00    -0.266 N 
ATOM      2  C   UNL     1       0.081   1.360  -0.556  0.00  0.00    +0.308 C 
ATOM      3  O   UNL     1       0.242   0.268  -1.067  0.00  0.00    -0.252 OA
ATOM      4  N   UNL     1      -1.135   1.941  -0.579  0.00  0.00    -0.269 N 
ATOM      5  H   UNL     1       0.995   3.016   0.408  0.00  0.00    +0.156 HD
ATOM      6  H   UNL     1      -1.265   2.960  -0.186  0.00  0.00    +0.156 HD
ENDROOT
BRANCH   4   7
ATOM      7  C   UNL     1      -2.232   1.248  -1.102  0.00  0.00    +0.036 A 
ATOM      8  C   UNL     1      -2.064   0.394  -2.184  0.00  0.00    +0.023 A 
ATOM      9  C   UNL     1      -3.148  -0.294  -2.695  0.00  0.00    +0.003 A 
ATOM     10  C   UNL     1      -4.402  -0.124  -2.138  0.00  0.00    +0.020 A 
ATOM     11  C   UNL     1      -4.574   0.729  -1.062  0.00  0.00    +0.043 A 
ATOM     12  C   UNL     1      -3.492   1.416  -0.543  0.00  0.00    +0.043 A 
ATOM     13 CL   UNL     1      -6.150   0.939  -0.365  0.00  0.00    -0.083 Cl
ENDBRANCH   4   7
BRANCH   1  19
ATOM     14  C   UNL     1       3.528   2.085   0.252  0.00  0.00    +0.143 A 
ATOM     15  C   UNL     1       4.747   1.441   0.380  0.00  0.00    +0.070 A 
ATOM     16  C   UNL     1       4.800   0.054   0.399  0.00  0.00    +0.028 A 
ATOM     17  C   UNL     1       3.630  -0.687   0.294  0.00  0.00    +0.025 A 
ATOM     18  C   UNL     1       2.412  -0.046   0.172  0.00  0.00    +0.029 A 
ATOM     19  C   UNL     1       2.356   1.340   0.153  0.00  0.00    +0.077 A 
BRANCH  16  20
ATOM     20  N   UNL     1       6.031  -0.598   0.523  0.00  0.00    -0.358 N 
ATOM     21  H   UNL     1       6.073  -1.697   0.538  0.00  0.00    +0.142 HD
ATOM     22  H   UNL     1       6.958  -0.011   0.605  0.00  0.00    +0.142 HD
ENDBRANCH  16  20
BRANCH  14  24
ATOM     23  C   UNL     1       4.717   4.144   0.334  0.00  0.00    +0.277 C 
ATOM     24  O   UNL     1       3.475   3.444   0.228  0.00  0.00    -0.493 OA
ENDBRANCH  14  24
ENDBRANCH   1  19
TORSDOF 4
