REMARK  Name = ZINC43528081
REMARK  5 active torsions:
REMARK  status: ('A' for Active; 'I' for Inactive)
REMARK    1  A    between atoms: C_1  and  C_2
REMARK    2  A    between atoms: C_5  and  C_7
REMARK    3  A    between atoms: C_7  and  C_9
REMARK    4  A    between atoms: C_7  and  N_10
REMARK    5  A    between atoms: N_13  and  C_14
REMARK                            x       y       z     vdW  Elec       q    Type
REMARK                         _______ _______ _______ _____ _____    ______ ____
ROOT
ATOM      1  N   UNL     1       2.809  -2.969   0.875  0.00  0.00    -0.290 N 
ATOM      2  C   UNL     1       3.504  -3.988   1.416  0.00  0.00    +0.304 C 
ATOM      3  O   UNL     1       3.187  -5.137   1.174  0.00  0.00    -0.252 OA
ATOM      4  N   UNL     1       4.551  -3.735   2.226  0.00  0.00    -0.267 N 
ATOM      5  H   UNL     1       3.062  -2.052   1.069  0.00  0.00    +0.151 HD
ATOM      6  H   UNL     1       4.856  -2.823   2.355  0.00  0.00    +0.156 HD
ENDROOT
BRANCH   4   7
ATOM      7  C   UNL     1       5.200  -4.789   2.882  0.00  0.00    +0.072 A 
ATOM      8  C   UNL     1       4.522  -5.973   3.136  0.00  0.00    +0.046 A 
ATOM      9  C   UNL     1       5.165  -7.011   3.784  0.00  0.00    +0.043 A 
ATOM     10  C   UNL     1       6.484  -6.872   4.179  0.00  0.00    +0.023 A 
ATOM     11  C   UNL     1       7.163  -5.694   3.927  0.00  0.00    +0.041 A 
ATOM     12  C   UNL     1       6.527  -4.654   3.275  0.00  0.00    +0.145 A 
ATOM     13  F   UNL     1       7.193  -3.505   3.024  0.00  0.00    -0.204 F 
ATOM     14 CL   UNL     1       4.317  -8.492   4.103  0.00  0.00    -0.083 Cl
ENDBRANCH   4   7
BRANCH   1  15
ATOM     15  C   UNL     1       1.670  -3.244  -0.005  0.00  0.00    +0.137 C 
ATOM     16  C   UNL     1       2.172  -3.466  -1.433  0.00  0.00    +0.036 C 
BRANCH  15  21
ATOM     17  C   UNL     1      -0.055   1.495   0.069  0.00  0.00    +0.086 C 
ATOM     18  C   UNL     1      -0.027  -0.011   0.050  0.00  0.00    +0.102 A 
ATOM     19  C   UNL     1      -1.103  -0.818   0.051  0.00  0.00    +0.045 A 
ATOM     20  C   UNL     1      -0.620  -2.146   0.030  0.00  0.00    +0.047 A 
ATOM     21  C   UNL     1       0.723  -2.072   0.018  0.00  0.00    +0.125 A 
ATOM     22  O   UNL     1       1.076  -0.776   0.025  0.00  0.00    -0.463 OA
ENDBRANCH  15  21
ENDBRANCH   1  15
TORSDOF 3
