REMARK  Name = ZINC55582398
REMARK  8 active torsions:
REMARK  status: ('A' for Active; 'I' for Inactive)
REMARK    1  A    between atoms: C_1  and  C_2
REMARK    2  A    between atoms: C_4  and  N_24
REMARK    3  A    between atoms: C_6  and  C_23
REMARK    4  A    between atoms: C_7  and  S_8
REMARK    5  A    between atoms: S_8  and  N_11
REMARK    6  A    between atoms: N_11  and  C_12
REMARK    7  A    between atoms: C_15  and  N_18
REMARK    8  A    between atoms: C_25  and  C_27
REMARK                            x       y       z     vdW  Elec       q    Type
REMARK                         _______ _______ _______ _____ _____    ______ ____
ROOT
ATOM      1  S   UNL     1       0.256   0.330   2.550  0.00  0.00    +0.073 S 
ATOM      2  O   UNL     1       0.799  -0.350   3.674  0.00  0.00    -0.150 OA
ATOM      3  O   UNL     1       0.873   1.478   1.983  0.00  0.00    -0.150 OA
ENDROOT
BRANCH   1  10
ATOM      4  C   UNL     1       0.577   0.971  -0.387  0.00  0.00    +0.046 C 
ATOM      5  C   UNL     1       0.286  -0.471  -0.059  0.00  0.00    -0.022 A 
ATOM      6  C   UNL     1       0.189  -1.403  -1.074  0.00  0.00    +0.028 A 
ATOM      7  C   UNL     1      -0.079  -2.731  -0.771  0.00  0.00    +0.034 A 
ATOM      8  C   UNL     1      -0.248  -3.119   0.551  0.00  0.00    +0.028 A 
ATOM      9  C   UNL     1      -0.149  -2.182   1.562  0.00  0.00    -0.022 A 
ATOM     10  C   UNL     1       0.124  -0.861   1.257  0.00  0.00    +0.114 A 
ATOM     11  C   UNL     1      -0.332  -2.601   2.998  0.00  0.00    +0.046 C 
BRANCH   7  12
ATOM     12  N   UNL     1      -0.179  -3.678  -1.797  0.00  0.00    -0.286 N 
ATOM     13  C   UNL     1       0.588  -3.561  -2.899  0.00  0.00    +0.214 C 
ATOM     14  O   UNL     1       1.433  -2.693  -2.961  0.00  0.00    -0.276 OA
ATOM     15  C   UNL     1       0.396  -4.508  -4.055  0.00  0.00    +0.109 C 
ATOM     16  H   UNL     1      -0.800  -4.418  -1.715  0.00  0.00    +0.155 HD
ENDBRANCH   7  12
ENDBRANCH   1  10
BRANCH   1  17
ATOM     17  N   UNL     1      -1.284   0.775   2.964  0.00  0.00    -0.216 N 
ATOM     18  H   UNL     1      -1.634   0.552   3.841  0.00  0.00    +0.174 HD
BRANCH  17  19
ATOM     19  C   UNL     1      -2.079   1.474   2.051  0.00  0.00    +0.048 A 
ATOM     20  C   UNL     1      -1.553   2.557   1.358  0.00  0.00    +0.026 A 
ATOM     21  C   UNL     1      -2.338   3.247   0.457  0.00  0.00    +0.030 A 
ATOM     22  C   UNL     1      -3.654   2.859   0.242  0.00  0.00    +0.067 A 
ATOM     23  C   UNL     1      -4.180   1.776   0.935  0.00  0.00    +0.030 A 
ATOM     24  C   UNL     1      -3.394   1.083   1.833  0.00  0.00    +0.026 A 
BRANCH  22  25
ATOM     25  N   UNL     1      -4.452   3.561  -0.674  0.00  0.00    -0.220 N 
ATOM     26  C   UNL     1      -5.738   3.309  -0.983  0.00  0.00    +0.225 A 
ATOM     27  N   UNL     1      -6.120   4.186  -1.876  0.00  0.00    -0.222 NA
ATOM     28  C   UNL     1      -5.111   5.008  -2.161  0.00  0.00    +0.245 A 
ATOM     29  N   UNL     1      -4.070   4.669  -1.446  0.00  0.00    -0.154 NA
ENDBRANCH  22  25
ENDBRANCH  17  19
ENDBRANCH   1  17
TORSDOF 5
