REMARK  Name = ZINC40781479
REMARK  7 active torsions:
REMARK  status: ('A' for Active; 'I' for Inactive)
REMARK    1  A    between atoms: C_1  and  C_2
REMARK    2  A    between atoms: C_2  and  C_3
REMARK    3  A    between atoms: C_3  and  C_5
REMARK    4  A    between atoms: C_3  and  N_6
REMARK    5  A    between atoms: C_8  and  N_21
REMARK    6  A    between atoms: C_9  and  N_13
REMARK    7  A    between atoms: N_13  and  C_14
REMARK                            x       y       z     vdW  Elec       q    Type
REMARK                         _______ _______ _______ _____ _____    ______ ____
ROOT
ATOM      1  N   UNL     1       1.950   0.809  -1.295  0.00  0.00    -0.325 N 
ATOM      2  C   UNL     1       2.716   0.715  -2.450  0.00  0.00    +0.145 A 
ATOM      3  C   UNL     1       4.101   0.888  -2.398  0.00  0.00    +0.105 A 
ATOM      4  C   UNL     1       4.823   0.783  -3.588  0.00  0.00    +0.149 A 
ATOM      5  N   UNL     1       4.170   0.523  -4.718  0.00  0.00    -0.219 NA
ATOM      6  C   UNL     1       2.862   0.366  -4.723  0.00  0.00    +0.225 A 
ATOM      7  N   UNL     1       2.143   0.452  -3.622  0.00  0.00    -0.219 NA
ATOM      8  H   UNL     1       2.375   1.001  -0.445  0.00  0.00    +0.148 HD
ENDROOT
BRANCH   3   9
ATOM      9  N   UNL     1       4.748   1.162  -1.183  0.00  0.00    -0.353 N 
ATOM     10  H   UNL     1       4.233   1.233  -0.364  0.00  0.00    +0.143 HD
ATOM     11  H   UNL     1       5.711   1.280  -1.162  0.00  0.00    +0.143 HD
ENDBRANCH   3   9
BRANCH   1  12
ATOM     12  C   UNL     1       0.498   0.619  -1.362  0.00  0.00    +0.068 C 
ATOM     13  C   UNL     1       0.176  -0.875  -1.278  0.00  0.00    +0.028 C 
BRANCH  12  15
ATOM     14  C   UNL     1       0.052   2.857  -0.345  0.00  0.00    +0.005 C 
ATOM     15  C   UNL     1      -0.166   1.350  -0.194  0.00  0.00    +0.018 C 
ENDBRANCH  12  15
ENDBRANCH   1  12
BRANCH   4  16
ATOM     16  N   UNL     1       6.204   0.948  -3.592  0.00  0.00    -0.297 N 
ATOM     17  H   UNL     1       6.684   1.043  -2.755  0.00  0.00    +0.154 HD
BRANCH  16  18
ATOM     18  C   UNL     1       6.901   0.977  -4.804  0.00  0.00    +0.047 A 
ATOM     19  C   UNL     1       6.249   1.351  -5.973  0.00  0.00    +0.024 A 
ATOM     20  C   UNL     1       6.941   1.379  -7.168  0.00  0.00    +0.002 A 
ATOM     21  C   UNL     1       8.280   1.035  -7.203  0.00  0.00    +0.001 A 
ATOM     22  C   UNL     1       8.931   0.661  -6.042  0.00  0.00    +0.017 A 
ATOM     23  C   UNL     1       8.247   0.637  -4.842  0.00  0.00    +0.039 A 
ATOM     24 BR   UNL     1       9.141   0.133  -3.253  0.00  0.00    -0.048 Br
ENDBRANCH  16  18
ENDBRANCH   4  16
TORSDOF 5
