REMARK  Name = ZINC26509081
REMARK  5 active torsions:
REMARK  status: ('A' for Active; 'I' for Inactive)
REMARK    1  A    between atoms: C_1  and  O_2
REMARK    2  A    between atoms: O_2  and  C_3
REMARK    3  A    between atoms: C_4  and  N_21
REMARK    4  A    between atoms: C_6  and  C_10
REMARK    5  A    between atoms: C_8  and  N_9
REMARK                            x       y       z     vdW  Elec       q    Type
REMARK                         _______ _______ _______ _____ _____    ______ ____
ROOT
ATOM      1  C   UNL     1       2.408   0.033  -0.021  0.00  0.00    +0.161 A 
ATOM      2  C   UNL     1       1.211  -0.679  -0.013  0.00  0.00    +0.069 A 
ATOM      3  C   UNL     1       0.002  -0.004   0.002  0.00  0.00    +0.039 A 
ATOM      4  C   UNL     1      -0.017   1.392   0.010  0.00  0.00    +0.041 A 
ATOM      5  C   UNL     1       1.184   2.105   0.002  0.00  0.00    +0.039 A 
ATOM      6  C   UNL     1       2.391   1.426  -0.014  0.00  0.00    +0.069 A 
ENDROOT
BRANCH   4   7
ATOM      7  C   UNL     1      -1.305   2.114   0.020  0.00  0.00    +0.229 A 
ATOM      8  N   UNL     1      -2.485   1.545   0.017  0.00  0.00    -0.209 NA
ATOM      9  C   UNL     1      -3.437   2.514   0.032  0.00  0.00    +0.113 A 
ATOM     10  C   UNL     1      -4.834   2.493   0.038  0.00  0.00    +0.051 A 
ATOM     11  C   UNL     1      -5.535   3.678   0.047  0.00  0.00    +0.045 A 
ATOM     12  C   UNL     1      -4.863   4.893   0.051  0.00  0.00    +0.043 A 
ATOM     13  C   UNL     1      -3.483   4.928   0.045  0.00  0.00    +0.087 A 
ATOM     14  C   UNL     1      -2.760   3.744   0.035  0.00  0.00    +0.174 A 
ATOM     15  O   UNL     1      -1.440   3.454   0.028  0.00  0.00    -0.434 OA
ATOM     16 CL   UNL     1      -2.652   6.453   0.049  0.00  0.00    -0.080 Cl
ATOM     17 CL   UNL     1      -7.271   3.654   0.055  0.00  0.00    -0.083 Cl
ENDBRANCH   4   7
BRANCH   6  18
ATOM     18  N   UNL     1       3.595   2.140  -0.022  0.00  0.00    -0.355 N 
ATOM     19  H   UNL     1       3.582   3.240  -0.017  0.00  0.00    +0.142 HD
ATOM     20  H   UNL     1       4.554   1.601  -0.035  0.00  0.00    +0.142 HD
ENDBRANCH   6  18
BRANCH   2  21
ATOM     21  N   UNL     1       1.231  -2.079  -0.021  0.00  0.00    -0.355 N 
ATOM     22  H   UNL     1       0.286  -2.642  -0.015  0.00  0.00    +0.142 HD
ATOM     23  H   UNL     1       2.191  -2.616  -0.034  0.00  0.00    +0.142 HD
ENDBRANCH   2  21
BRANCH   1  25
ATOM     24  C   UNL     1       4.148  -0.942  -1.316  0.00  0.00    +0.277 C 
ATOM     25  O   UNL     1       3.594  -0.631  -0.036  0.00  0.00    -0.491 OA
ENDBRANCH   1  25
TORSDOF 4
