REMARK  Name = ZINC40702584
REMARK  6 active torsions:
REMARK  status: ('A' for Active; 'I' for Inactive)
REMARK    1  A    between atoms: C_1  and  O_2
REMARK    2  A    between atoms: O_2  and  C_3
REMARK    3  A    between atoms: C_8  and  N_9
REMARK    4  A    between atoms: C_11  and  N_25
REMARK    5  A    between atoms: C_12  and  N_16
REMARK    6  A    between atoms: N_16  and  C_17
REMARK                            x       y       z     vdW  Elec       q    Type
REMARK                         _______ _______ _______ _____ _____    ______ ____
ROOT
ATOM      1  N   UNL     1       0.151  -2.781  -0.075  0.00  0.00    -0.295 N 
ATOM      2  C   UNL     1       0.095  -4.163  -0.212  0.00  0.00    +0.149 A 
ATOM      3  C   UNL     1      -0.570  -4.943   0.736  0.00  0.00    +0.106 A 
ATOM      4  C   UNL     1      -0.596  -6.326   0.550  0.00  0.00    +0.149 A 
ATOM      5  N   UNL     1       0.009  -6.845  -0.516  0.00  0.00    -0.219 NA
ATOM      6  C   UNL     1       0.625  -6.073  -1.387  0.00  0.00    +0.225 A 
ATOM      7  N   UNL     1       0.670  -4.763  -1.252  0.00  0.00    -0.219 NA
ATOM      8  H   UNL     1      -0.214  -2.357   0.717  0.00  0.00    +0.154 HD
ENDROOT
BRANCH   1  14
ATOM      9  C   UNL     1       0.222  -0.738  -1.372  0.00  0.00    +0.141 A 
ATOM     10  C   UNL     1       0.806   0.032  -2.363  0.00  0.00    +0.049 A 
ATOM     11  C   UNL     1       1.893  -0.454  -3.067  0.00  0.00    +0.024 A 
ATOM     12  C   UNL     1       2.399  -1.710  -2.784  0.00  0.00    +0.043 A 
ATOM     13  C   UNL     1       1.821  -2.485  -1.794  0.00  0.00    +0.047 A 
ATOM     14  C   UNL     1       0.734  -2.001  -1.081  0.00  0.00    +0.076 A 
ATOM     15 CL   UNL     1       3.763  -2.315  -3.672  0.00  0.00    -0.083 Cl
BRANCH   9  17
ATOM     16  C   UNL     1      -1.320   1.041  -1.031  0.00  0.00    +0.277 C 
ATOM     17  O   UNL     1      -0.848  -0.261  -0.679  0.00  0.00    -0.493 OA
ENDBRANCH   9  17
ENDBRANCH   1  14
BRANCH   3  18
ATOM     18  N   UNL     1      -1.194  -4.352   1.846  0.00  0.00    -0.353 N 
ATOM     19  H   UNL     1      -1.167  -3.390   1.963  0.00  0.00    +0.143 HD
ATOM     20  H   UNL     1      -1.652  -4.907   2.497  0.00  0.00    +0.143 HD
ENDBRANCH   3  18
BRANCH   4  21
ATOM     21  N   UNL     1      -1.244  -7.149   1.464  0.00  0.00    -0.296 N 
ATOM     22  H   UNL     1      -1.757  -6.759   2.189  0.00  0.00    +0.154 HD
BRANCH  21  23
ATOM     23  C   UNL     1      -1.156  -8.540   1.339  0.00  0.00    +0.071 A 
ATOM     24  C   UNL     1      -0.076  -9.111   0.679  0.00  0.00    +0.064 A 
ATOM     25  C   UNL     1       0.008 -10.487   0.557  0.00  0.00    +0.125 A 
ATOM     26  C   UNL     1      -0.982 -11.293   1.092  0.00  0.00    +0.041 A 
ATOM     27  C   UNL     1      -2.058 -10.726   1.751  0.00  0.00    +0.043 A 
ATOM     28  C   UNL     1      -2.146  -9.353   1.881  0.00  0.00    +0.145 A 
ATOM     29  F   UNL     1      -3.195  -8.800   2.528  0.00  0.00    -0.204 F 
ATOM     30  F   UNL     1       1.058 -11.044  -0.086  0.00  0.00    -0.205 F 
ENDBRANCH  21  23
ENDBRANCH   4  21
TORSDOF 5
