REMARK  Name = ZINC37318383
REMARK  5 active torsions:
REMARK  status: ('A' for Active; 'I' for Inactive)
REMARK    1  A    between atoms: C_1  and  C_2
REMARK    2  A    between atoms: C_7  and  N_12
REMARK    3  A    between atoms: N_12  and  C_13
REMARK    4  A    between atoms: C_13  and  C_15
REMARK    5  A    between atoms: C_13  and  C_16
REMARK                            x       y       z     vdW  Elec       q    Type
REMARK                         _______ _______ _______ _____ _____    ______ ____
ROOT
ATOM      1  C   UNL     1      -0.018   1.503   0.010  0.00  0.00    +0.086 C 
ATOM      2  C   UNL     1       0.002  -0.004   0.002  0.00  0.00    +0.105 A 
ATOM      3  N   UNL     1       0.007  -0.778  -1.118  0.00  0.00    -0.342 N 
ATOM      4  H   UNL     1      -0.001  -0.462  -2.035  0.00  0.00    +0.167 HD
ATOM      5  C   UNL     1       0.027  -2.096  -0.707  0.00  0.00    +0.068 A 
ATOM      6  C   UNL     1       0.040  -3.314  -1.371  0.00  0.00    +0.050 A 
ATOM      7  C   UNL     1       0.059  -4.491  -0.642  0.00  0.00    +0.030 A 
ATOM      8  C   UNL     1       0.065  -4.455   0.752  0.00  0.00    +0.025 A 
ATOM      9  C   UNL     1       0.052  -3.263   1.416  0.00  0.00    +0.031 A 
ATOM     10  C   UNL     1       0.033  -2.063   0.698  0.00  0.00    +0.089 A 
ATOM     11  N   UNL     1       0.023  -0.755   1.064  0.00  0.00    -0.233 NA
ENDROOT
BRANCH   7  12
ATOM     12  N   UNL     1       0.072  -5.722  -1.306  0.00  0.00    -0.337 N 
ATOM     13  H   UNL     1       0.068  -5.749  -2.276  0.00  0.00    +0.147 HD
BRANCH  12  14
ATOM     14  C   UNL     1       0.092  -6.969  -0.538  0.00  0.00    +0.105 C 
ATOM     15  C   UNL     1      -1.338  -7.356  -0.156  0.00  0.00    +0.033 C 
BRANCH  14  16
ATOM     16  C   UNL     1       0.703  -8.064  -1.374  0.00  0.00    +0.024 A 
ATOM     17  C   UNL     1       1.623  -8.995  -1.021  0.00  0.00    +0.030 A 
ATOM     18  C   UNL     1       2.043  -9.914  -1.965  0.00  0.00    +0.023 A 
ATOM     19  C   UNL     1       1.522  -9.856  -3.216  0.00  0.00    +0.046 A 
ATOM     20  S   UNL     1       0.397  -8.477  -3.084  0.00  0.00    -0.099 S 
ATOM     21 BR   UNL     1       2.322  -9.037   0.736  0.00  0.00    -0.049 Br
ENDBRANCH  14  16
ENDBRANCH  12  14
ENDBRANCH   7  12
TORSDOF 3
