REMARK  Name = ZINC39335520
REMARK  9 active torsions:
REMARK  status: ('A' for Active; 'I' for Inactive)
REMARK    1  A    between atoms: C_1  and  C_2
REMARK    2  A    between atoms: C_3  and  C_24
REMARK    3  A    between atoms: C_4  and  N_23
REMARK    4  A    between atoms: C_6  and  S_10
REMARK    5  A    between atoms: C_7  and  C_8
REMARK    6  A    between atoms: S_10  and  C_11
REMARK    7  A    between atoms: C_11  and  C_12
REMARK    8  A    between atoms: N_14  and  C_15
REMARK    9  A    between atoms: C_15  and  C_16
REMARK                            x       y       z     vdW  Elec       q    Type
REMARK                         _______ _______ _______ _____ _____    ______ ____
ROOT
ATOM      1  C   UNL     1      -0.018   1.503   0.010  0.00  0.00    +0.046 C 
ATOM      2  C   UNL     1       0.002  -0.004   0.002  0.00  0.00    -0.010 A 
ATOM      3  C   UNL     1       0.006  -0.714  -1.202  0.00  0.00    +0.095 A 
ATOM      4  C   UNL     1       0.026  -2.122  -1.167  0.00  0.00    +0.135 A 
ATOM      5  N   UNL     1       0.041  -2.772  -0.015  0.00  0.00    -0.224 NA
ATOM      6  C   UNL     1       0.037  -2.135   1.147  0.00  0.00    +0.117 A 
ATOM      7  C   UNL     1       0.023  -0.726   1.197  0.00  0.00    +0.088 A 
ENDROOT
BRANCH   4   8
ATOM      8  N   UNL     1       0.030  -2.833  -2.350  0.00  0.00    -0.342 N 
ATOM      9  H   UNL     1       0.019  -2.362  -3.199  0.00  0.00    +0.144 HD
ATOM     10  H   UNL     1       0.043  -3.803  -2.334  0.00  0.00    +0.144 HD
ENDBRANCH   4   8
BRANCH   7  11
ATOM     11  C   UNL     1       0.025  -0.045   2.457  0.00  0.00    +0.102 C 
ATOM     12  N   UNL     1       0.027   0.495   3.456  0.00  0.00    -0.191 NA
ENDBRANCH   7  11
BRANCH   3  13
ATOM     13  C   UNL     1      -0.010  -0.019  -2.454  0.00  0.00    +0.103 C 
ATOM     14  N   UNL     1      -0.023   0.532  -3.447  0.00  0.00    -0.191 NA
ENDBRANCH   3  13
BRANCH   6  15
ATOM     15  S   UNL     1       0.057  -3.059   2.647  0.00  0.00    -0.095 S 
BRANCH  15  16
ATOM     16  C   UNL     1       0.079  -4.788   2.096  0.00  0.00    +0.171 C 
BRANCH  16  17
ATOM     17  C   UNL     1       0.097  -5.697   3.298  0.00  0.00    +0.224 C 
ATOM     18  O   UNL     1       0.096  -5.226   4.415  0.00  0.00    -0.275 OA
ATOM     19  N   UNL     1       0.115  -7.035   3.131  0.00  0.00    -0.311 N 
ATOM     20  H   UNL     1       0.116  -7.412   2.237  0.00  0.00    +0.149 HD
BRANCH  19  21
ATOM     21  C   UNL     1       0.133  -7.919   4.299  0.00  0.00    +0.139 C 
BRANCH  21  22
ATOM     22  C   UNL     1       0.151  -9.354   3.842  0.00  0.00    -0.030 A 
ATOM     23  C   UNL     1      -1.039 -10.028   3.632  0.00  0.00    +0.008 A 
ATOM     24  C   UNL     1      -1.024 -11.344   3.213  0.00  0.00    +0.038 A 
ATOM     25  C   UNL     1       0.183 -11.989   3.002  0.00  0.00    +0.123 A 
ATOM     26  C   UNL     1       1.374 -11.314   3.212  0.00  0.00    +0.038 A 
ATOM     27  C   UNL     1       1.356  -9.996   3.627  0.00  0.00    +0.008 A 
ATOM     28  F   UNL     1       0.199 -13.277   2.592  0.00  0.00    -0.205 F 
ENDBRANCH  21  22
ENDBRANCH  19  21
ENDBRANCH  16  17
ENDBRANCH  15  16
ENDBRANCH   6  15
TORSDOF 8
