REMARK  Name = ZINC37368190
REMARK  4 active torsions:
REMARK  status: ('A' for Active; 'I' for Inactive)
REMARK    1  A    between atoms: C_1  and  N_2
REMARK    2  A    between atoms: C_3  and  C_17
REMARK    3  A    between atoms: C_4  and  N_16
REMARK    4  A    between atoms: N_7  and  C_8
REMARK                            x       y       z     vdW  Elec       q    Type
REMARK                         _______ _______ _______ _____ _____    ______ ____
ROOT
ATOM      1  C   UNL     1       0.201   1.455  -0.027  0.00  0.00    +0.171 C 
ATOM      2  N   UNL     1       0.101  -0.006  -0.015  0.00  0.00    -0.282 N 
ATOM      3  C   UNL     1      -0.003  -0.824  -1.126  0.00  0.00    +0.091 A 
ATOM      4  C   UNL     1      -0.073  -2.115  -0.692  0.00  0.00    +0.117 A 
ATOM      5  C   UNL     1      -0.013  -2.103   0.722  0.00  0.00    +0.289 A 
ATOM      6  O   UNL     1      -0.049  -3.080   1.448  0.00  0.00    -0.264 OA
ATOM      7  N   UNL     1       0.099  -0.822   1.125  0.00  0.00    -0.243 N 
ENDROOT
BRANCH   7   8
ATOM      8  C   UNL     1       0.197  -0.361   2.512  0.00  0.00    +0.132 C 
ATOM      9  C   UNL     1      -0.995   0.552   2.842  0.00  0.00    +0.051 C 
ATOM     10  C   UNL     1      -0.740   1.292   4.177  0.00  0.00    +0.168 C 
ATOM     11  S   UNL     1       1.096   1.393   4.237  0.00  0.00    -0.029 S 
ATOM     12  O   UNL     1       1.563   0.660   5.361  0.00  0.00    -0.174 OA
ATOM     13  O   UNL     1       1.490   2.749   4.075  0.00  0.00    -0.174 OA
ATOM     14  C   UNL     1       1.504   0.462   2.701  0.00  0.00    +0.192 C 
ENDBRANCH   7   8
BRANCH   3  15
ATOM     15  C   UNL     1      -0.032  -0.377  -2.533  0.00  0.00    +0.002 A 
ATOM     16  C   UNL     1       0.907   0.548  -2.995  0.00  0.00    +0.010 A 
ATOM     17  C   UNL     1       0.874   0.960  -4.311  0.00  0.00    +0.001 A 
ATOM     18  C   UNL     1      -0.086   0.460  -5.172  0.00  0.00    +0.000 A 
ATOM     19  C   UNL     1      -1.020  -0.457  -4.721  0.00  0.00    +0.001 A 
ATOM     20  C   UNL     1      -0.995  -0.882  -3.409  0.00  0.00    +0.010 A 
ENDBRANCH   3  15
BRANCH   4  21
ATOM     21  N   UNL     1      -0.186  -3.257  -1.506  0.00  0.00    -0.352 N 
ATOM     22  H   UNL     1      -0.145  -3.170  -2.471  0.00  0.00    +0.143 HD
ATOM     23  H   UNL     1      -0.306  -4.130  -1.102  0.00  0.00    +0.143 HD
ENDBRANCH   4  21
TORSDOF 3
