REMARK  Name = ZINC22786292
REMARK  7 active torsions:
REMARK  status: ('A' for Active; 'I' for Inactive)
REMARK    1  A    between atoms: C_3  and  O_31
REMARK    2  A    between atoms: C_6  and  N_7
REMARK    3  A    between atoms: C_8  and  C_10
REMARK    4  A    between atoms: C_10  and  N_11
REMARK    5  A    between atoms: N_14  and  C_17
REMARK    6  A    between atoms: C_17  and  N_18
REMARK    7  A    between atoms: O_31  and  C_32
REMARK                            x       y       z     vdW  Elec       q    Type
REMARK                         _______ _______ _______ _____ _____    ______ ____
ROOT
ATOM      1  N   UNL     1       3.419   2.298  -0.312  0.00  0.00    +0.387 N 
ATOM      2  C   UNL     1       3.337   2.788  -1.696  0.00  0.00    -0.063 C 
ATOM      3  C   UNL     1       4.307   3.958  -1.878  0.00  0.00    +0.067 C 
ATOM      4  N   UNL     1       5.671   3.515  -1.559  0.00  0.00    -0.290 NA
ATOM      5  C   UNL     1       5.753   3.025  -0.176  0.00  0.00    +0.067 C 
ATOM      6  C   UNL     1       4.784   1.855   0.006  0.00  0.00    -0.063 C 
ATOM      7  H   UNL     1       3.167   3.132   0.359  0.00  0.00    -0.081 HD
ENDROOT
BRANCH   1   8
ATOM      8  C   UNL     1       2.448   1.222  -0.076  0.00  0.00    +0.019 C 
BRANCH   8  10
ATOM      9  N   UNL     1      -0.011   0.966   0.007  0.00  0.00    -0.287 N 
ATOM     10  C   UNL     1       1.050   1.777  -0.174  0.00  0.00    +0.201 C 
ATOM     11  O   UNL     1       0.880   2.953  -0.417  0.00  0.00    -0.278 OA
ATOM     12  H   UNL     1       0.140  -0.115   0.144  0.00  0.00    +0.155 HD
BRANCH   9  18
ATOM     13  C   UNL     1      -1.528   2.770   0.536  0.00  0.00    +0.027 A 
ATOM     14  C   UNL     1      -2.804   3.298   0.546  0.00  0.00    +0.048 A 
ATOM     15  C   UNL     1      -3.866   2.555   0.052  0.00  0.00    +0.130 A 
ATOM     16  C   UNL     1      -3.646   1.283  -0.457  0.00  0.00    +0.048 A 
ATOM     17  C   UNL     1      -2.370   0.756  -0.472  0.00  0.00    +0.027 A 
ATOM     18  C   UNL     1      -1.306   1.500   0.022  0.00  0.00    +0.034 A 
BRANCH  15  19
ATOM     19  O   UNL     1      -5.123   3.073   0.067  0.00  0.00    -0.406 OA
BRANCH  19  20
ATOM     20  C   UNL     1      -5.277   4.387   0.605  0.00  0.00    +0.575 C 
ATOM     21  F   UNL     1      -4.508   5.289  -0.138  0.00  0.00    -0.133 F 
ATOM     22  F   UNL     1      -6.623   4.762   0.544  0.00  0.00    -0.133 F 
ATOM     23  F   UNL     1      -4.850   4.398   1.938  0.00  0.00    -0.133 F 
ENDBRANCH  19  20
ENDBRANCH  15  19
ENDBRANCH   9  18
ENDBRANCH   8  10
ENDBRANCH   1   8
BRANCH   4  24
ATOM     24  C   UNL     1       6.643   4.591  -1.795  0.00  0.00    +0.204 C 
BRANCH  24  25
ATOM     25  N   UNL     1       6.175   5.438  -2.895  0.00  0.00    -0.211 N 
ATOM     26  C   UNL     1       5.394   6.523  -2.735  0.00  0.00    +0.248 C 
ATOM     27  O   UNL     1       4.959   6.963  -1.692  0.00  0.00    -0.273 OA
ATOM     28  C   UNL     1       5.168   7.082  -4.129  0.00  0.00    +0.113 C 
ATOM     29  C   UNL     1       5.862   8.460  -4.206  0.00  0.00    +0.035 C 
ATOM     30  C   UNL     1       6.173   8.766  -5.645  0.00  0.00    +0.003 C 
ATOM     31  C   UNL     1       5.072   9.602  -6.327  0.00  0.00    +0.000 C 
ATOM     32  C   UNL     1       3.652   9.137  -5.954  0.00  0.00    +0.000 C 
ATOM     33  C   UNL     1       3.530   7.637  -5.928  0.00  0.00    +0.003 C 
ATOM     34  C   UNL     1       3.756   7.154  -4.483  0.00  0.00    +0.035 C 
ATOM     35  N   UNL     1       5.922   6.149  -4.993  0.00  0.00    -0.285 N 
ATOM     36  C   UNL     1       6.477   5.233  -4.182  0.00  0.00    +0.310 C 
ATOM     37  O   UNL     1       7.173   4.317  -4.574  0.00  0.00    -0.252 OA
ATOM     38  H   UNL     1       5.937   6.299  -6.082  0.00  0.00    +0.151 HD
ENDBRANCH  24  25
ENDBRANCH   4  24
TORSDOF 7
