REMARK  Name = ZINC00315685
REMARK  4 active torsions:
REMARK  status: ('A' for Active; 'I' for Inactive)
REMARK    1  A    between atoms: C_1  and  C_2
REMARK    2  A    between atoms: C_5  and  S_11
REMARK    3  A    between atoms: C_7  and  C_8
REMARK    4  A    between atoms: S_11  and  N_14
REMARK                            x       y       z     vdW  Elec       q    Type
REMARK                         _______ _______ _______ _____ _____    ______ ____
ROOT
ATOM      1  C   UNL     1       5.179  -2.222  -4.103  0.00  0.00    +0.044 C 
ATOM      2  C   UNL     1       4.776  -1.857  -2.698  0.00  0.00    -0.038 A 
ATOM      3  C   UNL     1       3.726  -2.513  -2.088  0.00  0.00    +0.006 A 
ATOM      4  C   UNL     1       3.358  -2.183  -0.795  0.00  0.00    +0.029 A 
ATOM      5  C   UNL     1       4.032  -1.187  -0.111  0.00  0.00    +0.106 A 
ATOM      6  C   UNL     1       5.082  -0.523  -0.709  0.00  0.00    +0.041 A 
ATOM      7  C   UNL     1       5.463  -0.855  -2.011  0.00  0.00    +0.041 A 
ENDROOT
BRANCH   7   8
ATOM      8  C   UNL     1       6.588  -0.148  -2.659  0.00  0.00    +0.242 C 
ATOM      9  O   UNL     1       6.990  -0.514  -3.746  0.00  0.00    -0.270 OA
ATOM     10  N   UNL     1       7.167   0.902  -2.044  0.00  0.00    -0.325 N 
ATOM     11  H   UNL     1       6.846   1.194  -1.177  0.00  0.00    +0.145 HD
ATOM     12  H   UNL     1       7.906   1.366  -2.470  0.00  0.00    +0.145 HD
ENDBRANCH   7   8
BRANCH   5  13
ATOM     13  S   UNL     1       3.550  -0.769   1.532  0.00  0.00    +0.061 S 
ATOM     14  O   UNL     1       4.688  -0.188   2.154  0.00  0.00    -0.153 OA
ATOM     15  O   UNL     1       2.890  -1.909   2.064  0.00  0.00    -0.153 OA
BRANCH  13  16
ATOM     16  N   UNL     1       2.410   0.427   1.419  0.00  0.00    -0.177 NA
ATOM     17  C   UNL     1       0.983   0.094   1.323  0.00  0.00    +0.109 C 
ATOM     18  C   UNL     1       0.396   0.792   0.092  0.00  0.00    +0.017 C 
ATOM     19  C   UNL     1       0.687   2.292   0.173  0.00  0.00    +0.003 C 
ATOM     20  C   UNL     1       2.200   2.520   0.182  0.00  0.00    +0.017 C 
ATOM     21  C   UNL     1       2.808   1.842   1.414  0.00  0.00    +0.109 C 
ENDBRANCH  13  16
ENDBRANCH   5  13
TORSDOF 3
