REMARK  Name = ZINC59017576
REMARK  9 active torsions:
REMARK  status: ('A' for Active; 'I' for Inactive)
REMARK    1  A    between atoms: C_1  and  C_2
REMARK    2  A    between atoms: C_10  and  C_29
REMARK    3  A    between atoms: C_11  and  C_12
REMARK    4  A    between atoms: C_12  and  C_13
REMARK    5  A    between atoms: N_15  and  C_16
REMARK    6  A    between atoms: C_21  and  N_22
REMARK    7  A    between atoms: N_25  and  C_26
REMARK    8  A    between atoms: C_26  and  C_27
REMARK    9  A    between atoms: C_26  and  C_28
REMARK                            x       y       z     vdW  Elec       q    Type
REMARK                         _______ _______ _______ _____ _____    ______ ____
ROOT
ATOM      1  C   UNL     1      -1.408   0.230   2.942  0.00  0.00    +0.222 C 
ATOM      2  O   UNL     1      -2.331  -0.176   2.268  0.00  0.00    -0.275 OA
ATOM      3  N   UNL     1      -1.651   0.862   4.107  0.00  0.00    -0.284 N 
ATOM      4  H   UNL     1      -0.914   1.115   4.684  0.00  0.00    +0.155 HD
ENDROOT
BRANCH   3   5
ATOM      5  C   UNL     1      -2.968   1.154   4.484  0.00  0.00    +0.055 A 
ATOM      6  C   UNL     1      -3.955   1.284   3.518  0.00  0.00    +0.025 A 
ATOM      7  C   UNL     1      -5.254   1.572   3.893  0.00  0.00    +0.002 A 
ATOM      8  C   UNL     1      -5.574   1.732   5.228  0.00  0.00    +0.002 A 
ATOM      9  C   UNL     1      -4.596   1.604   6.197  0.00  0.00    +0.025 A 
ATOM     10  C   UNL     1      -3.292   1.309   5.831  0.00  0.00    +0.056 A 
BRANCH  10  11
ATOM     11  N   UNL     1      -2.300   1.173   6.812  0.00  0.00    -0.268 N 
ATOM     12  C   UNL     1      -2.442   1.788   8.003  0.00  0.00    +0.304 C 
ATOM     13  O   UNL     1      -3.379   2.540   8.191  0.00  0.00    -0.253 OA
ATOM     14  N   UNL     1      -1.547   1.568   8.986  0.00  0.00    -0.297 N 
ATOM     15  H   UNL     1      -1.512   0.637   6.634  0.00  0.00    +0.156 HD
ATOM     16  H   UNL     1      -0.800   0.967   8.836  0.00  0.00    +0.151 HD
BRANCH  14  17
ATOM     17  C   UNL     1      -1.701   2.235  10.281  0.00  0.00    +0.068 C 
ATOM     18  C   UNL     1      -2.650   1.422  11.164  0.00  0.00    +0.027 C 
ATOM     19  C   UNL     1      -0.336   2.345  10.964  0.00  0.00    +0.027 C 
ENDBRANCH  14  17
ENDBRANCH  10  11
ENDBRANCH   3   5
BRANCH   1  20
ATOM     20  C   UNL     1       0.011   0.028   2.476  0.00  0.00    +0.133 C 
BRANCH  20  31
ATOM     21  C   UNL     1      -0.075   1.512  -0.007  0.00  0.00    +0.045 C 
ATOM     22  C   UNL     1      -0.033   0.006  -0.013  0.00  0.00    -0.036 A 
ATOM     23  C   UNL     1      -0.030  -0.713  -1.223  0.00  0.00    +0.002 A 
ATOM     24  C   UNL     1      -0.065  -0.057  -2.464  0.00  0.00    +0.010 A 
ATOM     25  C   UNL     1      -0.059  -0.788  -3.612  0.00  0.00    +0.001 A 
ATOM     26  C   UNL     1      -0.020  -2.180  -3.573  0.00  0.00    +0.002 A 
ATOM     27  C   UNL     1       0.014  -2.849  -2.388  0.00  0.00    +0.026 A 
ATOM     28  C   UNL     1       0.011  -2.129  -1.181  0.00  0.00    +0.047 A 
ATOM     29  N   UNL     1       0.045  -2.759  -0.002  0.00  0.00    -0.358 N 
ATOM     30  C   UNL     1       0.042  -2.092   1.127  0.00  0.00    +0.017 A 
ATOM     31  C   UNL     1       0.008  -0.700   1.156  0.00  0.00    -0.016 A 
ATOM     32  C   UNL     1       0.081  -2.852   2.428  0.00  0.00    +0.063 C 
ATOM     33  H   UNL     1       0.072  -3.728   0.018  0.00  0.00    +0.166 HD
ENDBRANCH  20  31
ENDBRANCH   1  20
TORSDOF 5
