REMARK  Name = ZINC60098293
REMARK  10 active torsions:
REMARK  status: ('A' for Active; 'I' for Inactive)
REMARK    1  A    between atoms: C_1  and  C_2
REMARK    2  A    between atoms: C_4  and  C_30
REMARK    3  A    between atoms: N_5  and  C_7
REMARK    4  A    between atoms: C_7  and  C_9
REMARK    5  A    between atoms: C_7  and  C_10
REMARK    6  A    between atoms: N_12  and  C_13
REMARK    7  A    between atoms: C_16  and  N_20
REMARK    8  A    between atoms: C_21  and  C_23
REMARK    9  A    between atoms: C_24  and  C_29
REMARK   10  A    between atoms: C_27  and  C_28
REMARK                            x       y       z     vdW  Elec       q    Type
REMARK                         _______ _______ _______ _____ _____    ______ ____
ROOT
ATOM      1  C   UNL     1       2.680  -4.335   4.009  0.00  0.00    +0.052 A 
ATOM      2  C   UNL     1       3.607  -3.304   3.939  0.00  0.00    +0.026 A 
ATOM      3  C   UNL     1       4.770  -3.368   4.680  0.00  0.00    +0.025 A 
ATOM      4  C   UNL     1       5.013  -4.464   5.497  0.00  0.00    +0.035 A 
ATOM      5  C   UNL     1       4.087  -5.497   5.569  0.00  0.00    +0.045 A 
ATOM      6  C   UNL     1       2.921  -5.430   4.830  0.00  0.00    +0.064 A 
ATOM      7 CL   UNL     1       1.759  -6.717   4.924  0.00  0.00    -0.082 Cl
ENDROOT
BRANCH   1  10
ATOM      8  C   UNL     1       1.510  -3.697   2.037  0.00  0.00    +0.242 C 
ATOM      9  O   UNL     1       2.519  -3.166   1.624  0.00  0.00    -0.273 OA
ATOM     10  N   UNL     1       1.500  -4.269   3.257  0.00  0.00    -0.283 N 
ATOM     11  H   UNL     1       0.676  -4.636   3.614  0.00  0.00    +0.155 HD
BRANCH   8  12
ATOM     12  C   UNL     1       0.267  -3.717   1.185  0.00  0.00    +0.190 C 
ATOM     13  C   UNL     1      -0.867  -3.000   1.921  0.00  0.00    +0.042 C 
BRANCH  12  18
ATOM     14  C   UNL     1       1.484  -0.144  -2.123  0.00  0.00    +0.067 C 
ATOM     15  C   UNL     1       1.069  -1.458  -1.514  0.00  0.00    +0.060 A 
ATOM     16  C   UNL     1       0.766  -2.629  -2.216  0.00  0.00    +0.047 A 
ATOM     17  C   UNL     1       0.440  -3.583  -1.314  0.00  0.00    +0.037 A 
ATOM     18  N   UNL     1       0.533  -3.036  -0.084  0.00  0.00    -0.257 N 
ATOM     19  N   UNL     1       0.934  -1.702  -0.235  0.00  0.00    -0.176 NA
ATOM     20  C   UNL     1       0.043  -5.003  -1.627  0.00  0.00    +0.065 C 
ENDBRANCH  12  18
ENDBRANCH   8  12
ENDBRANCH   1  10
BRANCH   4  21
ATOM     21  N   UNL     1       6.193  -4.529   6.249  0.00  0.00    -0.281 N 
ATOM     22  C   UNL     1       6.797  -5.717   6.454  0.00  0.00    +0.253 C 
ATOM     23  O   UNL     1       6.274  -6.741   6.057  0.00  0.00    -0.270 OA
ATOM     24  H   UNL     1       6.575  -3.720   6.622  0.00  0.00    +0.155 HD
BRANCH  22  25
ATOM     25  C   UNL     1       8.090  -5.774   7.158  0.00  0.00    +0.101 A 
ATOM     26  C   UNL     1       8.292  -5.923   8.600  0.00  0.00    +0.093 A 
ATOM     27  N   UNL     1       9.576  -5.928   8.809  0.00  0.00    -0.083 NA
ATOM     28  O   UNL     1      10.237  -5.788   7.567  0.00  0.00    -0.359 OA
ATOM     29  C   UNL     1       9.330  -5.703   6.591  0.00  0.00    +0.147 A 
ATOM     30  C   UNL     1       9.623  -5.551   5.120  0.00  0.00    +0.090 C 
ATOM     31  C   UNL     1       7.215  -6.048   9.647  0.00  0.00    +0.070 C 
ENDBRANCH  22  25
ENDBRANCH   4  21
TORSDOF 5
