REMARK  Name = ZINC40471562
REMARK  3 active torsions:
REMARK  status: ('A' for Active; 'I' for Inactive)
REMARK    1  A    between atoms: C_3  and  C_17
REMARK    2  A    between atoms: C_4  and  N_8
REMARK    3  A    between atoms: C_9  and  C_11
REMARK                            x       y       z     vdW  Elec       q    Type
REMARK                         _______ _______ _______ _____ _____    ______ ____
ROOT
ATOM      1  N   UNL     1       3.380  -0.873  -0.038  0.00  0.00    -0.286 N 
ATOM      2  C   UNL     1       3.222  -2.208  -0.140  0.00  0.00    +0.204 C 
ATOM      3  O   UNL     1       2.116  -2.677  -0.305  0.00  0.00    -0.277 OA
ATOM      4  H   UNL     1       4.271  -0.492   0.010  0.00  0.00    +0.155 HD
ENDROOT
BRANCH   1   8
ATOM      5  C   UNL     1       0.038   1.621   0.069  0.00  0.00    +0.021 A 
ATOM      6  C   UNL     1       1.118   1.905   0.875  0.00  0.00    +0.018 A 
ATOM      7  C   UNL     1       2.245   1.076   0.849  0.00  0.00    +0.084 A 
ATOM      8  C   UNL     1       2.265  -0.041  -0.002  0.00  0.00    +0.049 A 
ATOM      9  C   UNL     1       1.168  -0.311  -0.808  0.00  0.00    +0.044 A 
ATOM     10  C   UNL     1       0.061   0.517  -0.771  0.00  0.00    +0.043 A 
ATOM     11 CL   UNL     1      -1.307   0.173  -1.781  0.00  0.00    -0.083 Cl
BRANCH   7  12
ATOM     12  C   UNL     1       3.401   1.373   1.708  0.00  0.00    +0.388 C 
ATOM     13  O   UNL     1       3.401   2.375   2.410  0.00  0.00    -0.241 OA
ATOM     14  O   UNL     1       4.364   0.618   1.720  0.00  0.00    -0.241 OA
ENDBRANCH   7  12
ENDBRANCH   1   8
BRANCH   2  15
ATOM     15  C   UNL     1       4.420  -3.118  -0.048  0.00  0.00    +0.027 C 
ATOM     16  C   UNL     1       5.421  -2.726  -1.162  0.00  0.00    +0.060 C 
ATOM     17  S   UNL     1       6.034  -4.401  -1.647  0.00  0.00    -0.181 S 
ATOM     18  C   UNL     1       4.487  -5.319  -1.228  0.00  0.00    -0.011 C 
ATOM     19  N   UNL     1       3.959  -4.498  -0.116  0.00  0.00    +0.393 N 
ATOM     20  H   UNL     1       4.206  -4.954   0.750  0.00  0.00    -0.084 HD
ATOM     21  H   UNL     1       2.952  -4.489  -0.185  0.00  0.00    -0.084 HD
ENDBRANCH   2  15
TORSDOF 3
