REMARK  Name = ZINC62825375
REMARK  6 active torsions:
REMARK  status: ('A' for Active; 'I' for Inactive)
REMARK    1  A    between atoms: C_1  and  C_2
REMARK    2  A    between atoms: C_2  and  C_4
REMARK    3  A    between atoms: C_2  and  N_19
REMARK    4  A    between atoms: C_4  and  C_5
REMARK    5  A    between atoms: N_7  and  C_8
REMARK    6  A    between atoms: C_9  and  C_16
REMARK                            x       y       z     vdW  Elec       q    Type
REMARK                         _______ _______ _______ _____ _____    ______ ____
ROOT
ATOM      1  C   UNL     1       0.459  -2.014   1.658  0.00  0.00    +0.216 C 
ATOM      2  O   UNL     1      -0.437  -2.621   1.111  0.00  0.00    -0.276 OA
ATOM      3  N   UNL     1       1.518  -2.680   2.158  0.00  0.00    -0.284 N 
ATOM      4  H   UNL     1       2.271  -2.190   2.523  0.00  0.00    +0.155 HD
ENDROOT
BRANCH   3   5
ATOM      5  C   UNL     1       1.532  -4.073   2.148  0.00  0.00    +0.062 A 
ATOM      6  C   UNL     1       1.766  -4.784   3.337  0.00  0.00    +0.086 A 
ATOM      7  C   UNL     1       1.777  -6.182   3.314  0.00  0.00    +0.032 A 
ATOM      8  C   UNL     1       1.558  -6.852   2.129  0.00  0.00    +0.020 A 
ATOM      9  C   UNL     1       1.327  -6.146   0.958  0.00  0.00    +0.032 A 
ATOM     10  C   UNL     1       1.309  -4.765   0.966  0.00  0.00    +0.041 A 
ATOM     11 BR   UNL     1       0.986  -3.816  -0.638  0.00  0.00    -0.048 Br
ATOM     12 BR   UNL     1       1.574  -8.742   2.100  0.00  0.00    -0.050 Br
BRANCH   6  13
ATOM     13  C   UNL     1       1.999  -4.062   4.598  0.00  0.00    +0.388 C 
ATOM     14  O   UNL     1       2.304  -4.680   5.609  0.00  0.00    -0.241 OA
ATOM     15  O   UNL     1       1.887  -2.845   4.636  0.00  0.00    -0.241 OA
ENDBRANCH   6  13
ENDBRANCH   3   5
BRANCH   1  16
ATOM     16  C   UNL     1       0.387  -0.513   1.780  0.00  0.00    +0.080 C 
BRANCH  16  18
ATOM     17  C   UNL     1      -0.922   1.519   1.148  0.00  0.00    -0.014 C 
ATOM     18  C   UNL     1      -0.907  -0.011   1.137  0.00  0.00    -0.070 C 
BRANCH  18  19
ATOM     19  N   UNL     1      -2.059  -0.518   1.894  0.00  0.00    +0.380 N 
ATOM     20  H   UNL     1      -2.913  -0.186   1.470  0.00  0.00    -0.090 HD
ATOM     21  H   UNL     1      -2.050  -1.527   1.886  0.00  0.00    -0.090 HD
ATOM     22  H   UNL     1      -2.007  -0.188   2.846  0.00  0.00    -0.090 HD
ENDBRANCH  18  19
ENDBRANCH  16  18
ENDBRANCH   1  16
TORSDOF 5
