REMARK  Name = ZINC29639585
REMARK  10 active torsions:
REMARK  status: ('A' for Active; 'I' for Inactive)
REMARK    1  A    between atoms: C_1  and  C_2
REMARK    2  A    between atoms: C_6  and  C_29
REMARK    3  A    between atoms: C_7  and  O_8
REMARK    4  A    between atoms: O_8  and  C_9
REMARK    5  A    between atoms: C_9  and  C_11
REMARK    6  A    between atoms: C_9  and  C_12
REMARK    7  A    between atoms: N_14  and  N_15
REMARK    8  A    between atoms: C_16  and  C_18
REMARK    9  A    between atoms: C_20  and  S_25
REMARK   10  A    between atoms: S_25  and  N_28
REMARK                            x       y       z     vdW  Elec       q    Type
REMARK                         _______ _______ _______ _____ _____    ______ ____
ROOT
ATOM      1  N   UNL     1      -3.048   2.523   4.810  0.00  0.00    -0.230 N 
ATOM      2  C   UNL     1      -4.293   2.723   5.284  0.00  0.00    +0.262 C 
ATOM      3  O   UNL     1      -5.185   1.948   4.999  0.00  0.00    -0.269 OA
ATOM      4  H   UNL     1      -2.337   3.142   5.037  0.00  0.00    +0.173 HD
ENDROOT
BRANCH   2   5
ATOM      5  C   UNL     1      -4.575   3.886   6.151  0.00  0.00    +0.058 A 
ATOM      6  C   UNL     1      -3.555   4.783   6.476  0.00  0.00    +0.043 A 
ATOM      7  C   UNL     1      -3.825   5.866   7.285  0.00  0.00    +0.106 A 
ATOM      8  C   UNL     1      -5.104   6.067   7.775  0.00  0.00    +0.030 A 
ATOM      9  C   UNL     1      -6.120   5.184   7.458  0.00  0.00    +0.022 A 
ATOM     10  C   UNL     1      -5.865   4.098   6.644  0.00  0.00    +0.053 A 
ATOM     11 CL   UNL     1      -7.143   2.994   6.240  0.00  0.00    -0.083 Cl
BRANCH   7  12
ATOM     12  S   UNL     1      -2.538   6.998   7.696  0.00  0.00    +0.056 S 
ATOM     13  O   UNL     1      -2.923   7.626   8.911  0.00  0.00    -0.153 OA
ATOM     14  O   UNL     1      -1.315   6.288   7.559  0.00  0.00    -0.153 OA
BRANCH  12  15
ATOM     15  N   UNL     1      -2.534   8.178   6.534  0.00  0.00    -0.204 NA
ATOM     16  H   UNL     1      -2.248   9.077   6.757  0.00  0.00    +0.144 HD
ATOM     17  H   UNL     1      -2.817   7.969   5.630  0.00  0.00    +0.144 HD
ENDBRANCH  12  15
ENDBRANCH   7  12
ENDBRANCH   2   5
BRANCH   1  20
ATOM     18  C   UNL     1      -1.535   1.219   3.514  0.00  0.00    +0.270 C 
ATOM     19  O   UNL     1      -0.646   1.993   3.798  0.00  0.00    -0.270 OA
ATOM     20  N   UNL     1      -2.780   1.420   3.988  0.00  0.00    -0.231 N 
ATOM     21  H   UNL     1      -3.492   0.801   3.761  0.00  0.00    +0.173 HD
BRANCH  18  22
ATOM     22  C   UNL     1      -1.247   0.033   2.630  0.00  0.00    +0.257 C 
ATOM     23  C   UNL     1      -1.567  -1.257   3.388  0.00  0.00    +0.062 C 
BRANCH  22  24
ATOM     24  O   UNL     1       0.133   0.038   2.259  0.00  0.00    -0.479 OA
BRANCH  24  31
ATOM     25  C   UNL     1       0.986  -2.654   2.228  0.00  0.00    +0.047 C 
ATOM     26  C   UNL     1       0.875  -1.822   0.976  0.00  0.00    -0.007 A 
ATOM     27  C   UNL     1       1.192  -2.374  -0.250  0.00  0.00    +0.027 A 
ATOM     28  C   UNL     1       1.091  -1.610  -1.400  0.00  0.00    +0.042 A 
ATOM     29  C   UNL     1       0.672  -0.293  -1.323  0.00  0.00    +0.027 A 
ATOM     30  C   UNL     1       0.355   0.262  -0.099  0.00  0.00    -0.007 A 
ATOM     31  C   UNL     1       0.450  -0.504   1.054  0.00  0.00    +0.127 A 
ATOM     32  C   UNL     1      -0.099   1.696  -0.016  0.00  0.00    +0.047 C 
ATOM     33 CL   UNL     1       1.490  -2.305  -2.940  0.00  0.00    -0.084 Cl
ENDBRANCH  24  31
ENDBRANCH  22  24
ENDBRANCH  18  22
ENDBRANCH   1  20
TORSDOF 7
