REMARK  Name = ZINC18199630
REMARK  3 active torsions:
REMARK  status: ('A' for Active; 'I' for Inactive)
REMARK    1  A    between atoms: C_10  and  C_18
REMARK    2  A    between atoms: C_12  and  C_16
REMARK    3  A    between atoms: C_13  and  N_15
REMARK                            x       y       z     vdW  Elec       q    Type
REMARK                         _______ _______ _______ _____ _____    ______ ____
ROOT
ATOM      1  C   UNL     1       3.207   6.911  -1.316  0.00  0.00    +0.002 A 
ATOM      2  C   UNL     1       3.940   5.749  -1.149  0.00  0.00    +0.002 A 
ATOM      3  C   UNL     1       3.343   4.547  -0.803  0.00  0.00    +0.028 A 
ATOM      4  C   UNL     1       1.964   4.551  -0.629  0.00  0.00    +0.071 A 
ATOM      5  C   UNL     1       1.210   5.739  -0.800  0.00  0.00    +0.091 A 
ATOM      6  C   UNL     1       1.834   6.942  -1.148  0.00  0.00    +0.030 A 
ATOM      7  N   UNL     1      -0.082   5.431  -0.569  0.00  0.00    -0.214 NA
ATOM      8  C   UNL     1      -0.179   4.162  -0.274  0.00  0.00    +0.203 A 
ATOM      9  N   UNL     1       1.067   3.577  -0.296  0.00  0.00    -0.299 N 
ATOM     10  C   UNL     1       1.295   2.163   0.001  0.00  0.00    +0.164 C 
ATOM     11  C   UNL     1      -0.017   1.428   0.010  0.00  0.00    +0.092 C 
ATOM     12  C   UNL     1      -1.217   2.057   0.019  0.00  0.00    +0.104 C 
ATOM     13  N   UNL     1      -1.321   3.433   0.022  0.00  0.00    -0.273 N 
ATOM     14  H   UNL     1      -2.162   3.874   0.219  0.00  0.00    +0.156 HD
ENDROOT
BRANCH  10  15
ATOM     15  C   UNL     1       1.951   2.033   1.352  0.00  0.00    -0.017 A 
ATOM     16  C   UNL     1       1.311   2.513   2.480  0.00  0.00    +0.006 A 
ATOM     17  C   UNL     1       1.909   2.391   3.720  0.00  0.00    +0.003 A 
ATOM     18  C   UNL     1       3.152   1.798   3.833  0.00  0.00    +0.038 A 
ATOM     19  C   UNL     1       3.796   1.321   2.703  0.00  0.00    +0.124 A 
ATOM     20  C   UNL     1       3.194   1.440   1.462  0.00  0.00    +0.044 A 
ATOM     21  F   UNL     1       5.012   0.741   2.812  0.00  0.00    -0.205 F 
ENDBRANCH  10  15
BRANCH  12  22
ATOM     22  N   UNL     1      -2.365   1.303   0.032  0.00  0.00    -0.345 N 
ATOM     23  H   UNL     1      -2.309   0.334   0.034  0.00  0.00    +0.144 HD
ATOM     24  H   UNL     1      -3.232   1.738   0.039  0.00  0.00    +0.144 HD
ENDBRANCH  12  22
BRANCH  11  25
ATOM     25  C   UNL     1       0.002  -0.004   0.002  0.00  0.00    +0.100 C 
ATOM     26  N   UNL     1       0.018  -1.140  -0.004  0.00  0.00    -0.191 NA
ENDBRANCH  11  25
TORSDOF 3
