REMARK  Name = ZINC44884209
REMARK  7 active torsions:
REMARK  status: ('A' for Active; 'I' for Inactive)
REMARK    1  A    between atoms: C_1  and  C_2
REMARK    2  A    between atoms: C_2  and  C_3
REMARK    3  A    between atoms: C_2  and  N_4
REMARK    4  A    between atoms: C_6  and  N_20
REMARK    5  A    between atoms: C_8  and  C_9
REMARK    6  A    between atoms: N_11  and  C_12
REMARK    7  A    between atoms: C_12  and  C_19
REMARK                            x       y       z     vdW  Elec       q    Type
REMARK                         _______ _______ _______ _____ _____    ______ ____
ROOT
ATOM      1  C   UNL     1      -1.223  -1.973  -2.056  0.00  0.00    +0.261 C 
ATOM      2  O   UNL     1      -1.847  -2.620  -2.877  0.00  0.00    -0.269 OA
ATOM      3  N   UNL     1       0.105  -1.798  -2.206  0.00  0.00    -0.303 N 
ATOM      4  H   UNL     1       0.616  -1.347  -1.516  0.00  0.00    +0.150 HD
ENDROOT
BRANCH   3   5
ATOM      5  C   UNL     1       0.777  -2.289  -3.412  0.00  0.00    +0.053 C 
ATOM      6  C   UNL     1       0.496  -3.784  -3.554  0.00  0.00    +0.049 C 
ATOM      7  C   UNL     1       1.661  -4.482  -4.310  0.00  0.00    +0.168 C 
ATOM      8  S   UNL     1       3.093  -3.585  -3.564  0.00  0.00    -0.029 S 
ATOM      9  O   UNL     1       4.119  -3.450  -4.538  0.00  0.00    -0.174 OA
ATOM     10  O   UNL     1       3.396  -4.158  -2.300  0.00  0.00    -0.174 OA
ATOM     11  C   UNL     1       2.278  -1.954  -3.312  0.00  0.00    +0.191 C 
ATOM     12  C   UNL     1       0.193  -1.566  -4.626  0.00  0.00    +0.033 C 
ENDBRANCH   3   5
BRANCH   1  17
ATOM     13  N   UNL     1      -3.238  -1.562  -0.576  0.00  0.00    -0.339 N 
ATOM     14  C   UNL     1      -3.502  -0.862   0.560  0.00  0.00    +0.109 A 
ATOM     15  C   UNL     1      -2.366  -0.233   0.959  0.00  0.00    +0.043 A 
ATOM     16  C   UNL     1      -1.356  -0.551   0.041  0.00  0.00    +0.055 A 
ATOM     17  C   UNL     1      -1.915  -1.385  -0.905  0.00  0.00    +0.106 A 
BRANCH  13  19
ATOM     18  C   UNL     1      -4.651  -3.555  -0.455  0.00  0.00    +0.030 C 
ATOM     19  C   UNL     1      -4.202  -2.376  -1.321  0.00  0.00    +0.081 C 
ATOM     20  C   UNL     1      -5.417  -1.521  -1.687  0.00  0.00    +0.030 C 
ENDBRANCH  13  19
BRANCH  15  21
ATOM     21  N   UNL     1      -2.229   0.592   2.092  0.00  0.00    -0.357 N 
ATOM     22  H   UNL     1      -2.991   0.753   2.670  0.00  0.00    +0.142 HD
ATOM     23  H   UNL     1      -1.372   0.998   2.295  0.00  0.00    +0.142 HD
ENDBRANCH  15  21
ENDBRANCH   1  17
TORSDOF 4
