REMARK  Name = ZINC19385328
REMARK  9 active torsions:
REMARK  status: ('A' for Active; 'I' for Inactive)
REMARK    1  A    between atoms: C_1  and  C_2
REMARK    2  A    between atoms: C_2  and  C_3
REMARK    3  A    between atoms: C_6  and  C_9
REMARK    4  A    between atoms: C_9  and  C_11
REMARK    5  A    between atoms: C_9  and  N_22
REMARK    6  A    between atoms: C_11  and  N_12
REMARK    7  A    between atoms: C_15  and  C_19
REMARK    8  A    between atoms: C_15  and  C_20
REMARK    9  A    between atoms: C_20  and  C_21
REMARK                            x       y       z     vdW  Elec       q    Type
REMARK                         _______ _______ _______ _____ _____    ______ ____
ROOT
ATOM      1  C   UNL     1       2.707  -1.867  -4.753  0.00  0.00    -0.026 C 
ENDROOT
BRANCH   1   5
ATOM      2  C   UNL     1       0.707  -0.490  -1.238  0.00  0.00    -0.048 A 
ATOM      3  C   UNL     1      -0.012  -0.729  -2.394  0.00  0.00    +0.004 A 
ATOM      4  C   UNL     1       0.635  -1.171  -3.532  0.00  0.00    +0.002 A 
ATOM      5  C   UNL     1       2.001  -1.382  -3.512  0.00  0.00    -0.060 A 
ATOM      6  C   UNL     1       2.720  -1.148  -2.355  0.00  0.00    +0.002 A 
ATOM      7  C   UNL     1       2.073  -0.702  -1.218  0.00  0.00    +0.004 A 
BRANCH   2   9
ATOM      8  C   UNL     1      -0.019   1.526   0.010  0.00  0.00    +0.009 C 
ATOM      9  C   UNL     1       0.002  -0.004   0.002  0.00  0.00    +0.032 C 
ENDBRANCH   2   9
ENDBRANCH   1   5
BRANCH   1  10
ATOM     10  N   UNL     1       2.146  -1.192  -5.931  0.00  0.00    +0.384 N 
ATOM     11  H   UNL     1       2.661  -1.546  -6.836  0.00  0.00    -0.089 HD
ATOM     12  H   UNL     1       2.284  -0.105  -5.831  0.00  0.00    -0.089 HD
ATOM     13  H   UNL     1       1.073  -1.420  -6.007  0.00  0.00    -0.089 HD
ENDBRANCH   1  10
BRANCH   1  14
ATOM     14  C   UNL     1       2.514  -3.378  -4.891  0.00  0.00    +0.106 C 
BRANCH  14  15
ATOM     15  N   UNL     1       3.097  -3.832  -6.156  0.00  0.00    -0.226 N 
ATOM     16  C   UNL     1       2.421  -3.899  -7.320  0.00  0.00    +0.246 C 
ATOM     17  O   UNL     1       1.260  -3.608  -7.510  0.00  0.00    -0.273 OA
ATOM     18  C   UNL     1       3.415  -4.414  -8.342  0.00  0.00    +0.109 C 
ATOM     19  N   UNL     1       4.650  -4.600  -7.561  0.00  0.00    -0.285 N 
ATOM     20  C   UNL     1       4.365  -4.234  -6.298  0.00  0.00    +0.309 C 
ATOM     21  O   UNL     1       5.170  -4.266  -5.388  0.00  0.00    -0.252 OA
ATOM     22  C   UNL     1       2.941  -5.746  -8.925  0.00  0.00    +0.041 C 
ATOM     23  H   UNL     1       5.560  -4.976  -8.052  0.00  0.00    +0.151 HD
BRANCH  18  24
ATOM     24  C   UNL     1       3.632  -3.388  -9.456  0.00  0.00    +0.031 C 
ATOM     25  C   UNL     1       4.716  -3.893 -10.411  0.00  0.00    +0.006 C 
ENDBRANCH  18  24
ENDBRANCH  14  15
ENDBRANCH   1  14
TORSDOF 6
