REMARK  Name = ZINC37036700
REMARK  4 active torsions:
REMARK  status: ('A' for Active; 'I' for Inactive)
REMARK    1  A    between atoms: C_1  and  C_2
REMARK    2  A    between atoms: C_3  and  S_8
REMARK    3  A    between atoms: S_8  and  C_9
REMARK    4  A    between atoms: C_9  and  C_10
REMARK                            x       y       z     vdW  Elec       q    Type
REMARK                         _______ _______ _______ _____ _____    ______ ____
ROOT
ATOM      1  C   UNL     1      -0.010  -1.173  -5.311  0.00  0.00    +0.230 C 
ATOM      2  O   UNL     1       0.026  -1.484  -4.139  0.00  0.00    -0.274 OA
ATOM      3  N   UNL     1      -0.103  -2.126  -6.259  0.00  0.00    -0.269 N 
ATOM      4  C   UNL     1      -0.107  -1.716  -7.660  0.00  0.00    +0.125 C 
ATOM      5  C   UNL     1      -1.350  -2.307  -8.343  0.00  0.00    +0.094 C 
ATOM      6  S   UNL     1      -1.173  -4.116  -8.341  0.00  0.00    -0.122 S 
ATOM      7  C   UNL     1      -0.663  -4.470  -6.689  0.00  0.00    +0.029 A 
ATOM      8  C   UNL     1      -0.186  -3.461  -5.855  0.00  0.00    +0.050 A 
ATOM      9  C   UNL     1       0.219  -3.781  -4.562  0.00  0.00    +0.024 A 
ATOM     10  C   UNL     1       0.151  -5.083  -4.110  0.00  0.00    +0.002 A 
ATOM     11  C   UNL     1      -0.323  -6.084  -4.939  0.00  0.00    +0.001 A 
ATOM     12  C   UNL     1      -0.736  -5.778  -6.226  0.00  0.00    +0.016 A 
ENDROOT
BRANCH   1  13
ATOM     13  C   UNL     1       0.051   0.280  -5.707  0.00  0.00    +0.171 C 
BRANCH  13  14
ATOM     14  S   UNL     1       0.214   1.306  -4.220  0.00  0.00    -0.107 S 
BRANCH  14  17
ATOM     15  C   UNL     1       0.489   4.141  -2.668  0.00  0.00    +0.067 C 
ATOM     16  C   UNL     1       0.387   4.132  -4.172  0.00  0.00    +0.061 A 
ATOM     17  C   UNL     1       0.271   2.954  -4.842  0.00  0.00    +0.070 A 
ATOM     18  S   UNL     1       0.192   3.539  -6.530  0.00  0.00    -0.046 S 
ATOM     19  C   UNL     1       0.322   5.284  -6.164  0.00  0.00    +0.157 A 
ATOM     20  N   UNL     1       0.404   5.269  -4.847  0.00  0.00    -0.229 NA
ATOM     21  N   UNL     1       0.328   6.368  -7.034  0.00  0.00    -0.337 N 
ATOM     22  H   UNL     1       0.254   6.223  -7.990  0.00  0.00    +0.144 HD
ATOM     23  H   UNL     1       0.407   7.269  -6.685  0.00  0.00    +0.144 HD
ENDBRANCH  14  17
ENDBRANCH  13  14
ENDBRANCH   1  13
TORSDOF 3
