REMARK  Name = ZINC39358919
REMARK  8 active torsions:
REMARK  status: ('A' for Active; 'I' for Inactive)
REMARK    1  A    between atoms: C_1  and  O_2
REMARK    2  A    between atoms: O_2  and  C_3
REMARK    3  A    between atoms: C_6  and  C_13
REMARK    4  A    between atoms: C_7  and  O_11
REMARK    5  A    between atoms: C_8  and  O_9
REMARK    6  A    between atoms: O_9  and  C_10
REMARK    7  A    between atoms: O_11  and  C_12
REMARK    8  A    between atoms: C_16  and  O_29
REMARK                            x       y       z     vdW  Elec       q    Type
REMARK                         _______ _______ _______ _____ _____    ______ ____
ROOT
ATOM      1  C   UNL     1       2.595  -2.541   4.320  0.00  0.00    +0.092 C 
ATOM      2  C   UNL     1       1.947  -2.140   5.611  0.00  0.00    +0.049 C 
ATOM      3  C   UNL     1       1.089  -2.710   6.428  0.00  0.00    +0.235 C 
ATOM      4  N   UNL     1       0.928  -1.950   7.546  0.00  0.00    -0.114 NA
ATOM      5  N   UNL     1       1.569  -0.891   7.542  0.00  0.00    -0.157 NA
ATOM      6  C   UNL     1       2.270  -0.791   6.260  0.00  0.00    +0.245 C 
ATOM      7  N   UNL     1       3.727  -0.809   6.406  0.00  0.00    -0.321 N 
ATOM      8  C   UNL     1       4.503  -1.289   5.380  0.00  0.00    +0.013 C 
ATOM      9  C   UNL     1       4.046  -2.088   4.390  0.00  0.00    +0.024 C 
ATOM     10  C   UNL     1       4.892  -2.542   3.365  0.00  0.00    +0.162 C 
ATOM     11  O   UNL     1       4.441  -3.268   2.501  0.00  0.00    -0.292 OA
ATOM     12  C   UNL     1       6.343  -2.151   3.312  0.00  0.00    +0.080 C 
ATOM     13  C   UNL     1       6.506  -0.783   3.984  0.00  0.00    +0.014 C 
ATOM     14  C   UNL     1       5.961  -0.879   5.413  0.00  0.00    +0.051 C 
ATOM     15  H   UNL     1       4.141  -0.484   7.221  0.00  0.00    +0.148 HD
ENDROOT
BRANCH   1  19
ATOM     16  C   UNL     1       0.626  -0.619   1.042  0.00  0.00    +0.165 A 
ATOM     17  C   UNL     1       1.202   0.138   2.051  0.00  0.00    +0.050 A 
ATOM     18  C   UNL     1       1.837  -0.486   3.109  0.00  0.00    +0.012 A 
ATOM     19  C   UNL     1       1.901  -1.866   3.165  0.00  0.00    +0.010 A 
ATOM     20  C   UNL     1       1.327  -2.630   2.160  0.00  0.00    +0.169 A 
ATOM     21  C   UNL     1       0.683  -2.006   1.098  0.00  0.00    +0.204 A 
BRANCH  16  23
ATOM     22  C   UNL     1      -0.017   1.425   0.010  0.00  0.00    +0.277 C 
ATOM     23  O   UNL     1       0.002  -0.004   0.002  0.00  0.00    -0.491 OA
ENDBRANCH  16  23
BRANCH  21  24
ATOM     24  O   UNL     1       0.114  -2.752   0.113  0.00  0.00    -0.488 OA
ATOM     25  C   UNL     1       0.939  -3.090  -1.004  0.00  0.00    +0.277 C 
ENDBRANCH  21  24
BRANCH  20  26
ATOM     26  O   UNL     1       1.391  -3.987   2.216  0.00  0.00    -0.491 OA
ATOM     27  C   UNL     1       0.325  -4.659   2.888  0.00  0.00    +0.277 C 
ENDBRANCH  20  26
ENDBRANCH   1  19
BRANCH   3  28
ATOM     28  O   UNL     1       0.453  -3.887   6.190  0.00  0.00    -0.491 OA
ATOM     29  H   UNL     1      -0.146  -4.161   6.898  0.00  0.00    +0.294 HD
ENDBRANCH   3  28
TORSDOF 5
