REMARK  Name = ZINC43510761
REMARK  4 active torsions:
REMARK  status: ('A' for Active; 'I' for Inactive)
REMARK    1  A    between atoms: C_1  and  C_2
REMARK    2  A    between atoms: C_9  and  C_22
REMARK    3  A    between atoms: C_12  and  C_21
REMARK    4  A    between atoms: C_18  and  O_20
REMARK                            x       y       z     vdW  Elec       q    Type
REMARK                         _______ _______ _______ _____ _____    ______ ____
ROOT
ATOM      1  C   UNL     1      -0.019   1.526   0.010  0.00  0.00    +0.008 C 
ATOM      2  C   UNL     1       0.002  -0.004   0.002  0.00  0.00    -0.007 C 
ATOM      3  C   UNL     1       0.720  -0.498  -1.256  0.00  0.00    +0.004 C 
ATOM      4  C   UNL     1       0.742  -2.028  -1.266  0.00  0.00    +0.001 C 
ATOM      5  C   UNL     1       1.476  -2.538  -0.024  0.00  0.00    +0.007 C 
ATOM      6  C   UNL     1       0.754  -2.040   1.230  0.00  0.00    +0.028 C 
ATOM      7  C   UNL     1       0.745  -0.512   1.242  0.00  0.00    -0.020 C 
ATOM      8  C   UNL     1       2.188   0.022   1.205  0.00  0.00    +0.042 C 
ATOM      9  C   UNL     1       2.947  -0.693   2.294  0.00  0.00    -0.017 C 
ATOM     10  C   UNL     1       3.724  -0.214   3.246  0.00  0.00    +0.036 C 
ATOM     11  C   UNL     1       4.160  -1.327   4.103  0.00  0.00    +0.336 C 
ATOM     12  O   UNL     1       4.948  -1.236   5.023  0.00  0.00    -0.245 OA
ATOM     13  O   UNL     1       3.549  -2.465   3.710  0.00  0.00    -0.451 OA
ATOM     14  C   UNL     1       2.906  -2.202   2.466  0.00  0.00    +0.232 C 
ATOM     15  C   UNL     1       1.443  -2.591   2.479  0.00  0.00    +0.163 C 
ATOM     16  C   UNL     1       4.104   1.233   3.425  0.00  0.00    +0.051 C 
ATOM     17  C   UNL     1       0.037  -0.014   2.503  0.00  0.00    +0.012 C 
ENDROOT
BRANCH  15  18
ATOM     18  O   UNL     1       1.352  -4.018   2.487  0.00  0.00    -0.387 OA
ATOM     19  H   UNL     1       1.770  -4.434   3.253  0.00  0.00    +0.210 HD
ENDBRANCH  15  18
TORSDOF 1
