REMARK  Name = ZINC01431474
REMARK  5 active torsions:
REMARK  status: ('A' for Active; 'I' for Inactive)
REMARK    1  A    between atoms: C_3  and  C_9
REMARK    2  A    between atoms: C_11  and  C_14
REMARK    3  A    between atoms: C_11  and  C_16
REMARK    4  A    between atoms: C_14  and  O_15
REMARK    5  A    between atoms: C_16  and  O_17
REMARK                            x       y       z     vdW  Elec       q    Type
REMARK                         _______ _______ _______ _____ _____    ______ ____
ROOT
ATOM      1  C   UNL     1      -1.267  -0.764   0.011  0.00  0.00    +0.220 C 
ATOM      2  N   UNL     1      -2.432  -0.196   0.025  0.00  0.00    -0.236 NA
ATOM      3  C   UNL     1      -3.466  -1.249   0.039  0.00  0.00    +0.145 C 
ATOM      4  C   UNL     1      -2.642  -2.503   0.422  0.00  0.00    +0.265 C 
ATOM      5  O   UNL     1      -1.318  -2.112  -0.002  0.00  0.00    -0.474 OA
ENDROOT
BRANCH   1   8
ATOM      6  C   UNL     1       2.403   0.034  -0.021  0.00  0.00    +0.021 A 
ATOM      7  C   UNL     1       1.223  -0.679  -0.013  0.00  0.00    +0.016 A 
ATOM      8  C   UNL     1       0.002  -0.004   0.002  0.00  0.00    +0.055 A 
ATOM      9  C   UNL     1      -0.017   1.393   0.010  0.00  0.00    +0.055 A 
ATOM     10  C   UNL     1       1.171   2.096   0.002  0.00  0.00    +0.040 A 
ATOM     11  C   UNL     1       2.379   1.419  -0.013  0.00  0.00    +0.042 A 
ATOM     12 CL   UNL     1       3.869   2.309  -0.023  0.00  0.00    -0.083 Cl
ATOM     13 CL   UNL     1      -1.531   2.242   0.021  0.00  0.00    -0.083 Cl
ENDBRANCH   1   8
BRANCH   3  14
ATOM     14  C   UNL     1      -4.534  -0.954   1.094  0.00  0.00    +0.191 C 
BRANCH  14  15
ATOM     15  O   UNL     1      -5.182   0.281   0.782  0.00  0.00    -0.392 OA
ATOM     16  H   UNL     1      -5.872   0.533   1.410  0.00  0.00    +0.210 HD
ENDBRANCH  14  15
ENDBRANCH   3  14
BRANCH   3  17
ATOM     17  C   UNL     1      -4.097  -1.413  -1.345  0.00  0.00    +0.191 C 
BRANCH  17  18
ATOM     18  O   UNL     1      -4.631  -0.160  -1.776  0.00  0.00    -0.392 OA
ATOM     19  H   UNL     1      -5.048  -0.189  -2.648  0.00  0.00    +0.210 HD
ENDBRANCH  17  18
ENDBRANCH   3  17
TORSDOF 5
