REMARK  Name = ZINC39469438
REMARK  8 active torsions:
REMARK  status: ('A' for Active; 'I' for Inactive)
REMARK    1  A    between atoms: C_1  and  C_2
REMARK    2  A    between atoms: C_2  and  O_3
REMARK    3  A    between atoms: O_3  and  P_4
REMARK    4  A    between atoms: C_12  and  S_23
REMARK    5  A    between atoms: C_13  and  O_22
REMARK    6  A    between atoms: S_23  and  C_26
REMARK    7  A    between atoms: C_26  and  C_27
REMARK    8  A    between atoms: C_26  and  C_28
REMARK                            x       y       z     vdW  Elec       q    Type
REMARK                         _______ _______ _______ _____ _____    ______ ____
ROOT
ATOM      1  P   UNL     1       0.906  -2.042   1.476  0.00  0.00    +0.421 P 
ATOM      2  O   UNL     1      -0.340  -2.793   1.205  0.00  0.00    -0.239 OA
ATOM      3  N   UNL     1       2.149  -2.644   0.573  0.00  0.00    -0.156 NA
ATOM      4  N   UNL     1       2.756  -3.805   1.009  0.00  0.00    -0.228 NA
ATOM      5  C   UNL     1       3.868  -4.089   0.086  0.00  0.00    +0.111 C 
ATOM      6  C   UNL     1       4.575  -5.382   0.463  0.00  0.00    +0.036 C 
ATOM      7  C   UNL     1       3.632  -6.551   0.375  0.00  0.00    +0.009 C 
ATOM      8  C   UNL     1       3.899  -7.662   1.056  0.00  0.00    +0.126 C 
ATOM      9  C   UNL     1       5.124  -7.732   1.877  0.00  0.00    +0.138 C 
ATOM     10  C   UNL     1       5.713  -6.606   2.285  0.00  0.00    +0.024 C 
ATOM     11  C   UNL     1       5.103  -5.281   1.897  0.00  0.00    +0.025 C 
ATOM     12  C   UNL     1       3.929  -4.973   2.828  0.00  0.00    +0.031 C 
ATOM     13  C   UNL     1       3.220  -3.684   2.394  0.00  0.00    +0.100 C 
ATOM     14  C   UNL     1       2.051  -3.465   3.362  0.00  0.00    +0.191 C 
ATOM     15  O   UNL     1       1.364  -2.248   3.023  0.00  0.00    -0.294 OA
ATOM     16  H   UNL     1       2.443  -2.198  -0.237  0.00  0.00    +0.153 HD
ENDROOT
BRANCH   8  17
ATOM     17  S   UNL     1       2.800  -9.037   0.980  0.00  0.00    +0.002 S 
ATOM     18  O   UNL     1       2.551  -9.378   2.337  0.00  0.00    -0.169 OA
ATOM     19  O   UNL     1       1.742  -8.609   0.134  0.00  0.00    -0.169 OA
BRANCH  17  20
ATOM     20  C   UNL     1       3.754 -10.351   0.171  0.00  0.00    +0.130 C 
ATOM     21  C   UNL     1       2.853 -11.566  -0.063  0.00  0.00    +0.032 C 
ATOM     22  C   UNL     1       4.284  -9.844  -1.172  0.00  0.00    +0.032 C 
ENDBRANCH  17  20
ENDBRANCH   8  17
BRANCH   9  23
ATOM     23  O   UNL     1       5.649  -8.939   2.217  0.00  0.00    -0.505 OA
ATOM     24  H   UNL     1       6.450  -8.882   2.755  0.00  0.00    +0.292 HD
ENDBRANCH   9  23
BRANCH   1  25
ATOM     25  O   UNL     1       0.693  -0.477   1.160  0.00  0.00    -0.296 OA
BRANCH  25  27
ATOM     26  C   UNL     1      -0.019   1.526   0.010  0.00  0.00    +0.035 C 
ATOM     27  C   UNL     1       0.002  -0.004   0.002  0.00  0.00    +0.168 C 
ENDBRANCH  25  27
ENDBRANCH   1  25
TORSDOF 5
