REMARK  Name = ZINC13080686
REMARK  6 active torsions:
REMARK  status: ('A' for Active; 'I' for Inactive)
REMARK    1  A    between atoms: C_5  and  N_7
REMARK    2  A    between atoms: C_8  and  C_10
REMARK    3  A    between atoms: C_10  and  S_11
REMARK    4  A    between atoms: S_11  and  C_12
REMARK    5  A    between atoms: C_13  and  C_29
REMARK    6  A    between atoms: C_14  and  C_24
REMARK                            x       y       z     vdW  Elec       q    Type
REMARK                         _______ _______ _______ _____ _____    ______ ____
ROOT
ATOM      1  C   UNL     1      -1.372  -6.657   0.438  0.00  0.00    +0.112 C 
ATOM      2  C   UNL     1      -2.497  -7.455   0.548  0.00  0.00    +0.076 C 
ATOM      3  C   UNL     1      -2.279  -8.955   0.641  0.00  0.00    +0.133 C 
ATOM      4  C   UNL     1      -0.834  -9.416   0.603  0.00  0.00    +0.032 C 
ATOM      5  C   UNL     1      -0.546 -10.726   0.677  0.00  0.00    +0.162 C 
ATOM      6  C   UNL     1       0.877 -11.217   0.642  0.00  0.00    +0.080 C 
ATOM      7  C   UNL     1       1.729 -10.242  -0.175  0.00  0.00    +0.014 C 
ATOM      8  C   UNL     1       1.619  -8.847   0.448  0.00  0.00    +0.056 C 
ATOM      9  C   UNL     1       0.167  -8.434   0.487  0.00  0.00    +0.050 C 
ATOM     10  N   UNL     1      -0.138  -7.163   0.408  0.00  0.00    -0.244 NA
ATOM     11  O   UNL     1      -1.550 -11.618   0.784  0.00  0.00    -0.292 OA
ENDROOT
BRANCH   3  12
ATOM     12  C   UNL     1      -3.009  -9.610  -0.503  0.00  0.00    +0.117 A 
ATOM     13  C   UNL     1      -3.996 -10.516  -0.390  0.00  0.00    +0.045 A 
ATOM     14  C   UNL     1      -4.389 -10.860  -1.704  0.00  0.00    +0.041 A 
ATOM     15  C   UNL     1      -3.617 -10.143  -2.541  0.00  0.00    +0.195 A 
ATOM     16  O   UNL     1      -2.787  -9.383  -1.808  0.00  0.00    -0.467 OA
ENDBRANCH   3  12
BRANCH   2  17
ATOM     17  C   UNL     1      -3.813  -6.891   0.572  0.00  0.00    +0.099 C 
ATOM     18  N   UNL     1      -4.857  -6.443   0.592  0.00  0.00    -0.191 NA
ENDBRANCH   2  17
BRANCH   1  19
ATOM     19  S   UNL     1      -1.577  -4.910   0.325  0.00  0.00    -0.096 S 
BRANCH  19  20
ATOM     20  C   UNL     1       0.117  -4.277   0.192  0.00  0.00    +0.172 C 
BRANCH  20  22
ATOM     21  N   UNL     1       1.236  -2.081  -0.022  0.00  0.00    -0.283 N 
ATOM     22  C   UNL     1       0.085  -2.774   0.087  0.00  0.00    +0.228 C 
ATOM     23  O   UNL     1      -0.977  -2.187   0.102  0.00  0.00    -0.275 OA
ATOM     24  H   UNL     1       2.079  -2.552  -0.115  0.00  0.00    +0.155 HD
BRANCH  21  29
ATOM     25  C   UNL     1       0.153   1.372   0.637  0.00  0.00    +0.002 A 
ATOM     26  C   UNL     1       1.173   2.087   0.036  0.00  0.00    +0.003 A 
ATOM     27  C   UNL     1       2.214   1.423  -0.585  0.00  0.00    +0.040 A 
ATOM     28  C   UNL     1       2.239   0.040  -0.607  0.00  0.00    +0.144 A 
ATOM     29  C   UNL     1       1.215  -0.681  -0.002  0.00  0.00    +0.069 A 
ATOM     30  C   UNL     1       0.172  -0.009   0.620  0.00  0.00    +0.026 A 
ATOM     31  F   UNL     1       3.256  -0.609  -1.214  0.00  0.00    -0.204 F 
ENDBRANCH  21  29
ENDBRANCH  20  22
ENDBRANCH  19  20
ENDBRANCH   1  19
TORSDOF 6
