REMARK  Name = ZINC49571658
REMARK  4 active torsions:
REMARK  status: ('A' for Active; 'I' for Inactive)
REMARK    1  A    between atoms: C_4  and  N_6
REMARK    2  A    between atoms: N_6  and  C_7
REMARK    3  A    between atoms: C_7  and  C_8
REMARK    4  A    between atoms: N_13  and  C_14
REMARK                            x       y       z     vdW  Elec       q    Type
REMARK                         _______ _______ _______ _____ _____    ______ ____
ROOT
ATOM      1  N   UNL     1       1.136  -1.207  -1.821  0.00  0.00    -0.272 N 
ATOM      2  C   UNL     1       1.647  -2.450  -1.922  0.00  0.00    +0.303 C 
ATOM      3  O   UNL     1       2.287  -2.921  -1.002  0.00  0.00    -0.253 OA
ATOM      4  N   UNL     1       1.447  -3.172  -3.042  0.00  0.00    -0.298 N 
ATOM      5  H   UNL     1       0.935  -2.797  -3.776  0.00  0.00    +0.150 HD
ENDROOT
BRANCH   4   6
ATOM      6  C   UNL     1       2.001  -4.524  -3.151  0.00  0.00    +0.059 C 
ATOM      7  C   UNL     1       1.003  -5.574  -2.596  0.00  0.00    +0.002 C 
ATOM      8  C   UNL     1       1.422  -6.846  -3.373  0.00  0.00    -0.077 C 
ATOM      9  N   UNL     1       1.789  -6.367  -4.724  0.00  0.00    +0.383 N 
ATOM     10  C   UNL     1       2.153  -4.934  -4.630  0.00  0.00    -0.048 C 
ATOM     11  C   UNL     1       3.632  -4.805  -5.043  0.00  0.00    -0.015 C 
ATOM     12  C   UNL     1       3.859  -6.067  -5.917  0.00  0.00    -0.020 C 
ATOM     13  C   UNL     1       2.977  -7.116  -5.188  0.00  0.00    -0.078 C 
ATOM     14  H   UNL     1       1.020  -6.498  -5.364  0.00  0.00    -0.081 HD
ENDBRANCH   4   6
BRANCH   1  18
ATOM     15  C   UNL     1      -0.019   1.538   0.011  0.00  0.00    +0.002 C 
ATOM     16  C   UNL     1       1.477   1.939  -0.002  0.00  0.00    +0.002 C 
ATOM     17  C   UNL     1       2.107   0.881  -0.942  0.00  0.00    +0.022 C 
ATOM     18  C   UNL     1       1.353  -0.422  -0.604  0.00  0.00    +0.078 C 
ATOM     19  C   UNL     1       0.002  -0.004   0.002  0.00  0.00    +0.022 C 
ENDBRANCH   1  18
BRANCH   1  20
ATOM     20  C   UNL     1       0.364  -0.640  -2.930  0.00  0.00    +0.234 C 
BRANCH  20  21
ATOM     21  C   UNL     1       1.292   0.088  -3.868  0.00  0.00    +0.373 C 
ATOM     22  O   UNL     1       2.488   0.131  -3.631  0.00  0.00    -0.245 OA
ATOM     23  O   UNL     1       0.848   0.636  -4.862  0.00  0.00    -0.245 OA
ENDBRANCH  20  21
ENDBRANCH   1  20
TORSDOF 4
