REMARK  Name = ZINC60879740
REMARK  7 active torsions:
REMARK  status: ('A' for Active; 'I' for Inactive)
REMARK    1  A    between atoms: C_1  and  C_2
REMARK    2  A    between atoms: C_4  and  C_23
REMARK    3  A    between atoms: C_6  and  C_22
REMARK    4  A    between atoms: C_10  and  C_11
REMARK    5  A    between atoms: N_13  and  C_14
REMARK    6  A    between atoms: C_15  and  C_21
REMARK    7  A    between atoms: C_19  and  C_20
REMARK                            x       y       z     vdW  Elec       q    Type
REMARK                         _______ _______ _______ _____ _____    ______ ____
ROOT
ATOM      1  C   UNL     1      -0.256   0.208   1.107  0.00  0.00    +0.046 C 
ATOM      2  C   UNL     1       0.303  -1.066   0.526  0.00  0.00    -0.020 A 
ATOM      3  C   UNL     1      -0.264  -1.618  -0.634  0.00  0.00    +0.032 A 
ATOM      4  C   UNL     1      -1.352  -1.151  -1.413  0.00  0.00    +0.050 A 
ATOM      5  N   UNL     1      -1.723  -1.831  -2.475  0.00  0.00    -0.237 NA
ATOM      6  C   UNL     1      -1.117  -2.944  -2.852  0.00  0.00    +0.128 A 
ATOM      7  N   UNL     1      -0.098  -3.434  -2.173  0.00  0.00    -0.225 NA
ATOM      8  C   UNL     1       0.339  -2.817  -1.097  0.00  0.00    +0.113 A 
ATOM      9  S   UNL     1       1.633  -3.105   0.082  0.00  0.00    -0.064 S 
ATOM     10  C   UNL     1       1.360  -1.680   1.121  0.00  0.00    +0.080 A 
ATOM     11  C   UNL     1      -1.602  -3.668  -4.081  0.00  0.00    +0.088 C 
ATOM     12  C   UNL     1      -2.077   0.113  -1.026  0.00  0.00    +0.066 C 
ENDROOT
BRANCH  10  13
ATOM     13  C   UNL     1       2.096  -1.271   2.326  0.00  0.00    +0.255 C 
ATOM     14  O   UNL     1       1.774  -0.260   2.922  0.00  0.00    -0.269 OA
ATOM     15  N   UNL     1       3.128  -2.015   2.770  0.00  0.00    -0.278 N 
ATOM     16  H   UNL     1       3.417  -2.792   2.267  0.00  0.00    +0.155 HD
BRANCH  15  17
ATOM     17  C   UNL     1       3.786  -1.665   3.963  0.00  0.00    +0.077 A 
ATOM     18  C   UNL     1       3.917  -2.449   5.064  0.00  0.00    +0.054 A 
ATOM     19  N   UNL     1       4.615  -1.742   5.990  0.00  0.00    -0.280 N 
ATOM     20  H   UNL     1       4.861  -2.050   6.876  0.00  0.00    +0.189 HD
ATOM     21  N   UNL     1       4.918  -0.491   5.438  0.00  0.00    -0.177 NA
ATOM     22  C   UNL     1       4.427  -0.445   4.226  0.00  0.00    +0.081 A 
ATOM     23  C   UNL     1       4.531   0.719   3.275  0.00  0.00    +0.069 C 
ATOM     24  C   UNL     1       3.386  -3.850   5.227  0.00  0.00    +0.067 C 
ENDBRANCH  15  17
ENDBRANCH  10  13
TORSDOF 2
