REMARK  Name = ZINC63746445
REMARK  4 active torsions:
REMARK  status: ('A' for Active; 'I' for Inactive)
REMARK    1  A    between atoms: C_4  and  C_7
REMARK    2  A    between atoms: C_12  and  N_25
REMARK    3  A    between atoms: C_15  and  C_17
REMARK    4  A    between atoms: N_28  and  C_29
REMARK                            x       y       z     vdW  Elec       q    Type
REMARK                         _______ _______ _______ _____ _____    ______ ____
ROOT
ATOM      1  C   UNL     1       3.404  -1.432   0.051  0.00  0.00    -0.000 C 
ATOM      2  C   UNL     1       4.652  -0.967   0.427  0.00  0.00    +0.006 A 
ATOM      3  C   UNL     1       5.108   0.290   0.893  0.00  0.00    +0.010 A 
ATOM      4  C   UNL     1       6.413   0.476   1.194  0.00  0.00    +0.003 A 
ATOM      5  C   UNL     1       7.364  -0.541   1.066  0.00  0.00    +0.025 A 
ATOM      6  C   UNL     1       7.029  -1.784   0.628  0.00  0.00    +0.058 A 
ATOM      7  C   UNL     1       5.628  -2.065   0.279  0.00  0.00    +0.065 A 
ATOM      8  N   UNL     1       5.037  -3.150  -0.160  0.00  0.00    -0.368 N 
ATOM      9  C   UNL     1       3.607  -2.878  -0.342  0.00  0.00    +0.198 C 
ATOM     10  H   UNL     1       5.475  -3.998  -0.334  0.00  0.00    +0.161 HD
ENDROOT
BRANCH   9  11
ATOM     11  C   UNL     1       3.222  -3.083  -1.785  0.00  0.00    +0.243 C 
ATOM     12  O   UNL     1       4.058  -2.974  -2.657  0.00  0.00    -0.273 OA
ATOM     13  N   UNL     1       1.949  -3.388  -2.106  0.00  0.00    -0.295 N 
ATOM     14  C   UNL     1       0.932  -3.591  -1.061  0.00  0.00    +0.136 C 
ATOM     15  C   UNL     1      -0.290  -2.731  -1.403  0.00  0.00    +0.179 C 
ATOM     16  O   UNL     1      -0.696  -3.003  -2.746  0.00  0.00    -0.377 OA
ATOM     17  C   UNL     1       0.283  -2.671  -3.733  0.00  0.00    +0.179 C 
ATOM     18  C   UNL     1       1.534  -3.523  -3.511  0.00  0.00    +0.136 C 
ENDBRANCH   9  11
BRANCH   1  22
ATOM     19  C   UNL     1      -0.232   0.741   0.024  0.00  0.00    +0.000 A 
ATOM     20  C   UNL     1      -0.109  -0.385   0.821  0.00  0.00    +0.001 A 
ATOM     21  C   UNL     1       1.070  -1.098   0.836  0.00  0.00    +0.008 A 
ATOM     22  C   UNL     1       2.147  -0.681   0.041  0.00  0.00    -0.019 A 
ATOM     23  C   UNL     1       2.013   0.460  -0.762  0.00  0.00    +0.008 A 
ATOM     24  C   UNL     1       0.827   1.161  -0.764  0.00  0.00    +0.001 A 
ENDBRANCH   1  22
BRANCH   6  25
ATOM     25  N   UNL     1       8.003  -2.780   0.509  0.00  0.00    -0.267 N 
ATOM     26  C   UNL     1       9.140  -2.700   1.228  0.00  0.00    +0.308 C 
ATOM     27  O   UNL     1       9.288  -1.802   2.034  0.00  0.00    -0.252 OA
ATOM     28  N   UNL     1      10.114  -3.616   1.054  0.00  0.00    -0.268 N 
ATOM     29  H   UNL     1       7.860  -3.529  -0.090  0.00  0.00    +0.156 HD
ATOM     30  H   UNL     1      10.025  -4.293   0.365  0.00  0.00    +0.156 HD
BRANCH  28  31
ATOM     31  C   UNL     1      11.252  -3.591   1.869  0.00  0.00    +0.053 A 
ATOM     32  C   UNL     1      11.228  -2.909   3.078  0.00  0.00    +0.025 A 
ATOM     33  C   UNL     1      12.353  -2.886   3.879  0.00  0.00    +0.002 A 
ATOM     34  C   UNL     1      13.503  -3.542   3.479  0.00  0.00    +0.002 A 
ATOM     35  C   UNL     1      13.531  -4.222   2.275  0.00  0.00    +0.022 A 
ATOM     36  C   UNL     1      12.407  -4.254   1.471  0.00  0.00    +0.062 A 
ATOM     37 CL   UNL     1      12.441  -5.114  -0.036  0.00  0.00    -0.082 Cl
ENDBRANCH  28  31
ENDBRANCH   6  25
TORSDOF 4
