REMARK  Name = ZINC62248939
REMARK  3 active torsions:
REMARK  status: ('A' for Active; 'I' for Inactive)
REMARK    1  A    between atoms: C_4  and  N_19
REMARK    2  A    between atoms: C_6  and  S_7
REMARK    3  A    between atoms: S_7  and  N_10
REMARK                            x       y       z     vdW  Elec       q    Type
REMARK                         _______ _______ _______ _____ _____    ______ ____
ROOT
ATOM      1  S   UNL     1      -1.513  -0.904   0.012  0.00  0.00    +0.061 S 
ATOM      2  O   UNL     1      -1.220  -2.185   0.553  0.00  0.00    -0.153 OA
ATOM      3  O   UNL     1      -2.493  -0.044   0.577  0.00  0.00    -0.153 OA
ENDROOT
BRANCH   1   4
ATOM      4  N   UNL     1      -1.949  -1.146  -1.567  0.00  0.00    -0.168 NA
ATOM      5  C   UNL     1      -2.787  -0.169  -2.279  0.00  0.00    +0.131 C 
ATOM      6  C   UNL     1      -1.986   0.429  -3.441  0.00  0.00    +0.140 C 
ATOM      7  N   UNL     1      -1.308  -0.649  -4.165  0.00  0.00    -0.332 N 
ATOM      8  C   UNL     1      -0.795  -0.608  -5.428  0.00  0.00    +0.107 A 
ATOM      9  C   UNL     1      -0.261  -1.822  -5.670  0.00  0.00    +0.130 A 
ATOM     10  N   UNL     1      -0.446  -2.584  -4.579  0.00  0.00    -0.239 NA
ATOM     11  C   UNL     1      -1.075  -1.891  -3.677  0.00  0.00    +0.126 A 
ATOM     12  C   UNL     1      -1.503  -2.344  -2.303  0.00  0.00    +0.183 C 
ENDBRANCH   1   4
BRANCH   1  18
ATOM     13  C   UNL     1      -0.017   1.378   0.010  0.00  0.00    +0.031 A 
ATOM     14  C   UNL     1       1.170   2.089   0.002  0.00  0.00    +0.042 A 
ATOM     15  C   UNL     1       2.379   1.419  -0.013  0.00  0.00    +0.144 A 
ATOM     16  C   UNL     1       2.400   0.028  -0.021  0.00  0.00    +0.062 A 
ATOM     17  C   UNL     1       1.207  -0.681  -0.013  0.00  0.00    +0.054 A 
ATOM     18  C   UNL     1       0.002  -0.004   0.002  0.00  0.00    +0.107 A 
ATOM     19  F   UNL     1       3.537   2.113  -0.022  0.00  0.00    -0.204 F 
BRANCH  16  20
ATOM     20  N   UNL     1       3.620  -0.654  -0.037  0.00  0.00    -0.356 N 
ATOM     21  H   UNL     1       4.454  -0.158  -0.043  0.00  0.00    +0.142 HD
ATOM     22  H   UNL     1       3.634  -1.624  -0.043  0.00  0.00    +0.142 HD
ENDBRANCH  16  20
ENDBRANCH   1  18
TORSDOF 3
