REMARK  Name = ZINC39580843
REMARK  4 active torsions:
REMARK  status: ('A' for Active; 'I' for Inactive)
REMARK    1  A    between atoms: C_4  and  C_7
REMARK    2  A    between atoms: C_11  and  C_35
REMARK    3  A    between atoms: C_14  and  C_29
REMARK    4  A    between atoms: C_20  and  C_23
REMARK                            x       y       z     vdW  Elec       q    Type
REMARK                         _______ _______ _______ _____ _____    ______ ____
ROOT
ATOM      1  C   UNL     1       3.774  -0.941  -0.260  0.00  0.00    -0.027 C 
ATOM      2  C   UNL     1       4.082  -1.500  -1.659  0.00  0.00    +0.079 C 
ATOM      3  C   UNL     1       5.410  -2.273  -1.577  0.00  0.00    +0.158 C 
ATOM      4  O   UNL     1       5.289  -3.307  -0.598  0.00  0.00    -0.363 OA
ATOM      5  C   UNL     1       4.312  -4.308  -0.884  0.00  0.00    +0.158 C 
ATOM      6  C   UNL     1       2.919  -3.655  -0.927  0.00  0.00    +0.079 C 
ATOM      7  C   UNL     1       2.992  -2.523  -1.966  0.00  0.00    +0.143 C 
ATOM      8  O   UNL     1       2.272  -2.451  -2.933  0.00  0.00    -0.297 OA
ATOM      9  C   UNL     1       2.667  -2.992   0.437  0.00  0.00    -0.027 C 
ATOM     10  N   UNL     1       3.751  -2.041   0.710  0.00  0.00    +0.389 N 
ATOM     11  H   UNL     1       4.627  -2.541   0.665  0.00  0.00    -0.084 HD
ATOM     12  H   UNL     1       3.633  -1.663   1.637  0.00  0.00    -0.084 HD
ENDROOT
BRANCH   1  16
ATOM     13  C   UNL     1      -0.031   1.000  -0.306  0.00  0.00    +0.000 A 
ATOM     14  C   UNL     1       0.472   0.492   0.877  0.00  0.00    +0.000 A 
ATOM     15  C   UNL     1       1.703  -0.136   0.892  0.00  0.00    +0.002 A 
ATOM     16  C   UNL     1       2.432  -0.257  -0.277  0.00  0.00    -0.061 A 
ATOM     17  C   UNL     1       1.928   0.250  -1.460  0.00  0.00    +0.002 A 
ATOM     18  C   UNL     1       0.698   0.879  -1.475  0.00  0.00    +0.000 A 
ENDBRANCH   1  16
BRANCH   9  19
ATOM     19  C   UNL     1       2.611  -4.050   1.508  0.00  0.00    -0.061 A 
ATOM     20  C   UNL     1       3.438  -3.961   2.612  0.00  0.00    +0.002 A 
ATOM     21  C   UNL     1       3.387  -4.932   3.595  0.00  0.00    +0.000 A 
ATOM     22  C   UNL     1       2.508  -5.992   3.474  0.00  0.00    +0.000 A 
ATOM     23  C   UNL     1       1.680  -6.080   2.370  0.00  0.00    +0.000 A 
ATOM     24  C   UNL     1       1.728  -5.107   1.390  0.00  0.00    +0.002 A 
ENDBRANCH   9  19
BRANCH   5  25
ATOM     25  C   UNL     1       4.342  -5.363   0.191  0.00  0.00    -0.018 A 
ATOM     26  C   UNL     1       3.517  -6.468   0.098  0.00  0.00    +0.006 A 
ATOM     27  C   UNL     1       3.544  -7.436   1.084  0.00  0.00    +0.000 A 
ATOM     28  C   UNL     1       4.398  -7.300   2.163  0.00  0.00    +0.000 A 
ATOM     29  C   UNL     1       5.224  -6.195   2.255  0.00  0.00    +0.000 A 
ATOM     30  C   UNL     1       5.199  -5.229   1.267  0.00  0.00    +0.006 A 
ENDBRANCH   5  25
BRANCH   3  31
ATOM     31  C   UNL     1       6.518  -1.331  -1.182  0.00  0.00    -0.018 A 
ATOM     32  C   UNL     1       6.752  -1.060   0.153  0.00  0.00    +0.006 A 
ATOM     33  C   UNL     1       7.768  -0.196   0.515  0.00  0.00    +0.000 A 
ATOM     34  C   UNL     1       8.550   0.398  -0.458  0.00  0.00    +0.000 A 
ATOM     35  C   UNL     1       8.316   0.127  -1.793  0.00  0.00    +0.000 A 
ATOM     36  C   UNL     1       7.303  -0.741  -2.155  0.00  0.00    +0.006 A 
ENDBRANCH   3  31
TORSDOF 4
