REMARK  Name = ZINC38039665
REMARK  4 active torsions:
REMARK  status: ('A' for Active; 'I' for Inactive)
REMARK    1  A    between atoms: C_3  and  N_20
REMARK    2  A    between atoms: C_4  and  S_8
REMARK    3  A    between atoms: S_8  and  N_11
REMARK    4  A    between atoms: C_15  and  C_17
REMARK                            x       y       z     vdW  Elec       q    Type
REMARK                         _______ _______ _______ _____ _____    ______ ____
ROOT
ATOM      1  S   UNL     1       4.203  -0.883   0.029  0.00  0.00    +0.064 S 
ATOM      2  O   UNL     1       4.864  -0.358   1.172  0.00  0.00    -0.153 OA
ATOM      3  O   UNL     1       3.935  -2.270  -0.126  0.00  0.00    -0.153 OA
ENDROOT
BRANCH   1   7
ATOM      4  C   UNL     1       0.218   1.247  -0.254  0.00  0.00    +0.017 A 
ATOM      5  C   UNL     1       0.583   0.614   0.920  0.00  0.00    +0.036 A 
ATOM      6  C   UNL     1       1.799  -0.036   1.006  0.00  0.00    +0.152 A 
ATOM      7  C   UNL     1       2.652  -0.055  -0.082  0.00  0.00    +0.137 A 
ATOM      8  C   UNL     1       2.289   0.577  -1.256  0.00  0.00    +0.046 A 
ATOM      9  C   UNL     1       1.071   1.229  -1.342  0.00  0.00    +0.020 A 
ATOM     10 BR   UNL     1       0.573   2.093  -2.949  0.00  0.00    -0.050 Br
BRANCH   6  11
ATOM     11  N   UNL     1       2.189  -0.713   2.263  0.00  0.00    +0.058 N 
ATOM     12  O   UNL     1       1.507  -0.588   3.254  0.00  0.00    -0.126 OA
ATOM     13  O   UNL     1       3.190  -1.390   2.300  0.00  0.00    -0.126 OA
ENDBRANCH   6  11
ENDBRANCH   1   7
BRANCH   1  14
ATOM     14  N   UNL     1       5.098  -0.425  -1.287  0.00  0.00    -0.165 NA
ATOM     15  C   UNL     1       5.020  -1.026  -2.631  0.00  0.00    +0.110 C 
ATOM     16  C   UNL     1       5.525   0.080  -3.591  0.00  0.00    +0.019 C 
ATOM     17  C   UNL     1       6.653   0.732  -2.748  0.00  0.00    +0.031 C 
ATOM     18  C   UNL     1       6.098   0.653  -1.310  0.00  0.00    +0.165 C 
BRANCH  18  19
ATOM     19  C   UNL     1       7.215   0.337  -0.349  0.00  0.00    +0.229 C 
ATOM     20  O   UNL     1       7.186  -0.689   0.297  0.00  0.00    -0.274 OA
ATOM     21  N   UNL     1       8.245   1.194  -0.208  0.00  0.00    -0.328 N 
ATOM     22  H   UNL     1       8.268   2.014  -0.726  0.00  0.00    +0.145 HD
ATOM     23  H   UNL     1       8.964   0.991   0.410  0.00  0.00    +0.145 HD
ENDBRANCH  18  19
ENDBRANCH   1  14
TORSDOF 4
