REMARK  Name = ZINC63573376
REMARK  6 active torsions:
REMARK  status: ('A' for Active; 'I' for Inactive)
REMARK    1  A    between atoms: C_1  and  C_2
REMARK    2  A    between atoms: C_5  and  C_8
REMARK    3  A    between atoms: C_15  and  O_20
REMARK    4  A    between atoms: O_20  and  C_21
REMARK    5  A    between atoms: N_27  and  C_28
REMARK    6  A    between atoms: C_33  and  C_34
REMARK                            x       y       z     vdW  Elec       q    Type
REMARK                         _______ _______ _______ _____ _____    ______ ____
ROOT
ATOM      1  C   UNL     1       0.463  -4.795   0.185  0.00  0.00    +0.134 C 
ATOM      2  C   UNL     1       1.827  -5.210   0.748  0.00  0.00    +0.131 C 
ATOM      3  C   UNL     1       1.966  -4.524   2.101  0.00  0.00    -0.035 C 
ATOM      4  C   UNL     1       3.089  -3.818   2.050  0.00  0.00    +0.003 A 
ATOM      5  C   UNL     1       3.785  -3.006   3.060  0.00  0.00    +0.055 A 
ATOM      6  C   UNL     1       4.935  -2.393   2.664  0.00  0.00    +0.121 A 
ATOM      7  C   UNL     1       5.473  -2.495   1.373  0.00  0.00    +0.047 A 
ATOM      8  C   UNL     1       4.916  -3.219   0.368  0.00  0.00    +0.029 A 
ATOM      9  C   UNL     1       3.670  -3.933   0.676  0.00  0.00    +0.043 A 
ATOM     10  N   UNL     1       2.930  -4.720  -0.082  0.00  0.00    -0.375 N 
ATOM     11  C   UNL     1       0.916  -4.640   3.179  0.00  0.00    +0.052 C 
ATOM     12  C   UNL     1      -0.433  -4.298   2.522  0.00  0.00    +0.114 C 
ATOM     13  N   UNL     1      -0.543  -5.000   1.238  0.00  0.00    -0.276 N 
ATOM     14  C   UNL     1      -1.573  -5.842   1.022  0.00  0.00    +0.307 C 
ATOM     15  O   UNL     1      -1.627  -6.485  -0.009  0.00  0.00    -0.252 OA
ATOM     16  N   UNL     1      -2.543  -5.972   1.949  0.00  0.00    -0.269 N 
ATOM     17  H   UNL     1      -2.514  -5.439   2.759  0.00  0.00    +0.156 HD
ATOM     18  H   UNL     1       3.077  -4.937  -1.016  0.00  0.00    +0.160 HD
ENDROOT
BRANCH  16  19
ATOM     19  C   UNL     1      -3.591  -6.876   1.743  0.00  0.00    +0.039 A 
ATOM     20  C   UNL     1      -3.906  -7.294   0.456  0.00  0.00    +0.043 A 
ATOM     21  C   UNL     1      -4.942  -8.187   0.256  0.00  0.00    +0.043 A 
ATOM     22  C   UNL     1      -5.664  -8.664   1.337  0.00  0.00    +0.020 A 
ATOM     23  C   UNL     1      -5.352  -8.249   2.618  0.00  0.00    +0.006 A 
ATOM     24  C   UNL     1      -4.314  -7.361   2.824  0.00  0.00    -0.029 A 
ATOM     25  C   UNL     1      -3.971  -6.914   4.222  0.00  0.00    +0.045 C 
ATOM     26 CL   UNL     1      -5.337  -8.710  -1.351  0.00  0.00    -0.083 Cl
ENDBRANCH  16  19
BRANCH   1  31
ATOM     27  C   UNL     1       0.593   0.778  -1.338  0.00  0.00    +0.044 C 
ATOM     28  C   UNL     1       0.559  -0.675  -0.941  0.00  0.00    -0.050 A 
ATOM     29  C   UNL     1       0.891  -1.047   0.349  0.00  0.00    +0.004 A 
ATOM     30  C   UNL     1       0.860  -2.380   0.713  0.00  0.00    +0.006 A 
ATOM     31  C   UNL     1       0.496  -3.341  -0.212  0.00  0.00    -0.025 A 
ATOM     32  C   UNL     1       0.164  -2.969  -1.501  0.00  0.00    +0.006 A 
ATOM     33  C   UNL     1       0.191  -1.635  -1.864  0.00  0.00    +0.004 A 
ENDBRANCH   1  31
BRANCH   6  34
ATOM     34  O   UNL     1       5.601  -1.636   3.575  0.00  0.00    -0.495 OA
ATOM     35  C   UNL     1       6.804  -1.002   3.137  0.00  0.00    +0.277 C 
ENDBRANCH   6  34
TORSDOF 3
