REMARK  Name = ZINC03410897
REMARK  7 active torsions:
REMARK  status: ('A' for Active; 'I' for Inactive)
REMARK    1  A    between atoms: C_1  and  C_2
REMARK    2  A    between atoms: C_2  and  C_4
REMARK    3  A    between atoms: C_2  and  N_14
REMARK    4  A    between atoms: C_7  and  S_10
REMARK    5  A    between atoms: S_10  and  N_13
REMARK    6  A    between atoms: C_15  and  C_17
REMARK    7  A    between atoms: C_17  and  N_18
REMARK                            x       y       z     vdW  Elec       q    Type
REMARK                         _______ _______ _______ _____ _____    ______ ____
ROOT
ATOM      1  N   UNL     1      -2.251   3.802   5.821  0.00  0.00    -0.307 N 
ATOM      2  C   UNL     1      -2.528   3.835   7.139  0.00  0.00    +0.233 C 
ATOM      3  O   UNL     1      -3.507   3.261   7.568  0.00  0.00    -0.274 OA
ATOM      4  H   UNL     1      -1.468   4.261   5.478  0.00  0.00    +0.149 HD
ENDROOT
BRANCH   1   6
ATOM      5  C   UNL     1      -4.295   3.975   4.489  0.00  0.00    +0.033 C 
ATOM      6  C   UNL     1      -3.132   3.072   4.905  0.00  0.00    +0.100 C 
BRANCH   6   7
ATOM      7  C   UNL     1      -2.354   2.659   3.683  0.00  0.00    -0.027 A 
ATOM      8  C   UNL     1      -2.559   1.412   3.122  0.00  0.00    +0.007 A 
ATOM      9  C   UNL     1      -1.846   1.033   2.000  0.00  0.00    +0.029 A 
ATOM     10  C   UNL     1      -0.927   1.900   1.439  0.00  0.00    +0.105 A 
ATOM     11  C   UNL     1      -0.717   3.145   2.004  0.00  0.00    +0.029 A 
ATOM     12  C   UNL     1      -1.434   3.526   3.123  0.00  0.00    +0.007 A 
BRANCH  10  13
ATOM     13  S   UNL     1      -0.017   1.417   0.010  0.00  0.00    +0.056 S 
ATOM     14  O   UNL     1       0.002  -0.004   0.002  0.00  0.00    -0.153 OA
ATOM     15  O   UNL     1       1.172   2.195   0.003  0.00  0.00    -0.153 OA
BRANCH  13  16
ATOM     16  N   UNL     1      -0.897   1.885  -1.312  0.00  0.00    -0.204 NA
ATOM     17  H   UNL     1      -1.201   1.223  -1.952  0.00  0.00    +0.144 HD
ATOM     18  H   UNL     1      -1.110   2.822  -1.446  0.00  0.00    +0.144 HD
ENDBRANCH  13  16
ENDBRANCH  10  13
ENDBRANCH   6   7
ENDBRANCH   1   6
BRANCH   2  19
ATOM     19  C   UNL     1      -1.622   4.586   8.081  0.00  0.00    +0.224 C 
BRANCH  19  20
ATOM     20  N   UNL     1      -2.136   4.471   9.448  0.00  0.00    -0.265 N 
ATOM     21  C   UNL     1      -1.812   3.476  10.370  0.00  0.00    +0.091 A 
ATOM     22  C   UNL     1      -0.983   2.367  10.321  0.00  0.00    +0.030 A 
ATOM     23  C   UNL     1      -0.867   1.546  11.427  0.00  0.00    +0.002 A 
ATOM     24  C   UNL     1      -1.577   1.829  12.581  0.00  0.00    +0.004 A 
ATOM     25  C   UNL     1      -2.406   2.932  12.636  0.00  0.00    +0.048 A 
ATOM     26  C   UNL     1      -2.528   3.762  11.533  0.00  0.00    +0.157 A 
ATOM     27  O   UNL     1      -3.246   4.887  11.297  0.00  0.00    -0.407 OA
ATOM     28  C   UNL     1      -3.003   5.311  10.047  0.00  0.00    +0.422 A 
ATOM     29  O   UNL     1      -3.492   6.299   9.533  0.00  0.00    -0.223 OA
ENDBRANCH  19  20
ENDBRANCH   2  19
TORSDOF 6
