REMARK  Name = ZINC63552168
REMARK  5 active torsions:
REMARK  status: ('A' for Active; 'I' for Inactive)
REMARK    1  A    between atoms: C_1  and  C_2
REMARK    2  A    between atoms: C_7  and  C_8
REMARK    3  A    between atoms: C_15  and  O_20
REMARK    4  A    between atoms: O_20  and  C_21
REMARK    5  A    between atoms: N_27  and  C_28
REMARK                            x       y       z     vdW  Elec       q    Type
REMARK                         _______ _______ _______ _____ _____    ______ ____
ROOT
ATOM      1  C   UNL     1      -0.851  -0.734   3.275  0.00  0.00    +0.134 C 
ATOM      2  C   UNL     1      -1.860  -0.624   4.423  0.00  0.00    +0.131 C 
ATOM      3  C   UNL     1      -1.153   0.109   5.556  0.00  0.00    -0.035 C 
ATOM      4  C   UNL     1      -1.905   1.163   5.848  0.00  0.00    +0.003 A 
ATOM      5  C   UNL     1      -1.784   2.199   6.885  0.00  0.00    +0.055 A 
ATOM      6  C   UNL     1      -2.744   3.164   6.899  0.00  0.00    +0.121 A 
ATOM      7  C   UNL     1      -3.814   3.218   5.994  0.00  0.00    +0.047 A 
ATOM      8  C   UNL     1      -4.024   2.314   5.004  0.00  0.00    +0.029 A 
ATOM      9  C   UNL     1      -3.053   1.217   4.891  0.00  0.00    +0.043 A 
ATOM     10  N   UNL     1      -3.016   0.196   4.055  0.00  0.00    -0.375 N 
ATOM     11  C   UNL     1       0.184  -0.335   6.098  0.00  0.00    +0.052 C 
ATOM     12  C   UNL     1       1.117  -0.511   4.886  0.00  0.00    +0.114 C 
ATOM     13  N   UNL     1       0.412  -1.246   3.831  0.00  0.00    -0.276 N 
ATOM     14  C   UNL     1       0.925  -2.402   3.366  0.00  0.00    +0.307 C 
ATOM     15  O   UNL     1       0.435  -2.936   2.389  0.00  0.00    -0.252 OA
ATOM     16  N   UNL     1       1.980  -2.968   3.985  0.00  0.00    -0.269 N 
ATOM     17  H   UNL     1       2.408  -2.514   4.727  0.00  0.00    +0.156 HD
ATOM     18  H   UNL     1      -3.630   0.016   3.326  0.00  0.00    +0.160 HD
ENDROOT
BRANCH   1  25
ATOM     19  C   UNL     1       0.024  -0.481   0.533  0.00  0.00    +0.044 C 
ATOM     20  C   UNL     1      -0.952  -1.563   0.916  0.00  0.00    -0.045 A 
ATOM     21  C   UNL     1      -1.424  -2.439  -0.044  0.00  0.00    +0.004 A 
ATOM     22  C   UNL     1      -2.319  -3.432   0.307  0.00  0.00    +0.000 A 
ATOM     23  C   UNL     1      -2.741  -3.550   1.619  0.00  0.00    +0.000 A 
ATOM     24  C   UNL     1      -2.268  -2.675   2.578  0.00  0.00    +0.006 A 
ATOM     25  C   UNL     1      -1.370  -1.684   2.228  0.00  0.00    -0.022 A 
ENDBRANCH   1  25
BRANCH  16  26
ATOM     26  C   UNL     1       2.459  -4.211   3.556  0.00  0.00    +0.036 A 
ATOM     27  C   UNL     1       2.409  -4.549   2.209  0.00  0.00    +0.023 A 
ATOM     28  C   UNL     1       2.882  -5.776   1.789  0.00  0.00    +0.003 A 
ATOM     29  C   UNL     1       3.405  -6.669   2.706  0.00  0.00    +0.020 A 
ATOM     30  C   UNL     1       3.456  -6.337   4.048  0.00  0.00    +0.043 A 
ATOM     31  C   UNL     1       2.989  -5.107   4.474  0.00  0.00    +0.043 A 
ATOM     32 CL   UNL     1       4.112  -7.461   5.197  0.00  0.00    -0.083 Cl
ENDBRANCH  16  26
BRANCH   6  33
ATOM     33  O   UNL     1      -2.659   4.136   7.846  0.00  0.00    -0.495 OA
ATOM     34  C   UNL     1      -3.677   5.138   7.840  0.00  0.00    +0.277 C 
ENDBRANCH   6  33
TORSDOF 3
