REMARK  Name = ZINC40315008
REMARK  6 active torsions:
REMARK  status: ('A' for Active; 'I' for Inactive)
REMARK    1  A    between atoms: C_1  and  N_2
REMARK    2  A    between atoms: N_2  and  O_3
REMARK    3  A    between atoms: N_2  and  S_5
REMARK    4  A    between atoms: O_3  and  C_4
REMARK    5  A    between atoms: S_5  and  C_8
REMARK    6  A    between atoms: C_10  and  N_16
REMARK                            x       y       z     vdW  Elec       q    Type
REMARK                         _______ _______ _______ _____ _____    ______ ____
ROOT
ATOM      1  C   UNL     1       1.678  -1.187  -1.832  0.00  0.00    +0.128 A 
ATOM      2  C   UNL     1       2.107  -2.500  -1.882  0.00  0.00    +0.055 A 
ATOM      3  C   UNL     1       3.429  -2.786  -2.194  0.00  0.00    +0.062 A 
ATOM      4  C   UNL     1       4.318  -1.749  -2.456  0.00  0.00    +0.145 A 
ATOM      5  C   UNL     1       3.883  -0.438  -2.405  0.00  0.00    +0.062 A 
ATOM      6  C   UNL     1       2.562  -0.158  -2.099  0.00  0.00    +0.070 A 
ATOM      7 CL   UNL     1       2.017   1.490  -2.042  0.00  0.00    -0.081 Cl
ATOM      8  F   UNL     1       5.606  -2.023  -2.760  0.00  0.00    -0.204 F 
ENDROOT
BRANCH   1   9
ATOM      9  S   UNL     1      -0.000  -0.824  -1.437  0.00  0.00    +0.084 S 
ATOM     10  O   UNL     1      -0.638  -2.070  -1.193  0.00  0.00    -0.151 OA
ATOM     11  O   UNL     1      -0.462   0.088  -2.423  0.00  0.00    -0.151 OA
BRANCH   9  13
ATOM     12  C   UNL     1      -0.018   1.461   0.010  0.00  0.00    +0.166 C 
ATOM     13  N   UNL     1       0.002  -0.004   0.002  0.00  0.00    -0.058 NA
BRANCH  13  14
ATOM     14  O   UNL     1       0.023  -0.719   1.224  0.00  0.00    -0.280 OA
ATOM     15  C   UNL     1      -1.273  -1.030   1.738  0.00  0.00    +0.223 C 
ENDBRANCH  13  14
ENDBRANCH   9  13
ENDBRANCH   1   9
BRANCH   3  16
ATOM     16  N   UNL     1       3.865  -4.114  -2.244  0.00  0.00    -0.356 N 
ATOM     17  H   UNL     1       3.244  -4.836  -2.060  0.00  0.00    +0.142 HD
ATOM     18  H   UNL     1       4.789  -4.312  -2.462  0.00  0.00    +0.142 HD
ENDBRANCH   3  16
TORSDOF 4
