REMARK  Name = ZINC44986814
REMARK  4 active torsions:
REMARK  status: ('A' for Active; 'I' for Inactive)
REMARK    1  A    between atoms: C_4  and  O_19
REMARK    2  A    between atoms: C_5  and  C_7
REMARK    3  A    between atoms: N_9  and  N_10
REMARK    4  A    between atoms: C_11  and  C_13
REMARK                            x       y       z     vdW  Elec       q    Type
REMARK                         _______ _______ _______ _____ _____    ______ ____
ROOT
ATOM      1  C   UNL     1       1.250  -2.159  -0.022  0.00  0.00    +0.264 C 
ATOM      2  O   UNL     1       2.314  -2.748  -0.036  0.00  0.00    -0.269 OA
ATOM      3  N   UNL     1       0.095  -2.855  -0.014  0.00  0.00    -0.230 N 
ATOM      4  H   UNL     1      -0.754  -2.385  -0.003  0.00  0.00    +0.173 HD
ENDROOT
BRANCH   1   9
ATOM      5  C   UNL     1      -0.017   1.374   0.010  0.00  0.00    +0.001 A 
ATOM      6  C   UNL     1       1.170   2.089   0.002  0.00  0.00    +0.004 A 
ATOM      7  C   UNL     1       2.383   1.429  -0.013  0.00  0.00    +0.046 A 
ATOM      8  C   UNL     1       2.420   0.043  -0.021  0.00  0.00    +0.129 A 
ATOM      9  C   UNL     1       1.222  -0.684  -0.013  0.00  0.00    +0.079 A 
ATOM     10  C   UNL     1       0.002  -0.004   0.002  0.00  0.00    +0.017 A 
BRANCH   8  11
ATOM     11  O   UNL     1       3.611  -0.606  -0.037  0.00  0.00    -0.506 OA
ATOM     12  H   UNL     1       3.966  -0.799   0.842  0.00  0.00    +0.292 HD
ENDBRANCH   8  11
ENDBRANCH   1   9
BRANCH   3  13
ATOM     13  N   UNL     1       0.121  -4.255  -0.022  0.00  0.00    -0.230 N 
ATOM     14  C   UNL     1      -1.033  -4.951  -0.015  0.00  0.00    +0.268 C 
ATOM     15  O   UNL     1      -2.098  -4.362  -0.001  0.00  0.00    -0.268 OA
ATOM     16  H   UNL     1       0.970  -4.725  -0.034  0.00  0.00    +0.173 HD
BRANCH  14  17
ATOM     17  C   UNL     1      -1.006  -6.415  -0.023  0.00  0.00    +0.089 A 
ATOM     18  C   UNL     1      -2.067  -7.310  -0.023  0.00  0.00    +0.037 A 
ATOM     19  C   UNL     1      -1.724  -8.642  -0.033  0.00  0.00    +0.023 A 
ATOM     20  C   UNL     1      -0.413  -8.984  -0.041  0.00  0.00    +0.047 A 
ATOM     21  S   UNL     1       0.398  -7.513  -0.044  0.00  0.00    -0.091 S 
ATOM     22 BR   UNL     1      -3.868  -6.734  -0.011  0.00  0.00    -0.049 Br
ENDBRANCH  14  17
ENDBRANCH   3  13
TORSDOF 4
