REMARK  Name = ZINC38800719
REMARK  10 active torsions:
REMARK  status: ('A' for Active; 'I' for Inactive)
REMARK    1  A    between atoms: C_1  and  C_2
REMARK    2  A    between atoms: C_4  and  C_12
REMARK    3  A    between atoms: C_12  and  C_14
REMARK    4  A    between atoms: C_14  and  C_16
REMARK    5  A    between atoms: C_14  and  O_17
REMARK    6  A    between atoms: O_17  and  C_18
REMARK    7  A    between atoms: C_18  and  C_20
REMARK    8  A    between atoms: C_23  and  N_28
REMARK    9  A    between atoms: C_25  and  O_26
REMARK   10  A    between atoms: O_26  and  C_27
REMARK                            x       y       z     vdW  Elec       q    Type
REMARK                         _______ _______ _______ _____ _____    ______ ____
ROOT
ATOM      1  C   UNL     1      -3.787  -0.953  -0.721  0.00  0.00    +0.244 C 
ATOM      2  C   UNL     1      -3.714  -2.450  -1.030  0.00  0.00    +0.061 C 
ENDROOT
BRANCH   1   3
ATOM      3  C   UNL     1      -2.428  -0.333  -0.919  0.00  0.00    +0.202 C 
ATOM      4  O   UNL     1      -2.209   0.349  -1.899  0.00  0.00    -0.288 OA
BRANCH   3   7
ATOM      5  C   UNL     1      -0.019   1.526   0.010  0.00  0.00    +0.035 C 
ATOM      6  C   UNL     1       0.002  -0.004   0.002  0.00  0.00    +0.111 C 
ATOM      7  C   UNL     1      -1.411  -0.544   0.036  0.00  0.00    +0.030 C 
ATOM      8  C   UNL     1      -1.496  -1.289   1.198  0.00  0.00    +0.007 A 
ATOM      9  C   UNL     1      -2.543  -2.035   1.788  0.00  0.00    +0.010 A 
ATOM     10  C   UNL     1      -2.344  -2.680   2.960  0.00  0.00    +0.001 A 
ATOM     11  C   UNL     1      -1.116  -2.646   3.640  0.00  0.00    +0.002 A 
ATOM     12  C   UNL     1      -0.053  -1.963   3.162  0.00  0.00    +0.026 A 
ATOM     13  C   UNL     1      -0.185  -1.232   1.891  0.00  0.00    +0.043 A 
ATOM     14  N   UNL     1       0.660  -0.506   1.212  0.00  0.00    -0.377 N 
ATOM     15  H   UNL     1       1.578  -0.327   1.468  0.00  0.00    +0.160 HD
ENDBRANCH   3   7
ENDBRANCH   1   3
BRANCH   1  16
ATOM     16  O   UNL     1      -4.727  -0.331  -1.600  0.00  0.00    -0.450 OA
BRANCH  16  17
ATOM     17  C   UNL     1      -6.008  -0.271  -1.183  0.00  0.00    +0.343 C 
ATOM     18  O   UNL     1      -6.317  -0.735  -0.103  0.00  0.00    -0.245 OA
BRANCH  17  19
ATOM     19  C   UNL     1      -7.030   0.355  -2.035  0.00  0.00    +0.102 A 
ATOM     20  C   UNL     1      -6.677   0.884  -3.282  0.00  0.00    +0.040 A 
ATOM     21  C   UNL     1      -7.627   1.465  -4.072  0.00  0.00    +0.063 A 
ATOM     22  C   UNL     1      -8.952   1.535  -3.645  0.00  0.00    +0.047 A 
ATOM     23  C   UNL     1      -9.318   1.014  -2.410  0.00  0.00    +0.070 A 
ATOM     24  C   UNL     1      -8.364   0.418  -1.603  0.00  0.00    +0.136 A 
ATOM     25 CL   UNL     1      -7.181   2.119  -5.618  0.00  0.00    -0.082 Cl
BRANCH  22  26
ATOM     26  N   UNL     1      -9.912   2.130  -4.457  0.00  0.00    -0.357 N 
ATOM     27  H   UNL     1      -9.659   2.494  -5.320  0.00  0.00    +0.142 HD
ATOM     28  H   UNL     1     -10.834   2.180  -4.162  0.00  0.00    +0.142 HD
ENDBRANCH  22  26
BRANCH  24  29
ATOM     29  O   UNL     1      -8.717  -0.097  -0.398  0.00  0.00    -0.494 OA
ATOM     30  C   UNL     1     -10.093   0.005  -0.027  0.00  0.00    +0.277 C 
ENDBRANCH  24  29
ENDBRANCH  17  19
ENDBRANCH  16  17
ENDBRANCH   1  16
TORSDOF 7
