REMARK  Name = ZINC37463541
REMARK  6 active torsions:
REMARK  status: ('A' for Active; 'I' for Inactive)
REMARK    1  A    between atoms: C_1  and  C_2
REMARK    2  A    between atoms: N_5  and  S_11
REMARK    3  A    between atoms: C_7  and  C_10
REMARK    4  A    between atoms: S_11  and  N_14
REMARK    5  A    between atoms: N_14  and  C_15
REMARK    6  A    between atoms: C_15  and  C_20
REMARK                            x       y       z     vdW  Elec       q    Type
REMARK                         _______ _______ _______ _____ _____    ______ ____
ROOT
ATOM      1  S   UNL     1      -1.950  -3.170  -0.385  0.00  0.00    +0.098 S 
ATOM      2  O   UNL     1      -2.130  -4.498   0.089  0.00  0.00    -0.141 OA
ATOM      3  O   UNL     1      -3.032  -2.260  -0.529  0.00  0.00    -0.141 OA
ENDROOT
BRANCH   1   7
ATOM      4  C   UNL     1       1.149   0.757   0.644  0.00  0.00    +0.039 C 
ATOM      5  C   UNL     1       0.873  -0.739   0.488  0.00  0.00    +0.131 C 
ATOM      6  C   UNL     1      -0.635  -0.996   0.594  0.00  0.00    +0.142 C 
ATOM      7  N   UNL     1      -0.857  -2.450   0.629  0.00  0.00    -0.162 NA
ATOM      8  C   UNL     1      -0.080  -3.245   1.593  0.00  0.00    +0.142 C 
ATOM      9  C   UNL     1       1.401  -2.879   1.439  0.00  0.00    +0.131 C 
ATOM     10  O   UNL     1       1.547  -1.459   1.523  0.00  0.00    -0.371 OA
ATOM     11  C   UNL     1       2.211  -3.544   2.554  0.00  0.00    +0.039 C 
ENDBRANCH   1   7
BRANCH   1  12
ATOM     12  N   UNL     1      -1.232  -3.292  -1.872  0.00  0.00    -0.163 NA
ATOM     13  H   UNL     1      -1.357  -2.590  -2.530  0.00  0.00    +0.150 HD
BRANCH  12  14
ATOM     14  C   UNL     1      -0.408  -4.459  -2.194  0.00  0.00    +0.141 C 
ATOM     15  C   UNL     1       0.784  -4.569  -1.211  0.00  0.00    +0.035 C 
ATOM     16  C   UNL     1       1.801  -3.555  -1.791  0.00  0.00    +0.002 C 
ATOM     17  C   UNL     1       1.661  -3.712  -3.319  0.00  0.00    +0.002 C 
ATOM     18  C   UNL     1       0.257  -4.286  -3.575  0.00  0.00    +0.035 C 
BRANCH  14  19
ATOM     19  C   UNL     1      -1.239  -5.716  -2.162  0.00  0.00    +0.377 C 
ATOM     20  O   UNL     1      -2.448  -5.643  -2.020  0.00  0.00    -0.244 OA
ATOM     21  O   UNL     1      -0.703  -6.804  -2.278  0.00  0.00    -0.244 OA
ENDBRANCH  14  19
ENDBRANCH  12  14
ENDBRANCH   1  12
TORSDOF 4
