REMARK  Name = ZINC62115756
REMARK  2 active torsions:
REMARK  status: ('A' for Active; 'I' for Inactive)
REMARK    1  A    between atoms: C_3  and  C_19
REMARK    2  A    between atoms: C_11  and  C_13
REMARK                            x       y       z     vdW  Elec       q    Type
REMARK                         _______ _______ _______ _____ _____    ______ ____
ROOT
ATOM      1  C   UNL     1      -0.004   1.302  -0.352  0.00  0.00    +0.003 A 
ATOM      2  C   UNL     1       1.002   2.149   0.066  0.00  0.00    +0.015 A 
ATOM      3  C   UNL     1       2.092   1.641   0.775  0.00  0.00    +0.068 A 
ATOM      4  C   UNL     1       2.163   0.272   1.062  0.00  0.00    -0.012 A 
ATOM      5  C   UNL     1       1.147  -0.565   0.640  0.00  0.00    +0.040 A 
ATOM      6  C   UNL     1       0.065  -0.049  -0.069  0.00  0.00    +0.024 A 
ATOM      7  N   UNL     1       1.185  -1.938   0.919  0.00  0.00    -0.271 N 
ATOM      8  C   UNL     1       2.442  -2.532   1.395  0.00  0.00    +0.114 C 
ATOM      9  C   UNL     1       3.023  -1.600   2.466  0.00  0.00    +0.024 C 
ATOM     10  C   UNL     1       3.351  -0.253   1.823  0.00  0.00    +0.039 C 
ATOM     11  C   UNL     1       0.086  -2.702   0.755  0.00  0.00    +0.221 C 
ATOM     12  O   UNL     1      -0.929  -2.214   0.304  0.00  0.00    -0.275 OA
ENDROOT
BRANCH  11  13
ATOM     13  C   UNL     1       0.119  -4.160   1.132  0.00  0.00    +0.057 C 
ATOM     14  C   UNL     1       0.781  -4.990   0.007  0.00  0.00    -0.008 C 
ATOM     15  C   UNL     1      -0.081  -6.277  -0.026  0.00  0.00    -0.082 C 
ATOM     16  N   UNL     1      -1.455  -5.774   0.227  0.00  0.00    +0.380 N 
ATOM     17  C   UNL     1      -1.313  -4.714   1.252  0.00  0.00    -0.070 C 
ATOM     18  H   UNL     1      -1.847  -5.389  -0.619  0.00  0.00    -0.086 HD
ATOM     19  H   UNL     1      -2.039  -6.518   0.576  0.00  0.00    -0.086 HD
ENDBRANCH  11  13
BRANCH   3  20
ATOM     20  C   UNL     1       3.169   2.545   1.222  0.00  0.00    +0.387 C 
ATOM     21  O   UNL     1       3.053   3.753   1.075  0.00  0.00    -0.241 OA
ATOM     22  O   UNL     1       4.178   2.086   1.739  0.00  0.00    -0.241 OA
ENDBRANCH   3  20
TORSDOF 2
