REMARK  Name = ZINC06227380
REMARK  6 active torsions:
REMARK  status: ('A' for Active; 'I' for Inactive)
REMARK    1  A    between atoms: C_4  and  C_7
REMARK    2  A    between atoms: C_8  and  C_9
REMARK    3  A    between atoms: N_11  and  C_12
REMARK    4  A    between atoms: C_16  and  S_18
REMARK    5  A    between atoms: S_18  and  N_21
REMARK    6  A    between atoms: N_21  and  C_22
REMARK                            x       y       z     vdW  Elec       q    Type
REMARK                         _______ _______ _______ _____ _____    ______ ____
ROOT
ATOM      1  C   UNL     1      -2.239  -4.333  -0.360  0.00  0.00    +0.036 A 
ATOM      2  C   UNL     1      -1.031  -5.011  -0.466  0.00  0.00    +0.023 A 
ATOM      3  C   UNL     1      -1.020  -6.388  -0.564  0.00  0.00    +0.004 A 
ATOM      4  C   UNL     1      -2.210  -7.093  -0.556  0.00  0.00    +0.029 A 
ATOM      5  C   UNL     1      -3.414  -6.422  -0.451  0.00  0.00    +0.110 A 
ATOM      6  C   UNL     1      -3.432  -5.045  -0.347  0.00  0.00    +0.052 A 
ENDROOT
BRANCH   1   9
ATOM      7  C   UNL     1      -1.259  -2.299   0.384  0.00  0.00    +0.241 C 
ATOM      8  O   UNL     1      -0.398  -2.937   0.961  0.00  0.00    -0.270 OA
ATOM      9  N   UNL     1      -2.254  -2.939  -0.261  0.00  0.00    -0.282 N 
ATOM     10  H   UNL     1      -2.981  -2.432  -0.656  0.00  0.00    +0.155 HD
BRANCH   7  12
ATOM     11  C   UNL     1      -0.217  -0.195   1.036  0.00  0.00    +0.013 C 
ATOM     12  C   UNL     1      -1.213  -0.836   0.391  0.00  0.00    +0.068 C 
BRANCH  11  16
ATOM     13  C   UNL     1      -0.084   4.045   1.054  0.00  0.00    +0.000 A 
ATOM     14  C   UNL     1       0.896   3.323   1.712  0.00  0.00    +0.001 A 
ATOM     15  C   UNL     1       0.860   1.944   1.710  0.00  0.00    +0.008 A 
ATOM     16  C   UNL     1      -0.171   1.276   1.042  0.00  0.00    -0.025 A 
ATOM     17  C   UNL     1      -1.155   2.013   0.376  0.00  0.00    +0.008 A 
ATOM     18  C   UNL     1      -1.108   3.391   0.391  0.00  0.00    +0.001 A 
ENDBRANCH  11  16
ENDBRANCH   7  12
ENDBRANCH   1   9
BRANCH   5  19
ATOM     19  S   UNL     1      -4.927  -7.325  -0.440  0.00  0.00    +0.072 S 
ATOM     20  O   UNL     1      -5.919  -6.462  -0.979  0.00  0.00    -0.150 OA
ATOM     21  O   UNL     1      -4.642  -8.601  -0.998  0.00  0.00    -0.150 OA
BRANCH  19  22
ATOM     22  N   UNL     1      -5.333  -7.581   1.144  0.00  0.00    -0.216 N 
ATOM     23  H   UNL     1      -5.349  -8.483   1.501  0.00  0.00    +0.174 HD
BRANCH  22  24
ATOM     24  C   UNL     1      -5.653  -6.498   1.968  0.00  0.00    +0.048 A 
ATOM     25  C   UNL     1      -4.748  -6.064   2.928  0.00  0.00    +0.026 A 
ATOM     26  C   UNL     1      -5.064  -4.989   3.736  0.00  0.00    +0.022 A 
ATOM     27  C   UNL     1      -6.285  -4.354   3.598  0.00  0.00    +0.041 A 
ATOM     28  C   UNL     1      -7.191  -4.788   2.647  0.00  0.00    +0.022 A 
ATOM     29  C   UNL     1      -6.878  -5.859   1.832  0.00  0.00    +0.026 A 
ATOM     30 CL   UNL     1      -6.682  -3.008   4.621  0.00  0.00    -0.084 Cl
ENDBRANCH  22  24
ENDBRANCH  19  22
ENDBRANCH   5  19
TORSDOF 6
