REMARK  Name = ZINC51765884
REMARK  7 active torsions:
REMARK  status: ('A' for Active; 'I' for Inactive)
REMARK    1  A    between atoms: C_1  and  C_2
REMARK    2  A    between atoms: N_6  and  C_15
REMARK    3  A    between atoms: C_15  and  C_16
REMARK    4  A    between atoms: N_18  and  C_19
REMARK    5  A    between atoms: C_24  and  S_25
REMARK    6  A    between atoms: S_25  and  C_26
REMARK    7  A    between atoms: C_26  and  C_27
REMARK                            x       y       z     vdW  Elec       q    Type
REMARK                         _______ _______ _______ _____ _____    ______ ____
ROOT
ATOM      1  C   UNL     1       2.562  -4.321  -1.205  0.00  0.00    +0.201 C 
ATOM      2  O   UNL     1       3.001  -3.480  -1.961  0.00  0.00    -0.278 OA
ATOM      3  N   UNL     1       2.829  -5.625  -1.419  0.00  0.00    -0.286 N 
ATOM      4  H   UNL     1       2.533  -6.292  -0.780  0.00  0.00    +0.155 HD
ENDROOT
BRANCH   3   5
ATOM      5  C   UNL     1       3.534  -6.017  -2.566  0.00  0.00    +0.047 A 
ATOM      6  C   UNL     1       4.532  -5.204  -3.079  0.00  0.00    +0.024 A 
ATOM      7  C   UNL     1       5.226  -5.592  -4.210  0.00  0.00    +0.002 A 
ATOM      8  C   UNL     1       4.928  -6.791  -4.833  0.00  0.00    +0.001 A 
ATOM      9  C   UNL     1       3.934  -7.607  -4.328  0.00  0.00    +0.016 A 
ATOM     10  C   UNL     1       3.236  -7.228  -3.190  0.00  0.00    +0.030 A 
BRANCH  10  11
ATOM     11  S   UNL     1       1.973  -8.271  -2.539  0.00  0.00    -0.114 S 
BRANCH  11  12
ATOM     12  C   UNL     1       1.956  -9.694  -3.664  0.00  0.00    +0.169 C 
BRANCH  12  13
ATOM     13  C   UNL     1       0.904 -10.676  -3.216  0.00  0.00    +0.221 C 
ATOM     14  O   UNL     1       0.233 -10.439  -2.234  0.00  0.00    -0.275 OA
ATOM     15  N   UNL     1       0.711 -11.817  -3.906  0.00  0.00    -0.329 N 
ATOM     16  H   UNL     1       1.248 -12.007  -4.691  0.00  0.00    +0.145 HD
ATOM     17  H   UNL     1       0.034 -12.450  -3.617  0.00  0.00    +0.145 HD
ENDBRANCH  12  13
ENDBRANCH  11  12
ENDBRANCH  10  11
ENDBRANCH   3   5
BRANCH   1  18
ATOM     18  C   UNL     1       1.719  -3.909  -0.026  0.00  0.00    +0.019 C 
BRANCH  18  23
ATOM     19  C   UNL     1       0.015   1.533   0.038  0.00  0.00    +0.007 C 
ATOM     20  C   UNL     1       0.031   0.004   0.028  0.00  0.00    -0.014 C 
ATOM     21  C   UNL     1       0.740  -0.493  -1.235  0.00  0.00    -0.015 C 
ATOM     22  C   UNL     1       0.823  -2.021  -1.200  0.00  0.00    -0.077 C 
ATOM     23  N   UNL     1       1.576  -2.447  -0.014  0.00  0.00    +0.387 N 
ATOM     24  C   UNL     1       0.864  -2.036   1.202  0.00  0.00    -0.065 C 
ATOM     25  C   UNL     1       0.782  -0.509   1.260  0.00  0.00    -0.022 C 
ATOM     26  C   UNL     1       0.033  -0.085   2.525  0.00  0.00    +0.002 C 
ATOM     27  C   UNL     1       0.779  -0.602   3.757  0.00  0.00    +0.000 C 
ATOM     28  C   UNL     1       0.860  -2.129   3.700  0.00  0.00    -0.002 C 
ATOM     29  C   UNL     1       1.612  -2.553   2.432  0.00  0.00    -0.015 C 
ATOM     30  H   UNL     1       2.490  -2.021  -0.027  0.00  0.00    -0.081 HD
ENDBRANCH  18  23
ENDBRANCH   1  18
TORSDOF 6
