REMARK  Name = ZINC65614705
REMARK  4 active torsions:
REMARK  status: ('A' for Active; 'I' for Inactive)
REMARK    1  A    between atoms: C_1  and  C_2
REMARK    2  A    between atoms: C_5  and  C_24
REMARK    3  A    between atoms: C_14  and  C_16
REMARK    4  A    between atoms: C_16  and  C_17
REMARK                            x       y       z     vdW  Elec       q    Type
REMARK                         _______ _______ _______ _____ _____    ______ ____
ROOT
ATOM      1  C   UNL     1      -0.018   1.717   0.250  0.00  0.00    +0.028 C 
ATOM      2  C   UNL     1      -0.075   0.211  -0.017  0.00  0.00    +0.079 C 
ATOM      3  C   UNL     1      -1.512  -0.295   0.166  0.00  0.00    +0.040 C 
ATOM      4  C   UNL     1      -1.988   0.070   1.572  0.00  0.00    +0.108 C 
ATOM      5  C   UNL     1      -0.989  -0.386   2.602  0.00  0.00    -0.014 A 
ATOM      6  C   UNL     1      -1.405  -0.548   3.914  0.00  0.00    +0.006 A 
ATOM      7  C   UNL     1      -0.511  -0.961   4.882  0.00  0.00    +0.000 A 
ATOM      8  C   UNL     1       0.807  -1.216   4.549  0.00  0.00    +0.002 A 
ATOM      9  C   UNL     1       1.229  -1.058   3.244  0.00  0.00    +0.024 A 
ATOM     10  C   UNL     1       0.331  -0.644   2.267  0.00  0.00    +0.040 A 
ATOM     11  N   UNL     1       0.779  -0.497   0.946  0.00  0.00    -0.268 N 
ATOM     12  C   UNL     1       1.970  -0.999   0.565  0.00  0.00    +0.224 C 
ATOM     13  O   UNL     1       2.617  -1.676   1.336  0.00  0.00    -0.275 OA
ENDROOT
BRANCH   4  14
ATOM     14  C   UNL     1      -3.313  -0.598   1.837  0.00  0.00    +0.218 C 
ATOM     15  O   UNL     1      -3.528  -1.712   1.408  0.00  0.00    -0.275 OA
ATOM     16  N   UNL     1      -4.260   0.044   2.549  0.00  0.00    -0.329 N 
ATOM     17  H   UNL     1      -4.064   0.904   2.953  0.00  0.00    +0.145 HD
ATOM     18  H   UNL     1      -5.138  -0.354   2.659  0.00  0.00    +0.145 HD
ENDBRANCH   4  14
BRANCH  12  19
ATOM     19  C   UNL     1       2.499  -0.719  -0.818  0.00  0.00    +0.131 C 
BRANCH  19  20
ATOM     20  C   UNL     1       3.807  -1.442  -1.012  0.00  0.00    -0.038 A 
ATOM     21  C   UNL     1       4.996  -0.821  -0.677  0.00  0.00    +0.007 A 
ATOM     22  C   UNL     1       6.196  -1.483  -0.854  0.00  0.00    +0.038 A 
ATOM     23  C   UNL     1       6.207  -2.768  -1.367  0.00  0.00    +0.123 A 
ATOM     24  C   UNL     1       5.016  -3.389  -1.703  0.00  0.00    +0.038 A 
ATOM     25  C   UNL     1       3.817  -2.728  -1.520  0.00  0.00    +0.007 A 
ATOM     26  F   UNL     1       7.380  -3.417  -1.541  0.00  0.00    -0.205 F 
ENDBRANCH  19  20
ENDBRANCH  12  19
TORSDOF 3
