REMARK  Name = ZINC43735979
REMARK  6 active torsions:
REMARK  status: ('A' for Active; 'I' for Inactive)
REMARK    1  A    between atoms: C_1  and  C_2
REMARK    2  A    between atoms: C_13  and  O_31
REMARK    3  A    between atoms: C_17  and  C_30
REMARK    4  A    between atoms: C_22  and  C_29
REMARK    5  A    between atoms: C_23  and  N_25
REMARK    6  A    between atoms: C_26  and  C_28
REMARK                            x       y       z     vdW  Elec       q    Type
REMARK                         _______ _______ _______ _____ _____    ______ ____
ROOT
ATOM      1  C   UNL     1      -0.019   1.526   0.010  0.00  0.00    +0.009 C 
ATOM      2  C   UNL     1       0.002  -0.004   0.002  0.00  0.00    +0.007 C 
ATOM      3  C   UNL     1      -1.448  -0.557   0.069  0.00  0.00    +0.009 C 
ATOM      4  C   UNL     1      -1.300  -1.801   0.952  0.00  0.00    +0.001 C 
ATOM      5  C   UNL     1      -2.568  -2.282   1.633  0.00  0.00    +0.000 C 
ATOM      6  C   UNL     1      -3.571  -2.753   0.573  0.00  0.00    +0.031 C 
ATOM      7  C   UNL     1      -4.751  -3.382   1.255  0.00  0.00    -0.027 C 
ATOM      8  C   UNL     1      -4.678  -3.937   2.429  0.00  0.00    -0.065 C 
ATOM      9  C   UNL     1      -5.938  -4.553   3.014  0.00  0.00    +0.062 C 
ATOM     10  C   UNL     1      -5.618  -5.985   3.451  0.00  0.00    +0.119 C 
ATOM     11  C   UNL     1      -4.430  -5.971   4.415  0.00  0.00    +0.032 C 
ATOM     12  C   UNL     1      -3.185  -5.454   3.691  0.00  0.00    +0.014 C 
ATOM     13  C   UNL     1      -3.420  -4.009   3.244  0.00  0.00    -0.008 C 
ATOM     14  C   UNL     1      -2.192  -3.472   2.527  0.00  0.00    +0.003 C 
ATOM     15  C   UNL     1      -1.104  -3.104   3.532  0.00  0.00    +0.005 C 
ATOM     16  C   UNL     1       0.128  -2.498   2.841  0.00  0.00    +0.009 C 
ATOM     17  C   UNL     1      -0.332  -1.291   2.053  0.00  0.00    -0.010 C 
ATOM     18  C   UNL     1       0.731  -0.533   1.262  0.00  0.00    +0.082 C 
ATOM     19  C   UNL     1      -1.070  -0.335   2.992  0.00  0.00    +0.013 C 
ATOM     20  C   UNL     1      -3.611  -3.149   4.494  0.00  0.00    +0.016 C 
ENDROOT
BRANCH  18  21
ATOM     21  N   UNL     1       1.252   0.585   2.053  0.00  0.00    -0.312 N 
ATOM     22  C   UNL     1       2.465   1.101   1.772  0.00  0.00    +0.210 C 
ATOM     23  O   UNL     1       3.125   0.641   0.865  0.00  0.00    -0.276 OA
ATOM     24  C   UNL     1       3.001   2.251   2.586  0.00  0.00    +0.109 C 
ATOM     25  H   UNL     1       0.725   0.953   2.780  0.00  0.00    +0.149 HD
ENDBRANCH  18  21
BRANCH  10  26
ATOM     26  O   UNL     1      -6.756  -6.549   4.106  0.00  0.00    -0.391 OA
ATOM     27  H   UNL     1      -7.548  -6.590   3.553  0.00  0.00    +0.210 HD
ENDBRANCH  10  26
TORSDOF 2
