REMARK  Name = ZINC16971854
REMARK  2 active torsions:
REMARK  status: ('A' for Active; 'I' for Inactive)
REMARK    1  A    between atoms: C_1  and  C_2
REMARK    2  A    between atoms: C_10  and  N_12
REMARK                            x       y       z     vdW  Elec       q    Type
REMARK                         _______ _______ _______ _____ _____    ______ ____
ROOT
ATOM      1  C   UNL     1      -0.009   1.528   0.051  0.00  0.00    +0.066 C 
ATOM      2  C   UNL     1       0.007   0.021   0.029  0.00  0.00    +0.051 A 
ATOM      3  C   UNL     1       0.008  -0.680  -1.193  0.00  0.00    +0.023 A 
ATOM      4  C   UNL     1      -0.005  -0.018  -2.429  0.00  0.00    +0.012 A 
ATOM      5  C   UNL     1      -0.004  -0.746  -3.581  0.00  0.00    +0.002 A 
ATOM      6  C   UNL     1       0.012  -2.139  -3.549  0.00  0.00    +0.022 A 
ATOM      7  C   UNL     1       0.025  -2.815  -2.366  0.00  0.00    +0.067 A 
ATOM      8  C   UNL     1       0.024  -2.098  -1.158  0.00  0.00    +0.095 A 
ATOM      9  N   UNL     1       0.037  -2.714   0.030  0.00  0.00    -0.209 NA
ATOM     10  C   UNL     1       0.035  -2.004   1.148  0.00  0.00    +0.254 A 
ATOM     11  N   UNL     1       0.026  -0.667   1.149  0.00  0.00    -0.215 NA
ATOM     12 CL   UNL     1       0.042  -4.551  -2.351  0.00  0.00    -0.081 Cl
ENDROOT
BRANCH  10  13
ATOM     13  N   UNL     1       0.049  -2.659   2.339  0.00  0.00    -0.178 NA
ATOM     14  C   UNL     1      -1.081  -2.903   2.970  0.00  0.00    +0.196 C 
ATOM     15  N   UNL     1      -2.276  -2.596   2.376  0.00  0.00    -0.370 N 
ATOM     16  N   UNL     1      -1.061  -3.463   4.219  0.00  0.00    -0.370 N 
ATOM     17  H   UNL     1      -2.294  -2.271   1.463  0.00  0.00    +0.159 HD
ATOM     18  H   UNL     1      -0.215  -3.680   4.639  0.00  0.00    +0.159 HD
ATOM     19  H   UNL     1      -1.894  -3.642   4.683  0.00  0.00    +0.159 HD
ATOM     20  H   UNL     1      -3.104  -2.705   2.869  0.00  0.00    +0.159 HD
ENDBRANCH  10  13
TORSDOF 1
