REMARK  Name = ZINC58452641
REMARK  2 active torsions:
REMARK  status: ('A' for Active; 'I' for Inactive)
REMARK    1  A    between atoms: C_20  and  N_24
REMARK    2  A    between atoms: C_21  and  C_22
REMARK                            x       y       z     vdW  Elec       q    Type
REMARK                         _______ _______ _______ _____ _____    ______ ____
ROOT
ATOM      1  C   UNL     1      -0.015   1.314   0.030  0.00  0.00    +0.224 A 
ATOM      2  N   UNL     1       1.102   2.019   0.022  0.00  0.00    -0.220 NA
ATOM      3  C   UNL     1       2.295   1.448  -0.013  0.00  0.00    +0.133 A 
ATOM      4  C   UNL     1       2.382   0.028  -0.043  0.00  0.00    +0.051 A 
ATOM      5  C   UNL     1       3.578  -0.816  -0.085  0.00  0.00    -0.025 A 
ATOM      6  C   UNL     1       3.384  -2.150  -0.107  0.00  0.00    -0.004 A 
ATOM      7  S   UNL     1       1.624  -2.362  -0.074  0.00  0.00    -0.073 S 
ATOM      8  C   UNL     1       1.149  -0.654  -0.032  0.00  0.00    +0.114 A 
ATOM      9  N   UNL     1       0.002  -0.004   0.003  0.00  0.00    -0.228 NA
ATOM     10  C   UNL     1       4.432  -3.219  -0.151  0.00  0.00    +0.043 C 
ATOM     11  C   UNL     1       5.768  -2.572  -0.544  0.00  0.00    +0.005 C 
ATOM     12  C   UNL     1       5.978  -1.321   0.315  0.00  0.00    +0.005 C 
ATOM     13  C   UNL     1       4.988  -0.233  -0.103  0.00  0.00    +0.037 C 
ATOM     14  N   UNL     1       3.442   2.221  -0.020  0.00  0.00    -0.309 N 
ATOM     15  C   UNL     1       4.119   2.568  -1.278  0.00  0.00    +0.111 C 
ATOM     16  C   UNL     1       4.062   4.083  -1.490  0.00  0.00    +0.056 C 
ATOM     17  C   UNL     1       4.471   4.783  -0.203  0.00  0.00    -0.015 A 
ATOM     18  C   UNL     1       4.441   4.148   0.989  0.00  0.00    +0.013 A 
ATOM     19  S   UNL     1       4.990   5.355   2.158  0.00  0.00    -0.076 S 
ATOM     20  C   UNL     1       5.257   6.653   1.126  0.00  0.00    +0.081 A 
ATOM     21  C   UNL     1       4.922   6.163  -0.127  0.00  0.00    +0.083 A 
ATOM     22  C   UNL     1       4.028   2.732   1.236  0.00  0.00    +0.149 C 
ENDROOT
BRANCH  20  23
ATOM     23  N   UNL     1       5.707   7.920   1.452  0.00  0.00    -0.352 N 
ATOM     24  H   UNL     1       5.909   8.141   2.375  0.00  0.00    +0.143 HD
ATOM     25  H   UNL     1       5.820   8.588   0.757  0.00  0.00    +0.143 HD
ENDBRANCH  20  23
BRANCH  21  26
ATOM     26  C   UNL     1       5.017   6.982  -1.297  0.00  0.00    +0.102 C 
ATOM     27  N   UNL     1       5.093   7.632  -2.226  0.00  0.00    -0.191 NA
ENDBRANCH  21  26
TORSDOF 2
