REMARK  Name = ZINC40270373
REMARK  2 active torsions:
REMARK  status: ('A' for Active; 'I' for Inactive)
REMARK    1  A    between atoms: C_6  and  C_7
REMARK    2  A    between atoms: C_7  and  C_9
REMARK                            x       y       z     vdW  Elec       q    Type
REMARK                         _______ _______ _______ _____ _____    ______ ____
ROOT
ATOM      1  C   UNL     1      -1.349  -1.649   1.237  0.00  0.00    -0.023 A 
ATOM      2  C   UNL     1      -0.376  -2.613   1.441  0.00  0.00    +0.007 A 
ATOM      3  C   UNL     1      -0.419  -3.419   2.562  0.00  0.00    +0.028 A 
ATOM      4  C   UNL     1      -1.440  -3.261   3.487  0.00  0.00    +0.067 A 
ATOM      5  C   UNL     1      -2.421  -2.289   3.281  0.00  0.00    +0.067 A 
ATOM      6  C   UNL     1      -2.366  -1.481   2.155  0.00  0.00    +0.033 A 
ATOM      7  N   UNL     1      -3.298  -2.367   4.360  0.00  0.00    -0.306 N 
ATOM      8  H   UNL     1      -4.083  -1.813   4.495  0.00  0.00    +0.170 HD
ATOM      9  C   UNL     1      -2.870  -3.342   5.185  0.00  0.00    +0.325 A 
ATOM     10  O   UNL     1      -3.413  -3.669   6.224  0.00  0.00    -0.247 OA
ATOM     11  N   UNL     1      -1.752  -3.900   4.685  0.00  0.00    -0.306 N 
ATOM     12  H   UNL     1      -1.249  -4.623   5.090  0.00  0.00    +0.170 HD
ENDROOT
BRANCH   1  13
ATOM     13  C   UNL     1      -1.293  -0.775   0.011  0.00  0.00    +0.140 C 
ATOM     14 CL   UNL     1      -1.179  -1.811  -1.461  0.00  0.00    -0.112 Cl
BRANCH  13  20
ATOM     15  C   UNL     1       1.185  -0.421   0.016  0.00  0.00    +0.006 A 
ATOM     16  C   UNL     1       2.294   0.402   0.086  0.00  0.00    +0.014 A 
ATOM     17  C   UNL     1       2.133   1.768   0.229  0.00  0.00    +0.013 A 
ATOM     18  C   UNL     1       0.863   2.311   0.300  0.00  0.00    +0.014 A 
ATOM     19  C   UNL     1      -0.245   1.488   0.230  0.00  0.00    +0.006 A 
ATOM     20  C   UNL     1      -0.084   0.122   0.088  0.00  0.00    -0.025 A 
ATOM     21  I   UNL     1       3.813   3.015   0.336  0.00  0.00    -0.044 I 
ENDBRANCH  13  20
ENDBRANCH   1  13
TORSDOF 2
