REMARK  Name = ZINC50867798
REMARK  1 active torsions:
REMARK  status: ('A' for Active; 'I' for Inactive)
REMARK    1  A    between atoms: C_5  and  C_7
REMARK                            x       y       z     vdW  Elec       q    Type
REMARK                         _______ _______ _______ _____ _____    ______ ____
ROOT
ATOM      1  C   UNL     1       1.246  -2.165  -0.022  0.00  0.00    +0.094 A 
ATOM      2  C   UNL     1       0.048  -2.888  -0.020  0.00  0.00    +0.033 A 
ATOM      3  C   UNL     1       0.124  -4.269  -0.029  0.00  0.00    +0.047 A 
ATOM      4  C   UNL     1       1.391  -4.856  -0.039  0.00  0.00    +0.139 A 
ATOM      5  N   UNL     1       2.473  -4.091  -0.040  0.00  0.00    -0.134 NA
ATOM      6  N   UNL     1       2.405  -2.809  -0.038  0.00  0.00    -0.147 NA
ATOM      7  N   UNL     1       1.517  -6.240  -0.047  0.00  0.00    -0.342 N 
ATOM      8  H   UNL     1       0.725  -6.799  -0.046  0.00  0.00    +0.144 HD
ATOM      9  H   UNL     1       2.398  -6.647  -0.054  0.00  0.00    +0.144 HD
ENDROOT
BRANCH   1  14
ATOM     10  C   UNL     1      -0.017   1.376   0.010  0.00  0.00    +0.001 A 
ATOM     11  C   UNL     1       1.170   2.087   0.002  0.00  0.00    +0.001 A 
ATOM     12  C   UNL     1       2.382   1.420  -0.013  0.00  0.00    +0.016 A 
ATOM     13  C   UNL     1       2.413   0.039  -0.022  0.00  0.00    +0.027 A 
ATOM     14  C   UNL     1       1.220  -0.682  -0.014  0.00  0.00    +0.016 A 
ATOM     15  C   UNL     1       0.002  -0.004   0.002  0.00  0.00    +0.011 A 
ATOM     16 BR   UNL     1       4.070  -0.871  -0.044  0.00  0.00    -0.050 Br
ENDBRANCH   1  14
TORSDOF 1
