REMARK  Name = ZINC09406030
REMARK  7 active torsions:
REMARK  status: ('A' for Active; 'I' for Inactive)
REMARK    1  A    between atoms: C_1  and  C_2
REMARK    2  A    between atoms: C_2  and  C_3
REMARK    3  A    between atoms: C_19  and  C_22
REMARK    4  A    between atoms: N_24  and  C_25
REMARK    5  A    between atoms: C_26  and  C_33
REMARK    6  A    between atoms: C_28  and  C_32
REMARK    7  A    between atoms: C_30  and  C_31
REMARK                            x       y       z     vdW  Elec       q    Type
REMARK                         _______ _______ _______ _____ _____    ______ ____
ROOT
ATOM      1  C   UNL     1       3.724   2.269   4.461  0.00  0.00    +0.191 C 
ATOM      2  C   UNL     1       4.152   1.464   3.231  0.00  0.00    +0.159 C 
ATOM      3  N   UNL     1       5.269   2.180   2.591  0.00  0.00    -0.248 N 
ATOM      4  C   UNL     1       6.254   2.734   3.427  0.00  0.00    +0.080 A 
ATOM      5  C   UNL     1       7.455   3.170   2.891  0.00  0.00    +0.027 A 
ATOM      6  C   UNL     1       8.420   3.716   3.717  0.00  0.00    +0.002 A 
ATOM      7  C   UNL     1       8.187   3.827   5.076  0.00  0.00    +0.004 A 
ATOM      8  C   UNL     1       6.991   3.392   5.615  0.00  0.00    +0.047 A 
ATOM      9  C   UNL     1       6.018   2.842   4.795  0.00  0.00    +0.142 A 
ATOM     10  O   UNL     1       4.847   2.413   5.335  0.00  0.00    -0.485 OA
ATOM     11  C   UNL     1       5.341   2.305   1.251  0.00  0.00    +0.309 C 
ATOM     12  O   UNL     1       5.929   3.249   0.759  0.00  0.00    -0.252 OA
ATOM     13  N   UNL     1       4.761   1.384   0.456  0.00  0.00    -0.285 N 
ATOM     14  C   UNL     1       4.622   1.621  -0.987  0.00  0.00    +0.110 C 
ATOM     15  C   UNL     1       3.153   1.434  -1.379  0.00  0.00    +0.032 C 
ATOM     16  C   UNL     1       2.679   0.052  -0.920  0.00  0.00    +0.078 C 
ATOM     17  C   UNL     1       2.790  -0.048   0.603  0.00  0.00    +0.032 C 
ATOM     18  C   UNL     1       4.255   0.123   1.017  0.00  0.00    +0.110 C 
ENDROOT
BRANCH  16  19
ATOM     19  C   UNL     1       1.244  -0.149  -1.334  0.00  0.00    +0.220 C 
ATOM     20  O   UNL     1       0.658   0.726  -1.935  0.00  0.00    -0.275 OA
ATOM     21  N   UNL     1       0.613  -1.302  -1.035  0.00  0.00    -0.285 N 
ATOM     22  H   UNL     1       1.101  -2.028  -0.618  0.00  0.00    +0.155 HD
BRANCH  21  23
ATOM     23  C   UNL     1      -0.747  -1.452  -1.332  0.00  0.00    +0.039 A 
ATOM     24  C   UNL     1      -1.183  -2.553  -2.057  0.00  0.00    -0.029 A 
ATOM     25  C   UNL     1      -2.526  -2.701  -2.343  0.00  0.00    +0.008 A 
ATOM     26  C   UNL     1      -3.434  -1.748  -1.919  0.00  0.00    -0.050 A 
ATOM     27  C   UNL     1      -3.002  -0.648  -1.202  0.00  0.00    +0.008 A 
ATOM     28  C   UNL     1      -1.661  -0.497  -0.907  0.00  0.00    -0.029 A 
ATOM     29  C   UNL     1      -1.191   0.703  -0.127  0.00  0.00    +0.045 C 
ATOM     30  C   UNL     1      -4.898  -1.909  -2.240  0.00  0.00    +0.044 C 
ATOM     31  C   UNL     1      -0.193  -3.588  -2.525  0.00  0.00    +0.045 C 
ENDBRANCH  21  23
ENDBRANCH  16  19
BRANCH   1  33
ATOM     32  C   UNL     1       2.097   2.392   6.353  0.00  0.00    +0.007 C 
ATOM     33  C   UNL     1       2.599   1.533   5.191  0.00  0.00    +0.043 C 
ENDBRANCH   1  33
TORSDOF 3
