REMARK  Name = ZINC39544440
REMARK  5 active torsions:
REMARK  status: ('A' for Active; 'I' for Inactive)
REMARK    1  A    between atoms: C_1  and  C_2
REMARK    2  A    between atoms: C_2  and  C_3
REMARK    3  A    between atoms: C_3  and  N_4
REMARK    4  A    between atoms: N_4  and  O_22
REMARK    5  A    between atoms: C_5  and  C_7
REMARK                            x       y       z     vdW  Elec       q    Type
REMARK                         _______ _______ _______ _____ _____    ______ ____
ROOT
ATOM      1  C   UNL     1      -0.362  -4.157  -1.568  0.00  0.00    +0.152 C 
ATOM      2  C   UNL     1       0.594  -4.678  -2.658  0.00  0.00    +0.081 C 
ATOM      3  C   UNL     1      -0.293  -5.499  -3.566  0.00  0.00    +0.055 C 
ATOM      4  C   UNL     1      -1.523  -5.467  -3.118  0.00  0.00    +0.090 C 
ATOM      5  N   UNL     1      -2.626  -6.143  -3.676  0.00  0.00    -0.303 N 
ATOM      6  C   UNL     1      -3.548  -6.641  -2.740  0.00  0.00    +0.037 A 
ATOM      7  C   UNL     1      -4.612  -7.421  -3.169  0.00  0.00    +0.023 A 
ATOM      8  C   UNL     1      -5.525  -7.903  -2.251  0.00  0.00    +0.002 A 
ATOM      9  C   UNL     1      -5.372  -7.606  -0.908  0.00  0.00    +0.000 A 
ATOM     10  C   UNL     1      -4.310  -6.833  -0.481  0.00  0.00    +0.007 A 
ATOM     11  C   UNL     1      -3.387  -6.348  -1.394  0.00  0.00    -0.010 A 
ATOM     12  C   UNL     1      -2.226  -5.530  -0.894  0.00  0.00    +0.124 C 
ATOM     13  N   UNL     1      -1.678  -4.688  -1.960  0.00  0.00    -0.369 NA
ATOM     14 CL   UNL     1       0.237  -6.353  -4.981  0.00  0.00    -0.085 Cl
ATOM     15  H   UNL     1      -2.741  -6.254  -4.633  0.00  0.00    +0.153 HD
ATOM     16  H   UNL     1      -2.312  -3.925  -2.145  0.00  0.00    +0.129 HD
ENDROOT
BRANCH   1  18
ATOM     17  N   UNL     1       0.738  -1.962  -1.265  0.00  0.00    -0.182 N 
ATOM     18  C   UNL     1      -0.383  -2.650  -1.560  0.00  0.00    +0.257 C 
ATOM     19  O   UNL     1      -1.408  -2.056  -1.819  0.00  0.00    -0.272 OA
BRANCH  17  20
ATOM     20  O   UNL     1       1.935  -2.656  -0.963  0.00  0.00    -0.292 OA
ATOM     21  H   UNL     1       1.850  -3.619  -0.993  0.00  0.00    +0.242 HD
ENDBRANCH  17  20
BRANCH  17  22
ATOM     22  C   UNL     1       0.718  -0.497  -1.257  0.00  0.00    +0.139 C 
BRANCH  22  24
ATOM     23  C   UNL     1      -0.019   1.526   0.010  0.00  0.00    +0.005 C 
ATOM     24  C   UNL     1       0.002  -0.004   0.002  0.00  0.00    +0.018 C 
ENDBRANCH  22  24
ENDBRANCH  17  22
ENDBRANCH   1  18
TORSDOF 4
