REMARK  Name = ZINC33492187
REMARK  6 active torsions:
REMARK  status: ('A' for Active; 'I' for Inactive)
REMARK    1  A    between atoms: C_1  and  C_2
REMARK    2  A    between atoms: C_7  and  N_8
REMARK    3  A    between atoms: C_9  and  C_11
REMARK    4  A    between atoms: C_11  and  C_12
REMARK    5  A    between atoms: C_12  and  C_14
REMARK    6  A    between atoms: C_12  and  N_17
REMARK                            x       y       z     vdW  Elec       q    Type
REMARK                         _______ _______ _______ _____ _____    ______ ____
ROOT
ATOM      1  N   UNK     1      -3.369   3.757   2.585  0.00  0.00    -0.285 N 
ATOM      2  C   UNK     1      -2.895   3.242   1.434  0.00  0.00    +0.216 C 
ATOM      3  O   UNK     1      -3.480   3.447   0.392  0.00  0.00    -0.276 OA
ATOM      4  H   UNK     1      -2.892   3.498   3.542  0.00  0.00    +0.155 HD
ENDROOT
BRANCH   1  11
ATOM      5  C   UNK     1      -4.974   3.948   4.927  0.00  0.00    +0.045 C 
ATOM      6  C   UNK     1      -5.279   4.745   3.685  0.00  0.00    -0.029 A 
ATOM      7  C   UNK     1      -6.362   5.603   3.663  0.00  0.00    +0.006 A 
ATOM      8  C   UNK     1      -6.646   6.331   2.523  0.00  0.00    +0.020 A 
ATOM      9  C   UNK     1      -5.844   6.207   1.402  0.00  0.00    +0.043 A 
ATOM     10  C   UNK     1      -4.756   5.354   1.420  0.00  0.00    +0.043 A 
ATOM     11  C   UNK     1      -4.469   4.622   2.564  0.00  0.00    +0.038 A 
ATOM     12 CL   UNK     1      -6.204   7.123  -0.028  0.00  0.00    -0.083 Cl
ENDBRANCH   1  11
BRANCH   2  13
ATOM     13  C   UNK     1      -1.637   2.412   1.442  0.00  0.00    +0.091 C 
BRANCH  13  14
ATOM     14  C   UNK     1      -1.320   1.953   0.017  0.00  0.00    +0.049 C 
BRANCH  14  15
ATOM     15  N   UNK     1      -2.379   1.050  -0.454  0.00  0.00    +0.387 N 
ATOM     16  H   UNK     1      -2.151   0.720  -1.478  0.00  0.00    -0.089 HD
ATOM     17  H   UNK     1      -3.343   1.580  -0.445  0.00  0.00    -0.089 HD
ATOM     18  H   UNK     1      -2.435   0.174   0.210  0.00  0.00    -0.089 HD
ENDBRANCH  14  15
BRANCH  14  19
ATOM     19  C   UNK     1       0.001   1.228   0.005  0.00  0.00    +0.342 C 
ATOM     20  O   UNK     1       0.027   0.020  -0.000  0.00  0.00    -0.248 OA
ATOM     21  O   UNK     1       1.149   1.923  -0.005  0.00  0.00    -0.248 OA
ENDBRANCH  14  19
ENDBRANCH  13  14
ENDBRANCH   2  13
TORSDOF 5
