REMARK  Name = ZINC63103779
REMARK  4 active torsions:
REMARK  status: ('A' for Active; 'I' for Inactive)
REMARK    1  A    between atoms: C_1  and  N_2
REMARK    2  A    between atoms: N_2  and  C_3
REMARK    3  A    between atoms: C_3  and  C_4
REMARK    4  A    between atoms: C_16  and  N_20
REMARK                            x       y       z     vdW  Elec       q    Type
REMARK                         _______ _______ _______ _____ _____    ______ ____
ROOT
ATOM      1  C   UNL     1      -0.018   1.461   0.010  0.00  0.00    +0.131 C 
ATOM      2  N   UNL     1       0.002  -0.004   0.002  0.00  0.00    -0.308 N 
ATOM      3  C   UNL     1       0.000  -0.688  -1.198  0.00  0.00    +0.162 A 
ATOM      4  N   UNL     1       0.010  -1.984  -1.406  0.00  0.00    -0.225 NA
ATOM      5  C   UNL     1       0.006  -2.520  -2.649  0.00  0.00    +0.080 A 
ATOM      6  C   UNL     1       0.016  -3.887  -3.008  0.00  0.00    +0.031 A 
ATOM      7  C   UNL     1       0.011  -4.267  -4.324  0.00  0.00    +0.025 A 
ATOM      8  C   UNL     1      -0.004  -3.327  -5.352  0.00  0.00    +0.026 A 
ATOM      9  C   UNL     1      -0.015  -1.975  -5.032  0.00  0.00    +0.040 A 
ATOM     10  C   UNL     1      -0.010  -1.592  -3.715  0.00  0.00    +0.042 A 
ATOM     11  S   UNL     1      -0.025  -0.034  -2.861  0.00  0.00    -0.052 S 
ENDROOT
BRANCH   8  12
ATOM     12  N   UNL     1      -0.008  -3.739  -6.690  0.00  0.00    -0.358 N 
ATOM     13  H   UNL     1      -0.001  -4.684  -6.906  0.00  0.00    +0.142 HD
ATOM     14  H   UNL     1      -0.019  -3.079  -7.400  0.00  0.00    +0.142 HD
ENDBRANCH   8  12
BRANCH   2  15
ATOM     15  C   UNL     1       0.024  -0.743   1.267  0.00  0.00    +0.141 C 
BRANCH  15  16
ATOM     16  C   UNL     1      -1.389  -1.016   1.714  0.00  0.00    -0.030 A 
ATOM     17  C   UNL     1      -2.047  -0.105   2.518  0.00  0.00    +0.006 A 
ATOM     18  C   UNL     1      -3.343  -0.354   2.928  0.00  0.00    +0.015 A 
ATOM     19  C   UNL     1      -3.982  -1.516   2.533  0.00  0.00    +0.018 A 
ATOM     20  C   UNL     1      -3.323  -2.428   1.728  0.00  0.00    +0.015 A 
ATOM     21  C   UNL     1      -2.029  -2.175   1.314  0.00  0.00    +0.006 A 
ATOM     22 BR   UNL     1      -5.755  -1.859   3.094  0.00  0.00    -0.050 Br
ENDBRANCH  15  16
ENDBRANCH   2  15
TORSDOF 3
