REMARK  Name = ZINC40349207
REMARK  6 active torsions:
REMARK  status: ('A' for Active; 'I' for Inactive)
REMARK    1  A    between atoms: C_1  and  C_2
REMARK    2  A    between atoms: C_2  and  N_3
REMARK    3  A    between atoms: C_5  and  N_10
REMARK    4  A    between atoms: N_10  and  S_11
REMARK    5  A    between atoms: S_11  and  C_14
REMARK    6  A    between atoms: C_17  and  N_20
REMARK                            x       y       z     vdW  Elec       q    Type
REMARK                         _______ _______ _______ _____ _____    ______ ____
ROOT
ATOM      1  S   UNL     1       4.913  -1.154   0.714  0.00  0.00    +0.072 S 
ATOM      2  O   UNL     1       4.545   0.140   0.257  0.00  0.00    -0.150 OA
ATOM      3  O   UNL     1       6.268  -1.539   0.901  0.00  0.00    -0.150 OA
ENDROOT
BRANCH   1   4
ATOM      4  C   UNL     1       4.214  -2.307  -0.421  0.00  0.00    +0.109 A 
ATOM      5  C   UNL     1       4.674  -3.610  -0.451  0.00  0.00    +0.030 A 
ATOM      6  C   UNL     1       4.129  -4.516  -1.339  0.00  0.00    +0.024 A 
ATOM      7  C   UNL     1       3.117  -4.116  -2.203  0.00  0.00    +0.025 A 
ATOM      8  C   UNL     1       2.657  -2.806  -2.170  0.00  0.00    +0.024 A 
ATOM      9  C   UNL     1       3.203  -1.907  -1.275  0.00  0.00    +0.030 A 
BRANCH   7  10
ATOM     10  N   UNL     1       2.563  -5.030  -3.103  0.00  0.00    -0.358 N 
ATOM     11  H   UNL     1       2.885  -5.944  -3.126  0.00  0.00    +0.142 HD
ATOM     12  H   UNL     1       1.857  -4.749  -3.706  0.00  0.00    +0.142 HD
ENDBRANCH   7  10
ENDBRANCH   1   4
BRANCH   1  13
ATOM     13  N   UNL     1       4.153  -1.377   2.168  0.00  0.00    -0.215 N 
ATOM     14  H   UNL     1       4.657  -1.687   2.937  0.00  0.00    +0.174 HD
BRANCH  13  17
ATOM     15  N   UNL     1       0.762  -0.324   1.351  0.00  0.00    -0.314 N 
ATOM     16  C   UNL     1       2.094  -0.580   1.246  0.00  0.00    +0.113 A 
ATOM     17  C   UNL     1       2.779  -1.116   2.289  0.00  0.00    +0.064 A 
ATOM     18  C   UNL     1       2.109  -1.410   3.490  0.00  0.00    +0.031 A 
ATOM     19  C   UNL     1       0.774  -1.150   3.588  0.00  0.00    +0.072 A 
ATOM     20  C   UNL     1       0.097  -0.591   2.491  0.00  0.00    +0.251 A 
ATOM     21  O   UNL     1      -1.097  -0.349   2.571  0.00  0.00    -0.268 OA
BRANCH  15  23
ATOM     22  C   UNL     1       0.092   1.781   0.301  0.00  0.00    +0.027 C 
ATOM     23  C   UNL     1       0.043   0.254   0.213  0.00  0.00    +0.121 C 
ENDBRANCH  15  23
ENDBRANCH  13  17
ENDBRANCH   1  13
TORSDOF 5
