REMARK  Name = ZINC50973352
REMARK  7 active torsions:
REMARK  status: ('A' for Active; 'I' for Inactive)
REMARK    1  A    between atoms: C_1  and  C_2
REMARK    2  A    between atoms: C_2  and  C_3
REMARK    3  A    between atoms: C_3  and  C_4
REMARK    4  A    between atoms: C_3  and  C_5
REMARK    5  A    between atoms: C_3  and  N_9
REMARK    6  A    between atoms: N_6  and  O_7
REMARK    7  A    between atoms: C_10  and  C_12
REMARK                            x       y       z     vdW  Elec       q    Type
REMARK                         _______ _______ _______ _____ _____    ______ ____
ROOT
ATOM      1  C   UNL     1       0.759  -0.598  -1.192  0.00  0.00    +0.090 C 
ATOM      2  C   UNL     1       0.512  -2.102  -1.056  0.00  0.00    +0.040 C 
ENDROOT
BRANCH   1   3
ATOM      3  C   UNL     1       0.138  -0.101  -2.472  0.00  0.00    +0.155 C 
ATOM      4  N   UNL     1      -0.528  -0.913  -3.225  0.00  0.00    -0.075 NA
ATOM      5  N   UNL     1       0.281   1.218  -2.840  0.00  0.00    -0.342 N 
ATOM      6  H   UNL     1       0.715   1.844  -2.240  0.00  0.00    +0.144 HD
ATOM      7  H   UNL     1      -0.054   1.521  -3.698  0.00  0.00    +0.144 HD
BRANCH   4   8
ATOM      8  O   UNL     1      -1.111  -0.447  -4.428  0.00  0.00    -0.408 OA
ATOM      9  H   UNL     1      -1.589  -1.126  -4.923  0.00  0.00    +0.328 HD
ENDBRANCH   4   8
ENDBRANCH   1   3
BRANCH   1  10
ATOM     10  N   UNL     1       2.200  -0.340  -1.216  0.00  0.00    -0.301 N 
ATOM     11  C   UNL     1       2.967  -0.702  -0.168  0.00  0.00    +0.243 C 
ATOM     12  O   UNL     1       2.464  -1.242   0.794  0.00  0.00    -0.273 OA
ATOM     13  H   UNL     1       2.603   0.091  -1.986  0.00  0.00    +0.150 HD
BRANCH  11  14
ATOM     14  C   UNL     1       4.451  -0.436  -0.193  0.00  0.00    +0.204 C 
ATOM     15  C   UNL     1       4.699   1.074  -0.203  0.00  0.00    +0.041 C 
ATOM     16  C   UNL     1       6.207   1.336  -0.168  0.00  0.00    +0.005 C 
ATOM     17  C   UNL     1       6.803   0.657   1.070  0.00  0.00    +0.028 C 
ATOM     18  C   UNL     1       6.474  -0.837   1.031  0.00  0.00    +0.161 C 
ATOM     19  O   UNL     1       5.057  -1.010   0.967  0.00  0.00    -0.367 OA
ENDBRANCH  11  14
ENDBRANCH   1  10
BRANCH   1  21
ATOM     20  C   UNL     1      -1.391  -0.031  -0.052  0.00  0.00    +0.006 C 
ATOM     21  C   UNL     1       0.130   0.132  -0.003  0.00  0.00    +0.030 C 
ENDBRANCH   1  21
TORSDOF 5
