REMARK  Name = ZINC12901472
REMARK  5 active torsions:
REMARK  status: ('A' for Active; 'I' for Inactive)
REMARK    1  A    between atoms: C_1  and  C_2
REMARK    2  A    between atoms: C_2  and  C_27
REMARK    3  A    between atoms: C_3  and  C_17
REMARK    4  A    between atoms: N_19  and  C_20
REMARK    5  A    between atoms: C_23  and  O_26
REMARK                            x       y       z     vdW  Elec       q    Type
REMARK                         _______ _______ _______ _____ _____    ______ ____
ROOT
ATOM      1  C   UNL     1       7.522   1.925   1.047  0.00  0.00    +0.025 C 
ATOM      2  C   UNL     1       8.043   3.357   0.905  0.00  0.00    +0.040 C 
ATOM      3  C   UNL     1       6.905   4.384   1.115  0.00  0.00    +0.179 C 
ATOM      4  N   UNL     1       7.032   5.148   2.358  0.00  0.00    -0.269 N 
ATOM      5  C   UNL     1       8.463   5.435   2.671  0.00  0.00    +0.167 C 
ATOM      6  S   UNL     1       9.188   3.785   2.288  0.00  0.00    -0.125 S 
ATOM      7  C   UNL     1       8.525   5.704   4.147  0.00  0.00    -0.005 A 
ATOM      8  C   UNL     1       9.554   5.795   5.056  0.00  0.00    +0.007 A 
ATOM      9  C   UNL     1       9.283   6.082   6.383  0.00  0.00    +0.000 A 
ATOM     10  C   UNL     1       7.978   6.277   6.801  0.00  0.00    +0.001 A 
ATOM     11  C   UNL     1       6.938   6.181   5.900  0.00  0.00    +0.013 A 
ATOM     12  C   UNL     1       7.202   5.885   4.562  0.00  0.00    +0.043 A 
ATOM     13  C   UNL     1       6.322   5.678   3.396  0.00  0.00    +0.249 C 
ATOM     14  O   UNL     1       5.138   5.951   3.357  0.00  0.00    -0.270 OA
ATOM     15  C   UNL     1       8.720   3.559  -0.452  0.00  0.00    +0.025 C 
ENDROOT
BRANCH   3  16
ATOM     16  C   UNL     1       5.588   3.651   1.131  0.00  0.00    +0.239 C 
ATOM     17  O   UNL     1       5.051   3.393   2.187  0.00  0.00    -0.273 OA
ATOM     18  N   UNL     1       5.008   3.282  -0.028  0.00  0.00    -0.284 N 
ATOM     19  H   UNL     1       5.473   3.420  -0.868  0.00  0.00    +0.155 HD
BRANCH  18  20
ATOM     20  C   UNL     1       3.734   2.700  -0.020  0.00  0.00    +0.034 A 
ATOM     21  C   UNL     1       2.800   3.086   0.933  0.00  0.00    +0.027 A 
ATOM     22  C   UNL     1       1.545   2.511   0.940  0.00  0.00    +0.047 A 
ATOM     23  C   UNL     1       1.216   1.549  -0.003  0.00  0.00    +0.117 A 
ATOM     24  C   UNL     1       2.150   1.159  -0.952  0.00  0.00    +0.047 A 
ATOM     25  C   UNL     1       3.404   1.737  -0.964  0.00  0.00    +0.027 A 
BRANCH  23  26
ATOM     26  O   UNL     1      -0.021   0.983   0.005  0.00  0.00    -0.507 OA
ATOM     27  H   UNL     1      -0.671   1.452  -0.535  0.00  0.00    +0.292 HD
ENDBRANCH  23  26
ENDBRANCH  18  20
ENDBRANCH   3  16
TORSDOF 3
