REMARK  Name = ZINC36772923
REMARK  6 active torsions:
REMARK  status: ('A' for Active; 'I' for Inactive)
REMARK    1  A    between atoms: C_4  and  C_7
REMARK    2  A    between atoms: N_9  and  N_10
REMARK    3  A    between atoms: C_11  and  C_13
REMARK    4  A    between atoms: C_13  and  S_14
REMARK    5  A    between atoms: S_14  and  C_15
REMARK    6  A    between atoms: N_17  and  C_21
REMARK                            x       y       z     vdW  Elec       q    Type
REMARK                         _______ _______ _______ _____ _____    ______ ____
ROOT
ATOM      1  C   UNL     1       6.418  -5.071  -1.670  0.00  0.00    +0.173 C 
ENDROOT
BRANCH   1   3
ATOM      2  N   UNL     1       5.165  -3.163  -2.623  0.00  0.00    -0.233 N 
ATOM      3  C   UNL     1       5.144  -4.425  -2.151  0.00  0.00    +0.239 C 
ATOM      4  O   UNL     1       4.101  -5.041  -2.113  0.00  0.00    -0.273 OA
ATOM      5  H   UNL     1       6.000  -2.670  -2.653  0.00  0.00    +0.173 HD
BRANCH   2   8
ATOM      6  C   UNL     1       4.001  -1.300  -3.541  0.00  0.00    +0.260 C 
ATOM      7  O   UNL     1       5.048  -0.683  -3.579  0.00  0.00    -0.269 OA
ATOM      8  N   UNL     1       3.981  -2.563  -3.069  0.00  0.00    -0.230 N 
ATOM      9  H   UNL     1       3.146  -3.055  -3.039  0.00  0.00    +0.173 HD
BRANCH   6  13
ATOM     10  C   UNL     1       0.410   0.520  -4.896  0.00  0.00    +0.000 A 
ATOM     11  C   UNL     1       1.599   1.226  -4.940  0.00  0.00    +0.001 A 
ATOM     12  C   UNL     1       2.769   0.640  -4.502  0.00  0.00    +0.013 A 
ATOM     13  C   UNL     1       2.751  -0.667  -4.012  0.00  0.00    +0.038 A 
ATOM     14  C   UNL     1       1.548  -1.373  -3.970  0.00  0.00    +0.013 A 
ATOM     15  C   UNL     1       0.386  -0.776  -4.412  0.00  0.00    +0.001 A 
ENDBRANCH   6  13
ENDBRANCH   2   8
ENDBRANCH   1   3
BRANCH   1  16
ATOM     16  S   UNL     1       6.065  -6.757  -1.101  0.00  0.00    -0.088 S 
BRANCH  16  17
ATOM     17  C   UNL     1       7.632  -7.368  -0.579  0.00  0.00    +0.158 A 
ATOM     18  N   UNL     1       8.795  -6.766  -0.584  0.00  0.00    -0.151 NA
ATOM     19  N   UNL     1       9.919  -7.417  -0.131  0.00  0.00    -0.217 N 
ATOM     20  C   UNL     1       9.797  -8.691   0.320  0.00  0.00    +0.150 A 
ATOM     21  S   UNL     1      10.995  -9.746   0.937  0.00  0.00    -0.023 S 
ATOM     22  S   UNL     1       8.046  -8.967   0.101  0.00  0.00    -0.034 S 
BRANCH  19  23
ATOM     23  C   UNL     1      11.164  -6.777  -0.134  0.00  0.00    +0.067 A 
ATOM     24  C   UNL     1      12.276  -7.421  -0.663  0.00  0.00    +0.029 A 
ATOM     25  C   UNL     1      13.503  -6.788  -0.666  0.00  0.00    +0.022 A 
ATOM     26  C   UNL     1      13.626  -5.513  -0.142  0.00  0.00    +0.041 A 
ATOM     27  C   UNL     1      12.520  -4.869   0.385  0.00  0.00    +0.022 A 
ATOM     28  C   UNL     1      11.289  -5.495   0.386  0.00  0.00    +0.029 A 
ATOM     29 CL   UNL     1      15.170  -4.720  -0.146  0.00  0.00    -0.084 Cl
ENDBRANCH  19  23
ENDBRANCH  16  17
ENDBRANCH   1  16
TORSDOF 6
