REMARK  Name = ZINC37929633
REMARK  7 active torsions:
REMARK  status: ('A' for Active; 'I' for Inactive)
REMARK    1  A    between atoms: C_1  and  C_2
REMARK    2  A    between atoms: N_4  and  C_5
REMARK    3  A    between atoms: C_5  and  C_6
REMARK    4  A    between atoms: C_6  and  N_7
REMARK    5  A    between atoms: N_7  and  S_8
REMARK    6  A    between atoms: S_8  and  C_11
REMARK    7  A    between atoms: C_16  and  N_17
REMARK                            x       y       z     vdW  Elec       q    Type
REMARK                         _______ _______ _______ _____ _____    ______ ____
ROOT
ATOM      1  S   UNL     1      -3.911  -5.051   0.522  0.00  0.00    +0.060 S 
ATOM      2  O   UNL     1      -3.658  -6.449   0.560  0.00  0.00    -0.153 OA
ATOM      3  O   UNL     1      -4.324  -4.320   1.668  0.00  0.00    -0.153 OA
ENDROOT
BRANCH   1   4
ATOM      4  C   UNL     1      -5.146  -4.796  -0.709  0.00  0.00    +0.127 A 
ATOM      5  C   UNL     1      -6.262  -4.035  -0.421  0.00  0.00    +0.050 A 
ATOM      6  C   UNL     1      -7.232  -3.834  -1.388  0.00  0.00    +0.043 A 
ATOM      7  C   UNL     1      -7.086  -4.394  -2.645  0.00  0.00    +0.022 A 
ATOM      8  C   UNL     1      -5.972  -5.155  -2.938  0.00  0.00    +0.026 A 
ATOM      9  C   UNL     1      -4.994  -5.354  -1.972  0.00  0.00    +0.051 A 
ATOM     10 CL   UNL     1      -8.634  -2.878  -1.022  0.00  0.00    -0.083 Cl
BRANCH   9  11
ATOM     11  N   UNL     1      -3.862  -6.118  -2.268  0.00  0.00    -0.356 N 
ATOM     12  H   UNL     1      -3.140  -6.185  -1.624  0.00  0.00    +0.142 HD
ATOM     13  H   UNL     1      -3.799  -6.582  -3.118  0.00  0.00    +0.142 HD
ENDBRANCH   9  11
ENDBRANCH   1   4
BRANCH   1  14
ATOM     14  N   UNL     1      -2.521  -4.333  -0.022  0.00  0.00    -0.188 NA
ATOM     15  H   UNL     1      -1.742  -4.875  -0.222  0.00  0.00    +0.148 HD
BRANCH  14  16
ATOM     16  C   UNL     1      -2.470  -2.880  -0.203  0.00  0.00    +0.124 C 
BRANCH  16  17
ATOM     17  C   UNL     1      -1.012  -2.434  -0.335  0.00  0.00    +0.121 C 
BRANCH  17  21
ATOM     18  C   UNL     1       0.282   1.133  -0.840  0.00  0.00    +0.109 C 
ATOM     19  C   UNL     1       0.229  -0.362  -0.654  0.00  0.00    +0.210 C 
ATOM     20  O   UNL     1       1.256  -1.007  -0.630  0.00  0.00    -0.276 OA
ATOM     21  N   UNL     1      -0.960  -0.982  -0.516  0.00  0.00    -0.314 N 
ATOM     22  H   UNL     1      -1.781  -0.466  -0.535  0.00  0.00    +0.149 HD
ENDBRANCH  17  21
ENDBRANCH  16  17
ENDBRANCH  14  16
ENDBRANCH   1  14
TORSDOF 6
