REMARK  Name = ZINC65734347
REMARK  6 active torsions:
REMARK  status: ('A' for Active; 'I' for Inactive)
REMARK    1  A    between atoms: C_6  and  O_24
REMARK    2  A    between atoms: C_8  and  O_10
REMARK    3  A    between atoms: O_10  and  C_11
REMARK    4  A    between atoms: C_13  and  O_23
REMARK    5  A    between atoms: C_15  and  O_22
REMARK    6  A    between atoms: C_17  and  O_21
REMARK                            x       y       z     vdW  Elec       q    Type
REMARK                         _______ _______ _______ _____ _____    ______ ____
ROOT
ATOM      1  C   UNL     1      -1.384  -1.769   0.845  0.00  0.00    +0.282 C 
ATOM      2  C   UNL     1      -2.846  -2.147   1.093  0.00  0.00    +0.201 C 
ATOM      3  C   UNL     1      -2.904  -3.530   1.749  0.00  0.00    +0.178 C 
ATOM      4  C   UNL     1      -2.188  -4.540   0.847  0.00  0.00    +0.171 C 
ATOM      5  C   UNL     1      -0.750  -4.070   0.608  0.00  0.00    +0.197 C 
ATOM      6  O   UNL     1      -0.768  -2.765   0.025  0.00  0.00    -0.346 OA
ENDROOT
BRANCH   4   7
ATOM      7  O   UNL     1      -2.173  -5.821   1.482  0.00  0.00    -0.387 OA
ATOM      8  H   UNL     1      -1.734  -6.511   0.966  0.00  0.00    +0.210 HD
ENDBRANCH   4   7
BRANCH   3   9
ATOM      9  O   UNL     1      -4.267  -3.922   1.920  0.00  0.00    -0.386 OA
ATOM     10  H   UNL     1      -4.378  -4.790   2.331  0.00  0.00    +0.210 HD
ENDBRANCH   3   9
BRANCH   2  11
ATOM     11  O   UNL     1      -3.550  -2.177  -0.150  0.00  0.00    -0.384 OA
ATOM     12  H   UNL     1      -3.550  -1.333  -0.622  0.00  0.00    +0.210 HD
ENDBRANCH   2  11
BRANCH   1  13
ATOM     13  O   UNL     1      -1.324  -0.504   0.182  0.00  0.00    -0.342 OA
BRANCH  13  20
ATOM     14  C   UNL     1      -0.019   1.529   0.011  0.00  0.00    +0.053 C 
ATOM     15  C   UNL     1       1.423   2.038  -0.001  0.00  0.00    +0.107 C 
ATOM     16  N   UNL     1       2.182   1.400  -1.069  0.00  0.00    -0.313 N 
ATOM     17  C   UNL     1       1.819   0.265  -1.668  0.00  0.00    +0.244 C 
ATOM     18  O   UNL     1       2.552  -0.195  -2.518  0.00  0.00    -0.273 OA
ATOM     19  C   UNL     1       0.551  -0.473  -1.348  0.00  0.00    +0.229 C 
ATOM     20  C   UNL     1       0.002  -0.004   0.002  0.00  0.00    +0.160 C 
ATOM     21  H   UNL     1       3.002   1.827  -1.362  0.00  0.00    +0.149 HD
BRANCH  19  22
ATOM     22  O   UNL     1       0.820  -1.875  -1.288  0.00  0.00    -0.380 OA
ATOM     23  H   UNL     1       1.166  -2.245  -2.111  0.00  0.00    +0.211 HD
ENDBRANCH  19  22
ENDBRANCH  13  20
ENDBRANCH   1  13
TORSDOF 6
