REMARK  Name = ZINC09009243
REMARK  10 active torsions:
REMARK  status: ('A' for Active; 'I' for Inactive)
REMARK    1  A    between atoms: C_1  and  C_2
REMARK    2  A    between atoms: C_2  and  C_30
REMARK    3  A    between atoms: C_3  and  N_16
REMARK    4  A    between atoms: N_5  and  C_9
REMARK    5  A    between atoms: C_9  and  C_10
REMARK    6  A    between atoms: C_10  and  N_57
REMARK    7  A    between atoms: N_16  and  O_29
REMARK    8  A    between atoms: N_19  and  C_20
REMARK    9  A    between atoms: C_23  and  O_27
REMARK   10  A    between atoms: O_27  and  C_28
REMARK                            x       y       z     vdW  Elec       q    Type
REMARK                         _______ _______ _______ _____ _____    ______ ____
ROOT
ATOM      1  C   UNL     1       0.617   2.751   1.533  0.00  0.00    +0.026 C 
ATOM      2  C   UNL     1       0.707   1.247   1.270  0.00  0.00    +0.054 C 
ATOM      3  C   UNL     1      -0.587   0.718   0.618  0.00  0.00    +0.209 C 
ATOM      4  N   UNL     1      -0.377   0.162  -0.699  0.00  0.00    -0.299 N 
ATOM      5  C   UNL     1       0.846   0.137  -1.247  0.00  0.00    +0.111 C 
ATOM      6  S   UNL     1       1.276  -0.479  -2.786  0.00  0.00    -0.028 S 
ATOM      7  S   UNL     1       1.932   0.877  -0.043  0.00  0.00    -0.093 S 
ATOM      8  C   UNL     1       1.029   0.483   2.556  0.00  0.00    +0.026 C 
ENDROOT
BRANCH   3   9
ATOM      9  N   UNL     1      -1.158  -0.320   1.480  0.00  0.00    -0.145 N 
ATOM     10  C   UNL     1      -2.325  -0.098   2.119  0.00  0.00    +0.331 C 
ATOM     11  O   UNL     1      -2.946   0.927   1.913  0.00  0.00    -0.250 OA
ATOM     12  N   UNL     1      -2.802  -1.013   2.986  0.00  0.00    -0.268 N 
ATOM     13  H   UNL     1      -2.270  -1.792   3.212  0.00  0.00    +0.156 HD
BRANCH  12  14
ATOM     14  C   UNL     1      -4.068  -0.839   3.561  0.00  0.00    +0.036 A 
ATOM     15  C   UNL     1      -4.288  -1.209   4.881  0.00  0.00    +0.027 A 
ATOM     16  C   UNL     1      -5.536  -1.037   5.448  0.00  0.00    +0.049 A 
ATOM     17  C   UNL     1      -6.570  -0.495   4.699  0.00  0.00    +0.138 A 
ATOM     18  C   UNL     1      -6.351  -0.124   3.379  0.00  0.00    +0.084 A 
ATOM     19  C   UNL     1      -5.101  -0.291   2.813  0.00  0.00    +0.047 A 
ATOM     20 CL   UNL     1      -7.646   0.554   2.442  0.00  0.00    -0.080 Cl
BRANCH  17  21
ATOM     21  O   UNL     1      -7.798  -0.326   5.258  0.00  0.00    -0.494 OA
ATOM     22  C   UNL     1      -7.951  -0.728   6.621  0.00  0.00    +0.277 C 
ENDBRANCH  17  21
ENDBRANCH  12  14
BRANCH   9  23
ATOM     23  O   UNL     1      -0.485  -1.555   1.643  0.00  0.00    -0.290 OA
ATOM     24  H   UNL     1      -0.899  -2.146   2.287  0.00  0.00    +0.242 HD
ENDBRANCH   9  23
ENDBRANCH   3   9
BRANCH   4  25
ATOM     25  C   UNL     1      -1.515  -0.380  -1.445  0.00  0.00    +0.089 C 
BRANCH  25  26
ATOM     26  C   UNL     1      -2.146   0.729  -2.289  0.00  0.00    -0.059 C 
BRANCH  26  32
ATOM     27  C   UNL     1      -2.842  -0.797  -4.037  0.00  0.00    -0.050 C 
ATOM     28  C   UNL     1      -4.065  -1.381  -4.750  0.00  0.00    +0.141 C 
ATOM     29  O   UNL     1      -4.822  -0.318  -5.335  0.00  0.00    -0.383 OA
ATOM     30  C   UNL     1      -5.272   0.656  -4.390  0.00  0.00    +0.141 C 
ATOM     31  C   UNL     1      -4.062   1.261  -3.673  0.00  0.00    -0.050 C 
ATOM     32  N   UNL     1      -3.305   0.172  -3.021  0.00  0.00    +0.384 N 
ATOM     33  H   UNL     1      -3.920  -0.310  -2.355  0.00  0.00    -0.082 HD
ENDBRANCH  26  32
ENDBRANCH  25  26
ENDBRANCH   4  25
TORSDOF 7
