REMARK  Name = ZINC58015273
REMARK  6 active torsions:
REMARK  status: ('A' for Active; 'I' for Inactive)
REMARK    1  A    between atoms: C_3  and  C_13
REMARK    2  A    between atoms: N_4  and  C_6
REMARK    3  A    between atoms: N_15  and  C_16
REMARK    4  A    between atoms: C_16  and  C_17
REMARK    5  A    between atoms: C_17  and  N_18
REMARK    6  A    between atoms: C_19  and  C_21
REMARK                            x       y       z     vdW  Elec       q    Type
REMARK                         _______ _______ _______ _____ _____    ______ ____
ROOT
ATOM      1  C   UNL     1       3.508   0.479  -0.567  0.00  0.00    +0.261 C 
ATOM      2  O   UNL     1       4.180   1.481  -0.727  0.00  0.00    -0.269 OA
ATOM      3  N   UNL     1       4.076  -0.738  -0.675  0.00  0.00    -0.309 N 
ATOM      4  H   UNL     1       3.528  -1.536  -0.618  0.00  0.00    +0.149 HD
ENDROOT
BRANCH   1   7
ATOM      5  C   UNL     1      -0.065   0.118   0.151  0.00  0.00    +0.020 A 
ATOM      6  C   UNL     1       1.178  -0.443  -0.160  0.00  0.00    +0.033 A 
ATOM      7  C   UNL     1       2.080   0.597  -0.257  0.00  0.00    +0.109 A 
ATOM      8  N   UNL     1       1.393   1.766  -0.008  0.00  0.00    -0.312 N 
ATOM      9  C   UNL     1       0.093   1.460   0.237  0.00  0.00    +0.092 A 
BRANCH   8  10
ATOM     10  C   UNL     1       1.944   3.054  -0.009  0.00  0.00    +0.047 A 
ATOM     11  C   UNL     1       3.021   3.350   0.816  0.00  0.00    +0.027 A 
ATOM     12  C   UNL     1       3.563   4.620   0.813  0.00  0.00    +0.016 A 
ATOM     13  C   UNL     1       3.033   5.597  -0.010  0.00  0.00    +0.014 A 
ATOM     14  C   UNL     1       1.960   5.306  -0.833  0.00  0.00    +0.016 A 
ATOM     15  C   UNL     1       1.418   4.035  -0.839  0.00  0.00    +0.027 A 
ATOM     16  I   UNL     1       3.858   7.523  -0.011  0.00  0.00    -0.044 I 
ENDBRANCH   8  10
ENDBRANCH   1   7
BRANCH   3  17
ATOM     17  C   UNL     1       5.522  -0.856  -0.878  0.00  0.00    +0.123 C 
BRANCH  17  18
ATOM     18  C   UNL     1       5.906  -2.334  -0.967  0.00  0.00    +0.123 C 
BRANCH  18  19
ATOM     19  N   UNL     1       7.352  -2.452  -1.171  0.00  0.00    -0.307 N 
ATOM     20  C   UNL     1       7.920  -3.669  -1.279  0.00  0.00    +0.279 C 
ATOM     21  O   UNL     1       7.233  -4.670  -1.207  0.00  0.00    -0.267 OA
ATOM     22  H   UNL     1       7.900  -1.654  -1.228  0.00  0.00    +0.149 HD
BRANCH  20  23
ATOM     23  C   UNL     1       9.368  -3.787  -1.482  0.00  0.00    +0.189 A 
ATOM     24  C   UNL     1      10.068  -4.952  -1.613  0.00  0.00    +0.054 A 
ATOM     25  C   UNL     1      11.414  -4.597  -1.790  0.00  0.00    +0.042 A 
ATOM     26  C   UNL     1      11.476  -3.247  -1.760  0.00  0.00    +0.196 A 
ATOM     27  O   UNL     1      10.241  -2.763  -1.580  0.00  0.00    -0.458 OA
ENDBRANCH  20  23
ENDBRANCH  18  19
ENDBRANCH  17  18
ENDBRANCH   3  17
TORSDOF 6
