REMARK  Name = ZINC03207161
REMARK  6 active torsions:
REMARK  status: ('A' for Active; 'I' for Inactive)
REMARK    1  A    between atoms: C_1  and  C_2
REMARK    2  A    between atoms: C_2  and  C_4
REMARK    3  A    between atoms: C_2  and  N_16
REMARK    4  A    between atoms: C_4  and  C_6
REMARK    5  A    between atoms: C_4  and  N_11
REMARK    6  A    between atoms: N_19  and  C_20
REMARK                            x       y       z     vdW  Elec       q    Type
REMARK                         _______ _______ _______ _____ _____    ______ ____
ROOT
ATOM      1  C   UNL     1      -0.009   1.522   0.006  0.00  0.00    +0.026 C 
ATOM      2  C   UNL     1       0.002  -0.008   0.001  0.00  0.00    +0.063 C 
ENDROOT
BRANCH   2   3
ATOM      3  N   UNL     1       0.710  -0.495   1.187  0.00  0.00    -0.298 N 
ATOM      4  C   UNL     1       0.052  -0.632   2.356  0.00  0.00    +0.304 C 
ATOM      5  O   UNL     1      -1.129  -0.351   2.425  0.00  0.00    -0.253 OA
ATOM      6  N   UNL     1       0.703  -1.080   3.447  0.00  0.00    -0.269 N 
ATOM      7  H   UNL     1       1.652  -0.719   1.132  0.00  0.00    +0.150 HD
ATOM      8  H   UNL     1       1.627  -1.367   3.377  0.00  0.00    +0.156 HD
BRANCH   6   9
ATOM      9  C   UNL     1       0.046  -1.131   4.683  0.00  0.00    +0.035 A 
ATOM     10  C   UNL     1       0.745  -0.864   5.853  0.00  0.00    +0.026 A 
ATOM     11  C   UNL     1       0.095  -0.914   7.071  0.00  0.00    +0.040 A 
ATOM     12  C   UNL     1      -1.252  -1.230   7.125  0.00  0.00    +0.124 A 
ATOM     13  C   UNL     1      -1.951  -1.496   5.960  0.00  0.00    +0.040 A 
ATOM     14  C   UNL     1      -1.306  -1.442   4.740  0.00  0.00    +0.026 A 
ATOM     15  F   UNL     1      -1.886  -1.278   8.318  0.00  0.00    -0.205 F 
ENDBRANCH   6   9
ENDBRANCH   2   3
BRANCH   2  16
ATOM     16  C   UNL     1       0.712  -0.509  -1.258  0.00  0.00    -0.010 C 
BRANCH  16  17
ATOM     17  N   UNL     1       0.074   0.076  -2.446  0.00  0.00    +0.386 N 
ATOM     18  C   UNL     1      -1.343  -0.339  -2.505  0.00  0.00    -0.078 C 
ATOM     19  C   UNL     1      -1.638  -0.527  -4.014  0.00  0.00    -0.020 C 
ATOM     20  C   UNL     1      -0.301  -1.130  -4.521  0.00  0.00    -0.020 C 
ATOM     21  C   UNL     1       0.755  -0.405  -3.662  0.00  0.00    -0.078 C 
ATOM     22  H   UNL     1       0.130   1.082  -2.400  0.00  0.00    -0.081 HD
ENDBRANCH  16  17
BRANCH  16  23
ATOM     23  C   UNL     1       2.161  -0.101  -1.214  0.00  0.00    -0.022 A 
ATOM     24  C   UNL     1       3.246  -0.838  -0.870  0.00  0.00    +0.009 A 
ATOM     25  C   UNL     1       4.495  -0.248  -0.903  0.00  0.00    +0.008 A 
ATOM     26  C   UNL     1       4.599   1.050  -1.278  0.00  0.00    +0.045 A 
ATOM     27  S   UNL     1       2.897   1.478  -1.607  0.00  0.00    -0.103 S 
ENDBRANCH  16  23
ENDBRANCH   2  16
TORSDOF 5
