REMARK  Name = ZINC09407959
REMARK  7 active torsions:
REMARK  status: ('A' for Active; 'I' for Inactive)
REMARK    1  A    between atoms: C_1  and  C_2
REMARK    2  A    between atoms: C_2  and  O_3
REMARK    3  A    between atoms: O_3  and  C_4
REMARK    4  A    between atoms: C_8  and  C_11
REMARK    5  A    between atoms: C_9  and  O_10
REMARK    6  A    between atoms: C_13  and  C_29
REMARK    7  A    between atoms: N_17  and  C_22
REMARK                            x       y       z     vdW  Elec       q    Type
REMARK                         _______ _______ _______ _____ _____    ______ ____
ROOT
ATOM      1  C   UNL     1      -0.828   1.653   6.058  0.00  0.00    +0.166 A 
ATOM      2  N   UNL     1      -1.915   2.406   6.005  0.00  0.00    -0.220 NA
ATOM      3  C   UNL     1      -2.520   2.816   7.120  0.00  0.00    +0.154 A 
ATOM      4  C   UNL     1      -1.976   2.444   8.350  0.00  0.00    +0.117 A 
ATOM      5  C   UNL     1      -0.817   1.648   8.360  0.00  0.00    +0.170 A 
ATOM      6  N   UNL     1      -0.281   1.279   7.210  0.00  0.00    -0.207 NA
ATOM      7  N   UNL     1      -0.497   1.431   9.689  0.00  0.00    -0.245 N 
ATOM      8  C   UNL     1      -1.410   2.059  10.455  0.00  0.00    +0.333 A 
ATOM      9  O   UNL     1      -1.417   2.066  11.671  0.00  0.00    -0.246 OA
ATOM     10  N   UNL     1      -2.314   2.678   9.671  0.00  0.00    -0.303 N 
ATOM     11  H   UNL     1      -3.072   3.199   9.980  0.00  0.00    +0.171 HD
ENDROOT
BRANCH   7  12
ATOM     12  C   UNL     1       0.591   0.683  10.159  0.00  0.00    +0.053 A 
ATOM     13  C   UNL     1       1.459   0.078   9.259  0.00  0.00    +0.028 A 
ATOM     14  C   UNL     1       2.534  -0.654   9.724  0.00  0.00    +0.022 A 
ATOM     15  C   UNL     1       2.740  -0.794  11.085  0.00  0.00    +0.041 A 
ATOM     16  C   UNL     1       1.874  -0.196  11.984  0.00  0.00    +0.022 A 
ATOM     17  C   UNL     1       0.801   0.541  11.524  0.00  0.00    +0.028 A 
ATOM     18 CL   UNL     1       4.088  -1.721  11.667  0.00  0.00    -0.084 Cl
ENDBRANCH   7  12
BRANCH   1  23
ATOM     19  C   UNL     1      -0.148   1.182   2.381  0.00  0.00    +0.162 A 
ATOM     20  C   UNL     1       0.993   0.398   2.421  0.00  0.00    +0.049 A 
ATOM     21  C   UNL     1       1.540   0.023   3.635  0.00  0.00    +0.004 A 
ATOM     22  C   UNL     1       0.954   0.428   4.817  0.00  0.00    +0.015 A 
ATOM     23  C   UNL     1      -0.196   1.217   4.790  0.00  0.00    +0.064 A 
ATOM     24  C   UNL     1      -0.746   1.600   3.564  0.00  0.00    +0.169 A 
BRANCH  24  25
ATOM     25  O   UNL     1      -1.862   2.374   3.529  0.00  0.00    -0.503 OA
ATOM     26  H   UNL     1      -2.688   1.872   3.522  0.00  0.00    +0.292 HD
ENDBRANCH  24  25
BRANCH  19  27
ATOM     27  O   UNL     1      -0.682   1.547   1.184  0.00  0.00    -0.489 OA
BRANCH  27  29
ATOM     28  C   UNL     1      -0.753   1.593  -1.232  0.00  0.00    +0.048 C 
ATOM     29  C   UNL     1      -0.013   1.086   0.008  0.00  0.00    +0.226 C 
ENDBRANCH  27  29
ENDBRANCH  19  27
ENDBRANCH   1  23
BRANCH   3  30
ATOM     30  C   UNL     1      -3.740   3.654   7.055  0.00  0.00    +0.262 C 
ATOM     31  O   UNL     1      -4.279   4.024   8.079  0.00  0.00    -0.269 OA
ATOM     32  N   UNL     1      -4.253   4.005   5.859  0.00  0.00    -0.324 N 
ATOM     33  H   UNL     1      -3.824   3.709   5.041  0.00  0.00    +0.145 HD
ATOM     34  H   UNL     1      -5.052   4.553   5.816  0.00  0.00    +0.145 HD
ENDBRANCH   3  30
TORSDOF 6
