REMARK  Name = ZINC39964817
REMARK  7 active torsions:
REMARK  status: ('A' for Active; 'I' for Inactive)
REMARK    1  A    between atoms: C_1  and  C_2
REMARK    2  A    between atoms: C_7  and  C_12
REMARK    3  A    between atoms: C_12  and  C_29
REMARK    4  A    between atoms: C_13  and  C_14
REMARK    5  A    between atoms: C_19  and  O_20
REMARK    6  A    between atoms: O_20  and  C_21
REMARK    7  A    between atoms: C_21  and  C_22
REMARK                            x       y       z     vdW  Elec       q    Type
REMARK                         _______ _______ _______ _____ _____    ______ ____
ROOT
ATOM      1  C   UNL     1       1.483  -5.779   1.381  0.00  0.00    +0.072 C 
ATOM      2  C   UNL     1       1.194  -6.180   2.637  0.00  0.00    +0.030 C 
ENDROOT
BRANCH   1   9
ATOM      3  C   UNL     1       0.320  -2.914  -4.886  0.00  0.00    +0.044 C 
ATOM      4  C   UNL     1       0.575  -3.951  -3.824  0.00  0.00    -0.048 A 
ATOM      5  C   UNL     1       1.312  -5.100  -4.165  0.00  0.00    +0.005 A 
ATOM      6  C   UNL     1       1.586  -6.077  -3.279  0.00  0.00    +0.027 A 
ATOM      7  C   UNL     1       1.105  -5.957  -1.895  0.00  0.00    +0.060 A 
ATOM      8  N   UNL     1       1.216  -6.725  -0.850  0.00  0.00    -0.359 N 
ATOM      9  C   UNL     1       0.518  -6.062   0.259  0.00  0.00    +0.216 C 
ATOM     10  N   UNL     1      -0.015  -4.804  -0.279  0.00  0.00    -0.359 N 
ATOM     11  C   UNL     1       0.326  -4.741  -1.534  0.00  0.00    +0.061 A 
ATOM     12  C   UNL     1       0.093  -3.739  -2.583  0.00  0.00    +0.030 A 
ATOM     13  H   UNL     1       1.675  -7.579  -0.811  0.00  0.00    +0.162 HD
ATOM     14  H   UNL     1      -0.527  -4.142   0.210  0.00  0.00    +0.162 HD
ENDBRANCH   1   9
BRANCH   2  15
ATOM     15  C   UNL     1      -0.127  -6.746   2.943  0.00  0.00    +0.018 A 
ATOM     16  C   UNL     1      -1.281  -6.179   2.391  0.00  0.00    +0.011 A 
ATOM     17  C   UNL     1      -2.516  -6.715   2.681  0.00  0.00    +0.001 A 
ATOM     18  C   UNL     1      -2.622  -7.814   3.518  0.00  0.00    +0.004 A 
ATOM     19  C   UNL     1      -1.492  -8.384   4.071  0.00  0.00    +0.046 A 
ATOM     20  C   UNL     1      -0.240  -7.863   3.785  0.00  0.00    +0.128 A 
BRANCH  20  21
ATOM     21  O   UNL     1       0.872  -8.427   4.322  0.00  0.00    -0.487 OA
BRANCH  21  22
ATOM     22  C   UNL     1       0.680  -9.561   5.169  0.00  0.00    +0.267 C 
BRANCH  22  23
ATOM     23  C   UNL     1       2.016 -10.047   5.669  0.00  0.00    +0.025 A 
ATOM     24  C   UNL     1       3.175  -9.396   5.290  0.00  0.00    +0.010 A 
ATOM     25  C   UNL     1       4.400  -9.842   5.747  0.00  0.00    +0.001 A 
ATOM     26  C   UNL     1       4.469 -10.940   6.585  0.00  0.00    +0.003 A 
ATOM     27  C   UNL     1       3.312 -11.592   6.966  0.00  0.00    +0.039 A 
ATOM     28  C   UNL     1       2.083 -11.143   6.512  0.00  0.00    +0.130 A 
ATOM     29  F   UNL     1       0.951 -11.778   6.887  0.00  0.00    -0.205 F 
ENDBRANCH  22  23
ENDBRANCH  21  22
ENDBRANCH  20  21
ENDBRANCH   2  15
BRANCH   1  30
ATOM     30  C   UNL     1       2.706  -5.083   1.115  0.00  0.00    +0.099 C 
ATOM     31  N   UNL     1       3.677  -4.532   0.904  0.00  0.00    -0.191 NA
ENDBRANCH   1  30
TORSDOF 6
