REMARK  Name = ZINC05868580
REMARK  6 active torsions:
REMARK  status: ('A' for Active; 'I' for Inactive)
REMARK    1  A    between atoms: C_1  and  C_2
REMARK    2  A    between atoms: C_5  and  C_8
REMARK    3  A    between atoms: C_12  and  S_14
REMARK    4  A    between atoms: S_14  and  C_15
REMARK    5  A    between atoms: C_15  and  C_16
REMARK    6  A    between atoms: N_18  and  C_19
REMARK                            x       y       z     vdW  Elec       q    Type
REMARK                         _______ _______ _______ _____ _____    ______ ____
ROOT
ATOM      1  S   UNL     1       0.127  -7.698   1.778  0.00  0.00    -0.077 S 
ENDROOT
BRANCH   1   6
ATOM      2  C   UNL     1       0.111  -4.258  -0.023  0.00  0.00    +0.182 A 
ATOM      3  N   UNL     1       0.123  -5.016  -1.095  0.00  0.00    -0.152 NA
ATOM      4  H   UNL     1       0.141  -7.144  -1.209  0.00  0.00    +0.191 HD
ATOM      5  N   UNL     1       0.131  -6.349  -0.654  0.00  0.00    -0.253 N 
ATOM      6  C   UNL     1       0.122  -6.306   0.697  0.00  0.00    +0.185 A 
ATOM      7  N   UNL     1       0.116  -5.043   1.064  0.00  0.00    -0.201 NA
BRANCH   2  12
ATOM      8  C   UNL     1       0.063   1.501   0.007  0.00  0.00    +0.044 C 
ATOM      9  C   UNL     1       0.076  -0.005  -0.001  0.00  0.00    -0.050 A 
ATOM     10  C   UNL     1       0.083  -0.688  -1.204  0.00  0.00    +0.004 A 
ATOM     11  C   UNL     1       0.095  -2.068  -1.217  0.00  0.00    +0.012 A 
ATOM     12  C   UNL     1       0.099  -2.774  -0.015  0.00  0.00    +0.021 A 
ATOM     13  C   UNL     1       0.092  -2.081   1.194  0.00  0.00    +0.012 A 
ATOM     14  C   UNL     1       0.086  -0.701   1.195  0.00  0.00    +0.004 A 
ENDBRANCH   2  12
ENDBRANCH   1   6
BRANCH   1  15
ATOM     15  C   UNL     1       0.111  -6.965   3.437  0.00  0.00    +0.173 C 
BRANCH  15  16
ATOM     16  C   UNL     1       0.113  -8.062   4.470  0.00  0.00    +0.228 C 
ATOM     17  O   UNL     1       0.124  -9.224   4.121  0.00  0.00    -0.275 OA
ATOM     18  N   UNL     1       0.102  -7.753   5.782  0.00  0.00    -0.284 N 
ATOM     19  H   UNL     1       0.159  -6.826   6.062  0.00  0.00    +0.155 HD
BRANCH  18  20
ATOM     20  C   UNL     1       0.009  -8.769   6.740  0.00  0.00    +0.053 A 
ATOM     21  C   UNL     1       0.616  -9.997   6.513  0.00  0.00    +0.025 A 
ATOM     22  C   UNL     1       0.524 -10.998   7.460  0.00  0.00    +0.003 A 
ATOM     23  C   UNL     1      -0.173 -10.780   8.634  0.00  0.00    +0.021 A 
ATOM     24  C   UNL     1      -0.780  -9.558   8.865  0.00  0.00    +0.061 A 
ATOM     25  C   UNL     1      -0.686  -8.549   7.923  0.00  0.00    +0.080 A 
ATOM     26 CL   UNL     1      -1.440  -7.013   8.215  0.00  0.00    -0.080 Cl
ATOM     27 CL   UNL     1      -1.654  -9.288  10.341  0.00  0.00    -0.082 Cl
ENDBRANCH  18  20
ENDBRANCH  15  16
ENDBRANCH   1  15
TORSDOF 5
