REMARK  Name = ZINC13275139
REMARK  5 active torsions:
REMARK  status: ('A' for Active; 'I' for Inactive)
REMARK    1  A    between atoms: C_6  and  O_7
REMARK    2  A    between atoms: O_7  and  C_8
REMARK    3  A    between atoms: C_11  and  S_16
REMARK    4  A    between atoms: C_13  and  C_14
REMARK    5  A    between atoms: S_16  and  N_19
REMARK                            x       y       z     vdW  Elec       q    Type
REMARK                         _______ _______ _______ _____ _____    ______ ____
ROOT
ATOM      1  C   UNL     1       1.216  -0.680  -0.022  0.00  0.00    +0.143 A 
ATOM      2  C   UNL     1       1.204  -2.059   0.134  0.00  0.00    +0.049 A 
ATOM      3  C   UNL     1       0.006  -2.744   0.139  0.00  0.00    +0.032 A 
ATOM      4  C   UNL     1      -1.192  -2.063  -0.005  0.00  0.00    +0.106 A 
ATOM      5  C   UNL     1      -1.200  -0.694  -0.155  0.00  0.00    +0.047 A 
ATOM      6  C   UNL     1       0.005   0.013  -0.162  0.00  0.00    +0.107 A 
ENDROOT
BRANCH   6   7
ATOM      7  C   UNL     1       0.004   1.478  -0.322  0.00  0.00    +0.390 C 
ATOM      8  O   UNL     1       1.055   2.090  -0.327  0.00  0.00    -0.240 OA
ATOM      9  O   UNL     1      -1.161   2.139  -0.468  0.00  0.00    -0.240 OA
ENDBRANCH   6   7
BRANCH   4  10
ATOM     10  S   UNL     1      -2.713  -2.954   0.003  0.00  0.00    +0.056 S 
ATOM     11  O   UNL     1      -2.470  -4.165   0.705  0.00  0.00    -0.153 OA
ATOM     12  O   UNL     1      -3.720  -2.033   0.399  0.00  0.00    -0.153 OA
BRANCH  10  13
ATOM     13  N   UNL     1      -3.044  -3.372  -1.565  0.00  0.00    -0.204 NA
ATOM     14  H   UNL     1      -2.434  -3.116  -2.274  0.00  0.00    +0.144 HD
ATOM     15  H   UNL     1      -3.848  -3.873  -1.773  0.00  0.00    +0.144 HD
ENDBRANCH  10  13
ENDBRANCH   4  10
BRANCH   1  16
ATOM     16  O   UNL     1       2.393  -0.006  -0.033  0.00  0.00    -0.455 OA
BRANCH  16  22
ATOM     17  C   UNL     1       2.183   0.215   2.326  0.00  0.00    +0.049 A 
ATOM     18  C   UNL     1       2.654   0.720   3.523  0.00  0.00    +0.043 A 
ATOM     19  C   UNL     1       3.787   1.515   3.542  0.00  0.00    +0.142 A 
ATOM     20  C   UNL     1       4.454   1.801   2.361  0.00  0.00    +0.080 A 
ATOM     21  C   UNL     1       3.988   1.292   1.164  0.00  0.00    +0.069 A 
ATOM     22  C   UNL     1       2.852   0.495   1.144  0.00  0.00    +0.130 A 
ATOM     23 CL   UNL     1       5.875   2.797   2.387  0.00  0.00    -0.080 Cl
ATOM     24  F   UNL     1       4.243   2.012   4.712  0.00  0.00    -0.204 F 
ENDBRANCH  16  22
ENDBRANCH   1  16
TORSDOF 5
