REMARK  Name = ZINC36863454
REMARK  8 active torsions:
REMARK  status: ('A' for Active; 'I' for Inactive)
REMARK    1  A    between atoms: C_1  and  C_2
REMARK    2  A    between atoms: C_2  and  C_3
REMARK    3  A    between atoms: C_7  and  C_22
REMARK    4  A    between atoms: C_11  and  C_13
REMARK    5  A    between atoms: C_15  and  N_21
REMARK    6  A    between atoms: N_17  and  C_18
REMARK    7  A    between atoms: C_18  and  C_19
REMARK    8  A    between atoms: C_18  and  C_20
REMARK                            x       y       z     vdW  Elec       q    Type
REMARK                         _______ _______ _______ _____ _____    ______ ____
ROOT
ATOM      1  C   UNL     1       0.464  -0.702  -1.208  0.00  0.00    +0.102 C 
ATOM      2  C   UNL     1      -0.007  -2.115  -0.841  0.00  0.00    +0.182 C 
ATOM      3  O   UNL     1       0.000  -2.933  -2.014  0.00  0.00    -0.373 OA
ATOM      4  C   UNL     1      -0.895  -2.494  -3.039  0.00  0.00    +0.133 C 
ATOM      5  C   UNL     1      -0.470  -1.102  -3.518  0.00  0.00    +0.139 C 
ATOM      6  N   UNL     1      -0.342  -0.225  -2.344  0.00  0.00    -0.289 N 
ATOM      7  C   UNL     1      -0.945   0.980  -2.308  0.00  0.00    +0.264 C 
ATOM      8  O   UNL     1      -0.937   1.634  -1.282  0.00  0.00    -0.268 OA
ATOM      9  C   UNL     1      -0.849  -3.476  -4.211  0.00  0.00    +0.039 C 
ENDROOT
BRANCH   7  10
ATOM     10  C   UNL     1      -1.610   1.503  -3.506  0.00  0.00    +0.107 A 
ATOM     11  C   UNL     1      -1.310   1.175  -4.812  0.00  0.00    +0.055 A 
ATOM     12  C   UNL     1      -2.187   1.901  -5.631  0.00  0.00    +0.043 A 
ATOM     13  C   UNL     1      -2.990   2.642  -4.824  0.00  0.00    +0.109 A 
ATOM     14  N   UNL     1      -2.650   2.403  -3.529  0.00  0.00    -0.339 N 
BRANCH  14  15
ATOM     15  C   UNL     1      -3.284   3.007  -2.355  0.00  0.00    +0.081 C 
ATOM     16  C   UNL     1      -3.202   4.531  -2.457  0.00  0.00    +0.030 C 
ATOM     17  C   UNL     1      -4.752   2.578  -2.291  0.00  0.00    +0.030 C 
ENDBRANCH  14  15
BRANCH  12  18
ATOM     18  N   UNL     1      -2.228   1.866  -7.037  0.00  0.00    -0.357 N 
ATOM     19  H   UNL     1      -1.609   1.301  -7.527  0.00  0.00    +0.142 HD
ATOM     20  H   UNL     1      -2.874   2.408  -7.517  0.00  0.00    +0.142 HD
ENDBRANCH  12  18
ENDBRANCH   7  10
BRANCH   1  22
ATOM     21  C   UNL     1       1.077  -0.294   1.179  0.00  0.00    +0.006 C 
ATOM     22  C   UNL     1       0.273   0.232  -0.012  0.00  0.00    +0.021 C 
ENDBRANCH   1  22
TORSDOF 4
