REMARK  Name = ZINC05226478
REMARK  9 active torsions:
REMARK  status: ('A' for Active; 'I' for Inactive)
REMARK    1  A    between atoms: C_1  and  C_2
REMARK    2  A    between atoms: C_2  and  O_3
REMARK    3  A    between atoms: O_3  and  C_4
REMARK    4  A    between atoms: C_4  and  C_6
REMARK    5  A    between atoms: C_7  and  C_15
REMARK    6  A    between atoms: C_12  and  C_14
REMARK    7  A    between atoms: C_15  and  N_16
REMARK    8  A    between atoms: C_19  and  C_23
REMARK    9  A    between atoms: C_19  and  C_24
REMARK                            x       y       z     vdW  Elec       q    Type
REMARK                         _______ _______ _______ _____ _____    ______ ____
ROOT
ATOM      1  C   UNL     1      -2.460   0.735   0.111  0.00  0.00    +0.169 C 
ENDROOT
BRANCH   1   3
ATOM      2  C   UNL     1      -0.724   2.111   1.201  0.00  0.00    +0.075 C 
ATOM      3  C   UNL     1      -1.212   1.578   0.060  0.00  0.00    +0.041 C 
ATOM      4  N   UNL     1      -0.590   1.785  -1.137  0.00  0.00    -0.271 N 
ATOM      5  C   UNL     1       0.518   2.522  -1.281  0.00  0.00    +0.304 C 
ATOM      6  O   UNL     1       0.998   2.654  -2.390  0.00  0.00    -0.253 OA
ATOM      7  N   UNL     1       1.120   3.123  -0.235  0.00  0.00    -0.292 N 
ATOM      8  C   UNL     1       0.530   2.957   1.104  0.00  0.00    +0.110 C 
ATOM      9  C   UNL     1       0.204   4.347   1.652  0.00  0.00    +0.033 C 
ATOM     10  H   UNL     1      -0.975   1.378  -1.929  0.00  0.00    +0.156 HD
ATOM     11  H   UNL     1       1.922   3.654  -0.362  0.00  0.00    +0.151 HD
BRANCH   2  12
ATOM     12  C   UNL     1      -1.364   1.893   2.443  0.00  0.00    +0.338 C 
ATOM     13  O   UNL     1      -2.438   1.323   2.482  0.00  0.00    -0.245 OA
BRANCH  12  14
ATOM     14  O   UNL     1      -0.783   2.316   3.585  0.00  0.00    -0.462 OA
BRANCH  14  16
ATOM     15  C   UNL     1      -0.678   2.609   5.982  0.00  0.00    +0.048 C 
ATOM     16  C   UNL     1      -1.485   2.062   4.803  0.00  0.00    +0.229 C 
ENDBRANCH  14  16
ENDBRANCH  12  14
ENDBRANCH   2  12
ENDBRANCH   1   3
BRANCH   1  17
ATOM     17  N   UNL     1      -2.495  -0.157  -1.050  0.00  0.00    -0.218 N 
ATOM     18  C   UNL     1      -1.965  -1.395  -1.070  0.00  0.00    +0.251 C 
ATOM     19  O   UNL     1      -1.390  -1.960  -0.165  0.00  0.00    -0.272 OA
ATOM     20  C   UNL     1      -2.237  -1.935  -2.460  0.00  0.00    +0.136 C 
ATOM     21  N   UNL     1      -2.957  -0.835  -3.125  0.00  0.00    -0.281 N 
ATOM     22  C   UNL     1      -3.063   0.156  -2.221  0.00  0.00    +0.310 C 
ATOM     23  O   UNL     1      -3.611   1.218  -2.444  0.00  0.00    -0.252 OA
ATOM     24  C   UNL     1      -0.924  -2.236  -3.187  0.00  0.00    +0.047 C 
ATOM     25  H   UNL     1      -3.292  -0.828  -4.035  0.00  0.00    +0.152 HD
BRANCH  20  26
ATOM     26  C   UNL     1      -3.098  -3.170  -2.391  0.00  0.00    +0.003 A 
ATOM     27  C   UNL     1      -4.329  -3.191  -3.018  0.00  0.00    +0.007 A 
ATOM     28  C   UNL     1      -5.119  -4.323  -2.954  0.00  0.00    +0.000 A 
ATOM     29  C   UNL     1      -4.678  -5.436  -2.263  0.00  0.00    +0.001 A 
ATOM     30  C   UNL     1      -3.446  -5.417  -1.635  0.00  0.00    +0.020 A 
ATOM     31  C   UNL     1      -2.653  -4.285  -1.703  0.00  0.00    +0.047 A 
ATOM     32 CL   UNL     1      -1.103  -4.263  -0.922  0.00  0.00    -0.083 Cl
ENDBRANCH  20  26
ENDBRANCH   1  17
TORSDOF 6
