REMARK  Name = ZINC62985739
REMARK  5 active torsions:
REMARK  status: ('A' for Active; 'I' for Inactive)
REMARK    1  A    between atoms: C_1  and  C_2
REMARK    2  A    between atoms: N_6  and  C_9
REMARK    3  A    between atoms: C_9  and  C_10
REMARK    4  A    between atoms: N_12  and  C_13
REMARK    5  A    between atoms: C_14  and  N_21
REMARK                            x       y       z     vdW  Elec       q    Type
REMARK                         _______ _______ _______ _____ _____    ______ ____
ROOT
ATOM      1  C   UNL     1       1.138  -4.355   3.018  0.00  0.00    +0.237 C 
ATOM      2  O   UNL     1       1.768  -5.145   2.346  0.00  0.00    -0.274 OA
ATOM      3  N   UNL     1       1.740  -3.703   4.032  0.00  0.00    -0.281 N 
ATOM      4  H   UNL     1       1.258  -3.019   4.523  0.00  0.00    +0.155 HD
ENDROOT
BRANCH   3   5
ATOM      5  C   UNL     1       3.064  -4.012   4.377  0.00  0.00    +0.073 A 
ATOM      6  C   UNL     1       3.329  -5.029   5.293  0.00  0.00    +0.049 A 
ATOM      7  C   UNL     1       4.640  -5.331   5.629  0.00  0.00    +0.044 A 
ATOM      8  C   UNL     1       5.682  -4.622   5.057  0.00  0.00    +0.044 A 
ATOM      9  C   UNL     1       5.419  -3.613   4.148  0.00  0.00    +0.042 A 
ATOM     10  C   UNL     1       4.114  -3.309   3.803  0.00  0.00    +0.065 A 
ATOM     11 CL   UNL     1       3.791  -2.046   2.657  0.00  0.00    -0.082 Cl
ATOM     12 CL   UNL     1       7.322  -5.001   5.481  0.00  0.00    -0.083 Cl
BRANCH   6  13
ATOM     13  N   UNL     1       2.274  -5.744   5.870  0.00  0.00    -0.356 N 
ATOM     14  H   UNL     1       1.358  -5.532   5.634  0.00  0.00    +0.142 HD
ATOM     15  H   UNL     1       2.460  -6.452   6.508  0.00  0.00    +0.142 HD
ENDBRANCH   6  13
ENDBRANCH   3   5
BRANCH   1  16
ATOM     16  C   UNL     1      -0.318  -4.105   2.720  0.00  0.00    +0.220 C 
BRANCH  16  22
ATOM     17  C   UNL     1      -0.896  -4.685  -2.169  0.00  0.00    +0.049 C 
ATOM     18  C   UNL     1      -1.016  -5.224  -0.767  0.00  0.00    +0.014 A 
ATOM     19  C   UNL     1      -1.510  -6.477  -0.550  0.00  0.00    +0.010 A 
ATOM     20  C   UNL     1      -1.612  -6.956   0.764  0.00  0.00    +0.018 A 
ATOM     21  C   UNL     1      -1.223  -6.176   1.799  0.00  0.00    +0.089 A 
ATOM     22  N   UNL     1      -0.732  -4.929   1.582  0.00  0.00    -0.306 N 
ATOM     23  C   UNL     1      -0.617  -4.443   0.331  0.00  0.00    +0.255 A 
ATOM     24  O   UNL     1      -0.169  -3.322   0.151  0.00  0.00    -0.267 OA
ENDBRANCH  16  22
ENDBRANCH   1  16
TORSDOF 4
