REMARK  Name = ZINC63772306
REMARK  1 active torsions:
REMARK  status: ('A' for Active; 'I' for Inactive)
REMARK    1  A    between atoms: C_4  and  N_8
REMARK                            x       y       z     vdW  Elec       q    Type
REMARK                         _______ _______ _______ _____ _____    ______ ____
ROOT
ATOM      1  C   UNL     1      -0.016   1.318   0.009  0.00  0.00    +0.147 A 
ATOM      2  C   UNL     1       1.170   2.030   0.002  0.00  0.00    +0.126 A 
ATOM      3  N   UNL     1       2.328   1.390  -0.013  0.00  0.00    -0.221 NA
ATOM      4  C   UNL     1       2.350   0.063  -0.020  0.00  0.00    +0.150 A 
ATOM      5  C   UNL     1       1.153  -0.650  -0.013  0.00  0.00    +0.146 A 
ATOM      6  N   UNL     1       0.002  -0.004   0.002  0.00  0.00    -0.242 NA
ATOM      7 BR   UNL     1       1.178  -2.541  -0.024  0.00  0.00    -0.025 Br
ATOM      8 BR   UNL     1       1.137   3.921   0.012  0.00  0.00    -0.027 Br
ENDROOT
BRANCH   4   9
ATOM      9  N   UNL     1       3.565  -0.613  -0.036  0.00  0.00    -0.341 N 
ATOM     10  H   UNL     1       4.397  -0.115  -0.041  0.00  0.00    +0.144 HD
ATOM     11  H   UNL     1       3.580  -1.583  -0.041  0.00  0.00    +0.144 HD
ENDBRANCH   4   9
TORSDOF 1
