REMARK  Name = ZINC36827095
REMARK  2 active torsions:
REMARK  status: ('A' for Active; 'I' for Inactive)
REMARK    1  A    between atoms: C_3  and  C_19
REMARK    2  A    between atoms: N_20  and  O_21
REMARK                            x       y       z     vdW  Elec       q    Type
REMARK                         _______ _______ _______ _____ _____    ______ ____
ROOT
ATOM      1  C   UNL     1       0.006   1.403   0.125  0.00  0.00    +0.020 A 
ATOM      2  C   UNL     1       0.680   0.945   1.245  0.00  0.00    +0.016 A 
ATOM      3  C   UNL     1       1.848   0.201   1.059  0.00  0.00    +0.058 A 
ATOM      4  C   UNL     1       2.289  -0.050  -0.250  0.00  0.00    +0.132 A 
ATOM      5  N   UNL     1       1.608   0.412  -1.286  0.00  0.00    -0.240 NA
ATOM      6  C   UNL     1       0.503   1.116  -1.133  0.00  0.00    +0.113 A 
ATOM      7  N   UNL     1       3.445  -0.785  -0.458  0.00  0.00    -0.311 N 
ATOM      8  C   UNL     1       4.766  -0.138  -0.440  0.00  0.00    +0.107 C 
ATOM      9  C   UNL     1       5.511  -0.482  -1.733  0.00  0.00    +0.019 C 
ATOM     10  C   UNL     1       5.551  -2.003  -1.915  0.00  0.00    +0.007 C 
ATOM     11  C   UNL     1       4.122  -2.535  -2.009  0.00  0.00    +0.010 C 
ATOM     12  C   UNL     1       3.386  -2.231  -0.696  0.00  0.00    +0.078 C 
ATOM     13  C   UNL     1       1.935  -2.697  -0.814  0.00  0.00    +0.023 C 
ATOM     14  C   UNL     1       1.915  -4.210  -1.055  0.00  0.00    +0.002 C 
ATOM     15  C   UNL     1       2.674  -4.541  -2.340  0.00  0.00    +0.000 C 
ATOM     16  C   UNL     1       4.123  -4.047  -2.234  0.00  0.00    +0.005 C 
ENDROOT
BRANCH   3  17
ATOM     17  C   UNL     1       2.605  -0.312   2.220  0.00  0.00    +0.166 C 
ATOM     18  N   UNL     1       3.631  -1.093   2.034  0.00  0.00    -0.071 NA
ATOM     19  N   UNL     1       2.225   0.037   3.505  0.00  0.00    -0.340 N 
ATOM     20  H   UNL     1       1.461   0.619   3.643  0.00  0.00    +0.144 HD
ATOM     21  H   UNL     1       2.722  -0.300   4.266  0.00  0.00    +0.144 HD
BRANCH  18  22
ATOM     22  O   UNL     1       4.291  -1.670   3.146  0.00  0.00    -0.408 OA
ATOM     23  H   UNL     1       5.040  -2.234   2.909  0.00  0.00    +0.328 HD
ENDBRANCH  18  22
ENDBRANCH   3  17
TORSDOF 2
