REMARK  Name = ZINC01184134
REMARK  8 active torsions:
REMARK  status: ('A' for Active; 'I' for Inactive)
REMARK    1  A    between atoms: C_1  and  C_2
REMARK    2  A    between atoms: C_5  and  C_19
REMARK    3  A    between atoms: C_7  and  N_8
REMARK    4  A    between atoms: N_8  and  C_9
REMARK    5  A    between atoms: C_9  and  N_11
REMARK    6  A    between atoms: C_12  and  C_14
REMARK    7  A    between atoms: C_23  and  C_29
REMARK    8  A    between atoms: C_25  and  C_28
REMARK                            x       y       z     vdW  Elec       q    Type
REMARK                         _______ _______ _______ _____ _____    ______ ____
ROOT
ATOM      1  C   UNL     1      -0.560   1.425   0.034  0.00  0.00    +0.045 C 
ATOM      2  C   UNL     1      -0.245  -0.049   0.017  0.00  0.00    -0.029 A 
ATOM      3  C   UNL     1      -0.231  -0.737  -1.181  0.00  0.00    +0.006 A 
ATOM      4  C   UNL     1       0.056  -2.087  -1.204  0.00  0.00    +0.013 A 
ATOM      5  C   UNL     1       0.333  -2.761  -0.014  0.00  0.00    +0.039 A 
ATOM      6  C   UNL     1       0.319  -2.067   1.196  0.00  0.00    +0.036 A 
ATOM      7  C   UNL     1       0.035  -0.710   1.207  0.00  0.00    +0.036 A 
ENDROOT
BRANCH   5   8
ATOM      8  C   UNL     1       0.640  -4.207  -0.035  0.00  0.00    +0.228 A 
ATOM      9  N   UNL     1       0.908  -4.933   1.021  0.00  0.00    -0.209 NA
ATOM     10  C   UNL     1       1.139  -6.211   0.625  0.00  0.00    +0.110 A 
ATOM     11  C   UNL     1       1.462  -7.388   1.305  0.00  0.00    +0.035 A 
ATOM     12  C   UNL     1       1.637  -8.558   0.600  0.00  0.00    -0.048 A 
ATOM     13  C   UNL     1       1.493  -8.575  -0.780  0.00  0.00    +0.010 A 
ATOM     14  C   UNL     1       1.174  -7.420  -1.465  0.00  0.00    -0.006 A 
ATOM     15  C   UNL     1       0.994  -6.233  -0.772  0.00  0.00    +0.159 A 
ATOM     16  O   UNL     1       0.680  -4.972  -1.143  0.00  0.00    -0.435 OA
ATOM     17  C   UNL     1       1.022  -7.450  -2.964  0.00  0.00    +0.047 C 
ATOM     18  C   UNL     1       1.986  -9.828   1.331  0.00  0.00    +0.044 C 
ENDBRANCH   5   8
BRANCH   7  19
ATOM     19  N   UNL     1       0.025  -0.008   2.417  0.00  0.00    -0.296 N 
ATOM     20  H   UNL     1       0.491   0.840   2.490  0.00  0.00    +0.154 HD
BRANCH  19  21
ATOM     21  C   UNL     1      -0.632  -0.509   3.482  0.00  0.00    +0.141 C 
ATOM     22  S   UNL     1      -1.361  -2.055   3.388  0.00  0.00    -0.018 S 
BRANCH  21  23
ATOM     23  N   UNL     1      -0.716   0.207   4.620  0.00  0.00    -0.263 N 
ATOM     24  C   UNL     1      -1.373  -0.294   5.685  0.00  0.00    +0.256 C 
ATOM     25  O   UNL     1      -1.891  -1.393   5.618  0.00  0.00    -0.269 OA
ATOM     26  H   UNL     1      -0.302   1.083   4.674  0.00  0.00    +0.157 HD
BRANCH  24  27
ATOM     27  C   UNL     1      -1.463   0.485   6.923  0.00  0.00    +0.074 A 
ATOM     28  C   UNL     1      -2.080   0.154   8.120  0.00  0.00    +0.021 A 
ATOM     29  C   UNL     1      -1.997   1.099   9.115  0.00  0.00    +0.008 A 
ATOM     30  C   UNL     1      -1.338   2.258   8.870  0.00  0.00    +0.046 A 
ATOM     31  S   UNL     1      -0.802   2.100   7.285  0.00  0.00    -0.092 S 
ENDBRANCH  24  27
ENDBRANCH  21  23
ENDBRANCH  19  21
ENDBRANCH   7  19
TORSDOF 5
