REMARK  Name = ZINC01036738
REMARK  6 active torsions:
REMARK  status: ('A' for Active; 'I' for Inactive)
REMARK    1  A    between atoms: C_1  and  C_2
REMARK    2  A    between atoms: C_1  and  O_20
REMARK    3  A    between atoms: C_4  and  O_19
REMARK    4  A    between atoms: C_6  and  O_18
REMARK    5  A    between atoms: C_8  and  O_17
REMARK    6  A    between atoms: C_10  and  N_13
REMARK                            x       y       z     vdW  Elec       q    Type
REMARK                         _______ _______ _______ _____ _____    ______ ____
ROOT
ATOM      1  C   UNL     1       0.002  -0.004   0.002  0.00  0.00    +0.177 C 
ATOM      2  C   UNL     1      -1.427  -0.535   0.138  0.00  0.00    +0.177 C 
ATOM      3  C   UNL     1      -1.405  -2.065   0.068  0.00  0.00    +0.178 C 
ATOM      4  C   UNL     1      -0.747  -2.495  -1.247  0.00  0.00    +0.192 C 
ATOM      5  C   UNL     1       0.656  -1.889  -1.329  0.00  0.00    +0.238 C 
ATOM      6  O   UNL     1       0.566  -0.466  -1.227  0.00  0.00    -0.348 OA
ENDROOT
BRANCH   5   7
ATOM      7  N   UNL     1       1.269  -2.249  -2.610  0.00  0.00    -0.272 N 
ATOM      8  C   UNL     1       2.575  -2.581  -2.662  0.00  0.00    +0.299 C 
ATOM      9  O   UNL     1       3.243  -2.582  -1.647  0.00  0.00    -0.253 OA
ATOM     10  N   UNL     1       3.139  -2.912  -3.841  0.00  0.00    -0.313 N 
ATOM     11  H   UNL     1       0.736  -2.249  -3.420  0.00  0.00    +0.153 HD
ATOM     12  H   UNL     1       2.606  -2.912  -4.651  0.00  0.00    +0.146 HD
ATOM     13  H   UNL     1       4.078  -3.151  -3.878  0.00  0.00    +0.146 HD
ENDBRANCH   5   7
BRANCH   4  14
ATOM     14  O   UNL     1      -0.656  -3.921  -1.291  0.00  0.00    -0.385 OA
ATOM     15  H   UNL     1      -0.249  -4.264  -2.098  0.00  0.00    +0.210 HD
ENDBRANCH   4  14
BRANCH   3  16
ATOM     16  O   UNL     1      -2.742  -2.566   0.123  0.00  0.00    -0.386 OA
ATOM     17  H   UNL     1      -2.802  -3.530   0.083  0.00  0.00    +0.210 HD
ENDBRANCH   3  16
BRANCH   2  18
ATOM     18  O   UNL     1      -1.973  -0.121   1.392  0.00  0.00    -0.386 OA
ATOM     19  H   UNL     1      -2.879  -0.422   1.546  0.00  0.00    +0.210 HD
ENDBRANCH   2  18
BRANCH   1  20
ATOM     20  C   UNL     1      -0.019   1.526   0.010  0.00  0.00    +0.190 C 
BRANCH  20  21
ATOM     21  O   UNL     1       1.322   2.020   0.000  0.00  0.00    -0.392 OA
ATOM     22  H   UNL     1       1.385   2.985   0.005  0.00  0.00    +0.210 HD
ENDBRANCH  20  21
ENDBRANCH   1  20
TORSDOF 6
