REMARK  Name = ZINC08867196
REMARK  7 active torsions:
REMARK  status: ('A' for Active; 'I' for Inactive)
REMARK    1  A    between atoms: C_6  and  O_7
REMARK    2  A    between atoms: O_7  and  C_8
REMARK    3  A    between atoms: C_8  and  C_9
REMARK    4  A    between atoms: C_9  and  N_10
REMARK    5  A    between atoms: C_11  and  C_13
REMARK    6  A    between atoms: C_15  and  S_21
REMARK    7  A    between atoms: S_21  and  N_24
REMARK                            x       y       z     vdW  Elec       q    Type
REMARK                         _______ _______ _______ _____ _____    ______ ____
ROOT
ATOM      1  N   UNL     1      -2.533   5.220   0.052  0.00  0.00    -0.308 N 
ATOM      2  C   UNL     1      -2.520   3.873   0.045  0.00  0.00    +0.246 C 
ATOM      3  O   UNL     1      -3.568   3.255   0.052  0.00  0.00    -0.270 OA
ATOM      4  H   UNL     1      -1.697   5.713   0.046  0.00  0.00    +0.149 HD
ENDROOT
BRANCH   2   5
ATOM      5  C   UNL     1      -1.235   3.146   0.030  0.00  0.00    +0.057 A 
ATOM      6  C   UNL     1      -0.030   3.852   0.023  0.00  0.00    +0.044 A 
ATOM      7  C   UNL     1       1.167   3.169   0.008  0.00  0.00    +0.124 A 
ATOM      8  C   UNL     1       1.177   1.783   0.000  0.00  0.00    +0.069 A 
ATOM      9  C   UNL     1      -0.013   1.076   0.008  0.00  0.00    +0.042 A 
ATOM     10  C   UNL     1      -1.218   1.749   0.017  0.00  0.00    +0.055 A 
ATOM     11 CL   UNL     1      -2.710   0.861   0.020  0.00  0.00    -0.083 Cl
ATOM     12 CL   UNL     1       2.689   0.930  -0.019  0.00  0.00    -0.081 Cl
BRANCH   7  13
ATOM     13  S   UNL     1       2.688   4.059  -0.002  0.00  0.00    +0.057 S 
ATOM     14  O   UNL     1       3.481   3.497  -1.038  0.00  0.00    -0.153 OA
ATOM     15  O   UNL     1       2.350   5.439   0.036  0.00  0.00    -0.153 OA
BRANCH  13  16
ATOM     16  N   UNL     1       3.462   3.722   1.423  0.00  0.00    -0.203 NA
ATOM     17  H   UNL     1       4.431   3.726   1.461  0.00  0.00    +0.144 HD
ATOM     18  H   UNL     1       2.946   3.520   2.219  0.00  0.00    +0.144 HD
ENDBRANCH  13  16
ENDBRANCH   7  13
ENDBRANCH   2   5
BRANCH   1  19
ATOM     19  C   UNL     1      -3.808   5.941   0.067  0.00  0.00    +0.145 C 
BRANCH  19  20
ATOM     20  C   UNL     1      -3.542   7.448   0.071  0.00  0.00    +0.247 C 
BRANCH  20  21
ATOM     21  O   UNL     1      -2.910   7.824  -1.154  0.00  0.00    -0.490 OA
BRANCH  21  27
ATOM     22  C   UNL     1      -2.910  10.048  -0.310  0.00  0.00    +0.047 A 
ATOM     23  C   UNL     1      -2.593  11.383  -0.471  0.00  0.00    +0.023 A 
ATOM     24  C   UNL     1      -1.980  11.815  -1.634  0.00  0.00    +0.041 A 
ATOM     25  C   UNL     1      -1.678  10.910  -2.636  0.00  0.00    +0.023 A 
ATOM     26  C   UNL     1      -1.988   9.573  -2.477  0.00  0.00    +0.047 A 
ATOM     27  C   UNL     1      -2.603   9.139  -1.312  0.00  0.00    +0.121 A 
ATOM     28 CL   UNL     1      -1.588  13.494  -1.836  0.00  0.00    -0.084 Cl
ENDBRANCH  21  27
ENDBRANCH  20  21
ENDBRANCH  19  20
ENDBRANCH   1  19
TORSDOF 7
