REMARK  Name = ZINC17002670
REMARK  4 active torsions:
REMARK  status: ('A' for Active; 'I' for Inactive)
REMARK    1  A    between atoms: C_1  and  C_2
REMARK    2  A    between atoms: C_13  and  C_15
REMARK    3  A    between atoms: C_24  and  C_31
REMARK    4  A    between atoms: C_27  and  O_30
REMARK                            x       y       z     vdW  Elec       q    Type
REMARK                         _______ _______ _______ _____ _____    ______ ____
ROOT
ATOM      1  C   UNL     1      -5.496  -0.991  -3.307  0.00  0.00    +0.012 C 
ATOM      2  C   UNL     1      -5.009  -0.307  -4.586  0.00  0.00    -0.021 C 
ATOM      3  C   UNL     1      -4.740   1.163  -4.323  0.00  0.00    +0.008 C 
ATOM      4  C   UNL     1      -3.769   1.238  -3.136  0.00  0.00    +0.005 C 
ATOM      5  C   UNL     1      -2.475   0.474  -3.405  0.00  0.00    +0.003 C 
ATOM      6  C   UNL     1      -2.749  -0.979  -3.834  0.00  0.00    +0.000 C 
ATOM      7  C   UNL     1      -3.666  -0.936  -5.043  0.00  0.00    -0.001 C 
ATOM      8  C   UNL     1      -4.126  -2.297  -5.577  0.00  0.00    +0.005 C 
ATOM      9  C   UNL     1      -5.426  -1.946  -6.351  0.00  0.00    +0.010 C 
ATOM     10  C   UNL     1      -5.956  -0.627  -5.738  0.00  0.00    +0.046 C 
ATOM     11  C   UNL     1      -1.411  -1.610  -4.240  0.00  0.00    +0.031 C 
ATOM     12  C   UNL     1      -0.419  -1.451  -3.125  0.00  0.00    -0.027 C 
ATOM     13  C   UNL     1      -0.517  -0.545  -2.205  0.00  0.00    -0.065 C 
ATOM     14  C   UNL     1      -1.622   0.474  -2.143  0.00  0.00    -0.008 C 
ATOM     15  C   UNL     1      -2.475   0.215  -0.904  0.00  0.00    +0.014 C 
ATOM     16  C   UNL     1      -1.629  -0.445   0.185  0.00  0.00    +0.032 C 
ATOM     17  C   UNL     1      -0.190   0.068   0.149  0.00  0.00    +0.119 C 
ATOM     18  C   UNL     1       0.521  -0.484  -1.095  0.00  0.00    +0.062 C 
ATOM     19  C   UNL     1      -0.989   1.859  -1.992  0.00  0.00    +0.016 C 
ENDROOT
BRANCH  10  20
ATOM     20  C   UNL     1      -7.360  -0.818  -5.222  0.00  0.00    +0.066 A 
ATOM     21  C   UNL     1      -7.877  -1.993  -4.668  0.00  0.00    +0.044 A 
ATOM     22  C   UNL     1      -9.165  -1.760  -4.326  0.00  0.00    +0.105 A 
ATOM     23  N   UNL     1      -9.456  -0.486  -4.660  0.00  0.00    -0.284 N 
ATOM     24  H   UNL     1     -10.336  -0.029  -4.530  0.00  0.00    +0.188 HD
ATOM     25  N   UNL     1      -8.306   0.086  -5.221  0.00  0.00    -0.179 NA
ENDBRANCH  10  20
BRANCH  17  26
ATOM     26  O   UNL     1      -0.195   1.496   0.100  0.00  0.00    -0.391 OA
ATOM     27  H   UNL     1       0.683   1.895   0.173  0.00  0.00    +0.210 HD
ENDBRANCH  17  26
TORSDOF 2
