REMARK  Name = ZINC37669892
REMARK  4 active torsions:
REMARK  status: ('A' for Active; 'I' for Inactive)
REMARK    1  A    between atoms: C_1  and  C_2
REMARK    2  A    between atoms: N_8  and  C_9
REMARK    3  A    between atoms: C_9  and  C_10
REMARK    4  A    between atoms: C_14  and  N_16
REMARK                            x       y       z     vdW  Elec       q    Type
REMARK                         _______ _______ _______ _____ _____    ______ ____
ROOT
ATOM      1  C   UNL     1      -1.626   0.068   2.889  0.00  0.00    -0.026 A 
ATOM      2  C   UNL     1      -2.489   1.031   2.400  0.00  0.00    +0.007 A 
ATOM      3  C   UNL     1      -3.810   1.053   2.810  0.00  0.00    +0.022 A 
ATOM      4  C   UNL     1      -4.271   0.111   3.710  0.00  0.00    +0.062 A 
ATOM      5  C   UNL     1      -3.405  -0.859   4.203  0.00  0.00    +0.043 A 
ATOM      6  C   UNL     1      -2.081  -0.880   3.784  0.00  0.00    +0.029 A 
ATOM      7 CL   UNL     1      -5.928   0.139   4.226  0.00  0.00    -0.082 Cl
ENDROOT
BRANCH   5   8
ATOM      8  N   UNL     1      -3.868  -1.813   5.113  0.00  0.00    -0.357 N 
ATOM      9  H   UNL     1      -4.793  -1.799   5.402  0.00  0.00    +0.142 HD
ATOM     10  H   UNL     1      -3.263  -2.489   5.456  0.00  0.00    +0.142 HD
ENDBRANCH   5   8
BRANCH   1  11
ATOM     11  C   UNL     1      -0.188   0.049   2.439  0.00  0.00    +0.160 C 
BRANCH  11  19
ATOM     12  C   UNL     1       0.218  -2.749   2.497  0.00  0.00    +0.063 C 
ATOM     13  C   UNL     1       0.112  -2.021   1.181  0.00  0.00    +0.019 A 
ATOM     14  C   UNL     1       0.207  -2.714   0.023  0.00  0.00    +0.021 A 
ATOM     15  C   UNL     1       0.110  -2.044  -1.204  0.00  0.00    +0.007 A 
ATOM     16  C   UNL     1      -0.080  -0.693  -1.212  0.00  0.00    +0.070 A 
ATOM     17  C   UNL     1      -0.174  -0.004   0.009  0.00  0.00    +0.252 A 
ATOM     18  O   UNL     1      -0.344   1.205   0.016  0.00  0.00    -0.268 OA
ATOM     19  N   UNL     1      -0.082  -0.677   1.171  0.00  0.00    -0.308 N 
ENDBRANCH  11  19
ENDBRANCH   1  11
TORSDOF 3
