REMARK  Name = ZINC63818858
REMARK  2 active torsions:
REMARK  status: ('A' for Active; 'I' for Inactive)
REMARK    1  A    between atoms: C_7  and  C_12
REMARK    2  A    between atoms: C_12  and  C_13
REMARK                            x       y       z     vdW  Elec       q    Type
REMARK                         _______ _______ _______ _____ _____    ______ ____
ROOT
ATOM      1  C   UNL     1      -0.437   1.196   0.180  0.00  0.00    +0.000 A 
ATOM      2  C   UNL     1       0.686   1.997   0.273  0.00  0.00    +0.002 A 
ATOM      3  C   UNL     1       1.946   1.434   0.283  0.00  0.00    +0.023 A 
ATOM      4  C   UNL     1       2.094   0.051   0.202  0.00  0.00    +0.037 A 
ATOM      5  C   UNL     1       0.958  -0.743   0.110  0.00  0.00    -0.014 A 
ATOM      6  C   UNL     1      -0.298  -0.178   0.099  0.00  0.00    +0.006 A 
ATOM      7  C   UNL     1       1.442  -2.173   0.037  0.00  0.00    +0.111 C 
ATOM      8  C   UNL     1       2.950  -2.054   0.101  0.00  0.00    +0.225 C 
ATOM      9  O   UNL     1       3.747  -2.968   0.072  0.00  0.00    -0.275 OA
ATOM     10  N   UNL     1       3.240  -0.745   0.194  0.00  0.00    -0.285 N 
ATOM     11  H   UNL     1       4.143  -0.394   0.249  0.00  0.00    +0.155 HD
ENDROOT
BRANCH   7  12
ATOM     12  C   UNL     1       1.007  -2.820  -1.279  0.00  0.00    +0.053 C 
BRANCH  12  13
ATOM     13  C   UNL     1       1.377  -4.281  -1.266  0.00  0.00    -0.041 C 
ATOM     14  C   UNL     1       2.535  -4.749  -1.824  0.00  0.00    +0.004 C 
ATOM     15  C   UNL     1       2.814  -6.182  -1.835  0.00  0.00    -0.002 C 
ATOM     16  C   UNL     1       2.160  -7.056  -1.061  0.00  0.00    +0.004 C 
ATOM     17  C   UNL     1       1.129  -6.546  -0.100  0.00  0.00    +0.158 C 
ATOM     18  C   UNL     1       0.560  -5.261  -0.674  0.00  0.00    -0.015 C 
ATOM     19  C   UNL     1      -0.768  -5.366  -0.507  0.00  0.00    +0.025 C 
ATOM     20  C   UNL     1      -1.088  -6.686  -0.119  0.00  0.00    +0.106 C 
ATOM     21  N   UNL     1      -0.028  -7.409   0.085  0.00  0.00    -0.279 NA
ENDBRANCH  12  13
ENDBRANCH   7  12
TORSDOF 2
