REMARK  Name = ZINC45628370
REMARK  4 active torsions:
REMARK  status: ('A' for Active; 'I' for Inactive)
REMARK    1  A    between atoms: C_1  and  C_2
REMARK    2  A    between atoms: C_3  and  C_15
REMARK    3  A    between atoms: N_5  and  C_8
REMARK    4  A    between atoms: C_6  and  N_7
REMARK                            x       y       z     vdW  Elec       q    Type
REMARK                         _______ _______ _______ _____ _____    ______ ____
ROOT
ATOM      1  C   UNL     1       0.243   1.493  -0.022  0.00  0.00    +0.049 C 
ATOM      2  C   UNL     1       0.115  -0.008  -0.012  0.00  0.00    +0.012 A 
ATOM      3  C   UNL     1      -0.089  -0.824  -1.128  0.00  0.00    +0.065 A 
ATOM      4  N   UNL     1      -0.148  -2.069  -0.727  0.00  0.00    -0.170 NA
ATOM      5  N   UNL     1       0.017  -2.094   0.663  0.00  0.00    -0.217 N 
ATOM      6  C   UNL     1       0.184  -0.811   1.086  0.00  0.00    +0.123 A 
ATOM      7  C   UNL     1      -0.220  -0.351  -2.553  0.00  0.00    +0.068 C 
ENDROOT
BRANCH   5   8
ATOM      8  C   UNL     1       0.016  -3.237   1.475  0.00  0.00    +0.081 A 
ATOM      9  C   UNL     1      -0.761  -3.273   2.625  0.00  0.00    +0.029 A 
ATOM     10  C   UNL     1      -0.760  -4.401   3.422  0.00  0.00    +0.002 A 
ATOM     11  C   UNL     1       0.013  -5.494   3.076  0.00  0.00    +0.001 A 
ATOM     12  C   UNL     1       0.787  -5.462   1.931  0.00  0.00    +0.017 A 
ATOM     13  C   UNL     1       0.787  -4.339   1.126  0.00  0.00    +0.043 A 
ATOM     14 BR   UNL     1       1.841  -4.298  -0.443  0.00  0.00    -0.048 Br
ENDBRANCH   5   8
BRANCH   6  15
ATOM     15  N   UNL     1       0.385  -0.396   2.399  0.00  0.00    -0.343 N 
ATOM     16  H   UNL     1       0.405   0.551   2.610  0.00  0.00    +0.144 HD
ATOM     17  H   UNL     1       0.505  -1.053   3.102  0.00  0.00    +0.144 HD
ENDBRANCH   6  15
TORSDOF 2
