REMARK  Name = ZINC63772577
REMARK  8 active torsions:
REMARK  status: ('A' for Active; 'I' for Inactive)
REMARK    1  A    between atoms: C_1  and  C_2
REMARK    2  A    between atoms: C_7  and  S_12
REMARK    3  A    between atoms: S_12  and  C_13
REMARK    4  A    between atoms: C_13  and  C_14
REMARK    5  A    between atoms: N_16  and  C_17
REMARK    6  A    between atoms: C_19  and  C_32
REMARK    7  A    between atoms: C_32  and  O_34
REMARK    8  A    between atoms: O_34  and  C_35
REMARK                            x       y       z     vdW  Elec       q    Type
REMARK                         _______ _______ _______ _____ _____    ______ ____
ROOT
ATOM      1  C   UNL     1      -4.181  -5.026   1.617  0.00  0.00    +0.224 C 
ATOM      2  O   UNL     1      -4.172  -6.094   2.191  0.00  0.00    -0.275 OA
ATOM      3  N   UNL     1      -5.349  -4.399   1.378  0.00  0.00    -0.302 N 
ATOM      4  H   UNL     1      -5.356  -3.544   0.919  0.00  0.00    +0.150 HD
ENDROOT
BRANCH   3   5
ATOM      5  C   UNL     1      -6.606  -5.006   1.810  0.00  0.00    +0.145 C 
ATOM      6  C   UNL     1      -7.491  -3.996   2.562  0.00  0.00    +0.132 C 
ATOM      7  C   UNL     1      -7.141  -3.903   4.050  0.00  0.00    +0.018 C 
ATOM      8  C   UNL     1      -5.832  -3.119   4.234  0.00  0.00    +0.005 C 
ATOM      9  C   UNL     1      -5.814  -2.331   5.558  0.00  0.00    +0.000 C 
ATOM     10  C   UNL     1      -5.793  -3.249   6.735  0.00  0.00    +0.000 C 
ATOM     11  C   UNL     1      -7.136  -3.856   7.030  0.00  0.00    +0.000 C 
ATOM     12  C   UNL     1      -7.006  -5.385   7.078  0.00  0.00    +0.001 C 
ATOM     13  C   UNL     1      -6.186  -5.681   5.789  0.00  0.00    +0.014 C 
ATOM     14  C   UNL     1      -6.975  -5.346   4.566  0.00  0.00    +0.052 C 
ATOM     15  S   UNL     1      -6.321  -6.266   3.118  0.00  0.00    -0.134 S 
BRANCH   6  16
ATOM     16  C   UNL     1      -7.476  -2.664   1.881  0.00  0.00    +0.313 C 
ATOM     17  O   UNL     1      -7.153  -2.584   0.719  0.00  0.00    -0.250 OA
BRANCH  16  18
ATOM     18  O   UNL     1      -7.820  -1.559   2.559  0.00  0.00    -0.468 OA
ATOM     19  C   UNL     1      -7.783  -0.322   1.846  0.00  0.00    +0.280 C 
ENDBRANCH  16  18
ENDBRANCH   6  16
ENDBRANCH   3   5
BRANCH   1  20
ATOM     20  C   UNL     1      -2.884  -4.400   1.171  0.00  0.00    +0.168 C 
BRANCH  20  21
ATOM     21  S   UNL     1      -1.501  -5.478   1.634  0.00  0.00    -0.106 S 
BRANCH  21  28
ATOM     22  C   UNL     1      -0.022   1.246  -0.490  0.00  0.00    +0.044 C 
ATOM     23  C   UNL     1      -0.054  -0.260  -0.499  0.00  0.00    -0.048 A 
ATOM     24  C   UNL     1      -0.158  -0.926  -1.734  0.00  0.00    +0.005 A 
ATOM     25  C   UNL     1      -0.194  -2.270  -1.834  0.00  0.00    +0.028 A 
ATOM     26  C   UNL     1      -0.123  -3.090  -0.617  0.00  0.00    +0.061 A 
ATOM     27  N   UNL     1      -0.136  -4.375  -0.414  0.00  0.00    -0.355 N 
ATOM     28  C   UNL     1      -0.035  -4.594   1.034  0.00  0.00    +0.236 C 
ATOM     29  N   UNL     1       0.038  -3.263   1.650  0.00  0.00    -0.355 N 
ATOM     30  C   UNL     1      -0.013  -2.385   0.690  0.00  0.00    +0.061 A 
ATOM     31  C   UNL     1       0.023  -0.916   0.676  0.00  0.00    +0.030 A 
ATOM     32  H   UNL     1      -0.200  -5.063  -1.095  0.00  0.00    +0.162 HD
ATOM     33  H   UNL     1       0.111  -3.072   2.598  0.00  0.00    +0.162 HD
ENDBRANCH  21  28
ENDBRANCH  20  21
ENDBRANCH   1  20
TORSDOF 6
