REMARK  Name = ZINC37606000
REMARK  4 active torsions:
REMARK  status: ('A' for Active; 'I' for Inactive)
REMARK    1  A    between atoms: C_6  and  C_7
REMARK    2  A    between atoms: C_7  and  C_8
REMARK    3  A    between atoms: C_10  and  C_13
REMARK    4  A    between atoms: C_15  and  N_20
REMARK                            x       y       z     vdW  Elec       q    Type
REMARK                         _______ _______ _______ _____ _____    ______ ____
ROOT
ATOM      1  C   UNL     1      -1.738  -1.024  -1.408  0.00  0.00    +0.176 A 
ATOM      2  N   UNL     1      -2.519  -0.216  -2.127  0.00  0.00    -0.191 NA
ATOM      3  C   UNL     1      -2.715  -0.727  -3.322  0.00  0.00    +0.261 A 
ATOM      4  O   UNL     1      -2.051  -1.894  -3.389  0.00  0.00    -0.333 OA
ATOM      5  N   UNL     1      -1.418  -2.061  -2.129  0.00  0.00    -0.061 NA
ENDROOT
BRANCH   3   6
ATOM      6  C   UNL     1      -3.524  -0.126  -4.402  0.00  0.00    +0.076 A 
ATOM      7  C   UNL     1      -3.655  -0.781  -5.627  0.00  0.00    +0.038 A 
ATOM      8  C   UNL     1      -4.416  -0.211  -6.635  0.00  0.00    +0.025 A 
ATOM      9  C   UNL     1      -5.046   1.010  -6.426  0.00  0.00    +0.025 A 
ATOM     10  C   UNL     1      -4.918   1.661  -5.214  0.00  0.00    +0.041 A 
ATOM     11  C   UNL     1      -4.166   1.099  -4.199  0.00  0.00    +0.136 A 
ATOM     12  F   UNL     1      -4.048   1.736  -3.013  0.00  0.00    -0.205 F 
BRANCH   8  13
ATOM     13  N   UNL     1      -4.550  -0.865  -7.864  0.00  0.00    -0.358 N 
ATOM     14  H   UNL     1      -4.110  -1.717  -8.011  0.00  0.00    +0.142 HD
ATOM     15  H   UNL     1      -5.082  -0.466  -8.570  0.00  0.00    +0.142 HD
ENDBRANCH   8  13
ENDBRANCH   3   6
BRANCH   1  16
ATOM     16  C   UNL     1      -1.293  -0.775   0.010  0.00  0.00    +0.114 C 
BRANCH  16  22
ATOM     17  C   UNL     1      -0.017   1.378   0.010  0.00  0.00    +0.005 A 
ATOM     18  C   UNL     1       1.171   2.086   0.002  0.00  0.00    +0.015 A 
ATOM     19  C   UNL     1       2.378   1.411  -0.013  0.00  0.00    +0.018 A 
ATOM     20  C   UNL     1       2.396   0.027  -0.021  0.00  0.00    +0.015 A 
ATOM     21  C   UNL     1       1.208  -0.679  -0.013  0.00  0.00    +0.005 A 
ATOM     22  C   UNL     1       0.002  -0.004   0.002  0.00  0.00    -0.040 A 
ATOM     23 BR   UNL     1       4.003   2.378  -0.024  0.00  0.00    -0.050 Br
ENDBRANCH  16  22
ENDBRANCH   1  16
TORSDOF 4
