REMARK  Name = ZINC12942511
REMARK  2 active torsions:
REMARK  status: ('A' for Active; 'I' for Inactive)
REMARK    1  A    between atoms: C_7  and  C_13
REMARK    2  A    between atoms: C_18  and  C_21
REMARK                            x       y       z     vdW  Elec       q    Type
REMARK                         _______ _______ _______ _____ _____    ______ ____
ROOT
ATOM      1  C   UNL     1       0.014  -2.947  -0.013  0.00  0.00    +0.248 C 
ATOM      2  O   UNL     1       0.061  -4.157  -0.111  0.00  0.00    -0.270 OA
ATOM      3  N   UNL     1      -1.177  -2.327   0.104  0.00  0.00    -0.293 N 
ATOM      4  C   UNL     1      -2.430  -3.091   0.232  0.00  0.00    +0.113 C 
ATOM      5  C   UNL     1      -3.053  -2.754   1.589  0.00  0.00    +0.054 C 
ATOM      6  C   UNL     1      -3.023  -1.273   1.824  0.00  0.00    -0.039 C 
ATOM      7  C   UNL     1      -2.241  -0.436   1.184  0.00  0.00    -0.004 C 
ATOM      8  C   UNL     1      -1.277  -0.860   0.117  0.00  0.00    +0.135 C 
ENDROOT
BRANCH   1  15
ATOM      9  C   UNL     1       2.484  -2.543   3.495  0.00  0.00    +0.001 A 
ATOM     10  C   UNL     1       3.653  -1.794   3.461  0.00  0.00    +0.002 A 
ATOM     11  C   UNL     1       4.049  -1.163   2.303  0.00  0.00    +0.026 A 
ATOM     12  C   UNL     1       3.272  -1.274   1.152  0.00  0.00    +0.050 A 
ATOM     13  C   UNL     1       2.089  -2.034   1.191  0.00  0.00    +0.011 A 
ATOM     14  C   UNL     1       1.707  -2.666   2.378  0.00  0.00    +0.011 A 
ATOM     15  C   UNL     1       1.266  -2.153  -0.022  0.00  0.00    +0.051 A 
ATOM     16  C   UNL     1       1.681  -1.517  -1.157  0.00  0.00    +0.083 A 
ATOM     17  C   UNL     1       2.920  -0.743  -1.134  0.00  0.00    +0.250 A 
ATOM     18  O   UNL     1       3.291  -0.175  -2.146  0.00  0.00    -0.268 OA
ATOM     19  N   UNL     1       3.656  -0.647  -0.013  0.00  0.00    -0.322 N 
ATOM     20  H   UNL     1       4.474  -0.126  -0.025  0.00  0.00    +0.169 HD
ENDBRANCH   1  15
BRANCH   6  21
ATOM     21  C   UNL     1      -3.936  -0.719   2.844  0.00  0.00    +0.003 A 
ATOM     22  C   UNL     1      -5.278  -0.548   2.725  0.00  0.00    +0.091 A 
ATOM     23  N   UNL     1      -5.777  -0.010   3.875  0.00  0.00    -0.360 N 
ATOM     24  H   UNL     1      -6.711   0.203   4.028  0.00  0.00    +0.165 HD
ATOM     25  C   UNL     1      -4.764   0.187   4.788  0.00  0.00    +0.047 A 
ATOM     26  C   UNL     1      -3.569  -0.251   4.191  0.00  0.00    +0.007 A 
ATOM     27  C   UNL     1      -2.369  -0.175   4.895  0.00  0.00    +0.010 A 
ATOM     28  C   UNL     1      -2.361   0.329   6.177  0.00  0.00    +0.001 A 
ATOM     29  C   UNL     1      -3.541   0.758   6.769  0.00  0.00    +0.002 A 
ATOM     30  C   UNL     1      -4.734   0.697   6.082  0.00  0.00    +0.026 A 
ENDBRANCH   6  21
TORSDOF 2
