REMARK  Name = ZINC39509747
REMARK  4 active torsions:
REMARK  status: ('A' for Active; 'I' for Inactive)
REMARK    1  A    between atoms: C_4  and  C_7
REMARK    2  A    between atoms: C_7  and  C_8
REMARK    3  A    between atoms: C_14  and  O_21
REMARK    4  A    between atoms: N_19  and  O_20
REMARK                            x       y       z     vdW  Elec       q    Type
REMARK                         _______ _______ _______ _____ _____    ______ ____
ROOT
ATOM      1  C   UNL     1       4.171  -0.963   1.399  0.00  0.00    -0.005 C 
ATOM      2  C   UNL     1       4.520   0.372   2.088  0.00  0.00    +0.006 C 
ATOM      3  C   UNL     1       5.749   0.036   2.971  0.00  0.00    +0.027 C 
ATOM      4  C   UNL     1       6.537  -0.958   2.092  0.00  0.00    +0.073 C 
ATOM      5  C   UNL     1       5.459  -1.808   1.398  0.00  0.00    +0.031 C 
ATOM      6  C   UNL     1       7.362  -0.199   1.059  0.00  0.00    +0.137 C 
ATOM      7  C   UNL     1       8.147  -1.197   0.202  0.00  0.00    +0.034 C 
ATOM      8  C   UNL     1       9.015  -2.067   1.115  0.00  0.00    +0.020 C 
ATOM      9  C   UNL     1       8.120  -2.790   2.125  0.00  0.00    +0.115 C 
ATOM     10  N   UNL     1       7.391  -1.800   2.929  0.00  0.00    -0.182 NA
ENDROOT
BRANCH  10  11
ATOM     11  O   UNL     1       8.313  -0.987   3.723  0.00  0.00    -0.312 OA
ATOM     12  H   UNL     1       8.899  -1.501   4.294  0.00  0.00    +0.237 HD
ENDBRANCH  10  11
BRANCH   6  13
ATOM     13  O   UNL     1       6.491   0.566   0.224  0.00  0.00    -0.390 OA
ATOM     14  H   UNL     1       6.949   1.076  -0.459  0.00  0.00    +0.210 HD
ENDBRANCH   6  13
BRANCH   1  15
ATOM     15  C   UNL     1       3.711  -0.707  -0.038  0.00  0.00    +0.038 C 
BRANCH  15  19
ATOM     16  C   UNL     1      -0.017   1.378   0.010  0.00  0.00    +0.000 A 
ATOM     17  C   UNL     1       1.171   2.086   0.002  0.00  0.00    +0.000 A 
ATOM     18  C   UNL     1       2.377   1.411  -0.013  0.00  0.00    +0.003 A 
ATOM     19  C   UNL     1       2.396   0.029  -0.020  0.00  0.00    -0.047 A 
ATOM     20  C   UNL     1       1.208  -0.679  -0.012  0.00  0.00    +0.003 A 
ATOM     21  C   UNL     1       0.002  -0.004   0.002  0.00  0.00    +0.000 A 
ENDBRANCH  15  19
ENDBRANCH   1  15
TORSDOF 4
