REMARK  Name = ZINC45254351
REMARK  10 active torsions:
REMARK  status: ('A' for Active; 'I' for Inactive)
REMARK    1  A    between atoms: C_1  and  C_2
REMARK    2  A    between atoms: C_2  and  O_3
REMARK    3  A    between atoms: O_3  and  C_4
REMARK    4  A    between atoms: C_7  and  N_10
REMARK    5  A    between atoms: N_10  and  C_11
REMARK    6  A    between atoms: C_12  and  C_32
REMARK    7  A    between atoms: C_13  and  N_22
REMARK    8  A    between atoms: C_14  and  C_20
REMARK    9  A    between atoms: N_22  and  C_23
REMARK   10  A    between atoms: C_28  and  N_31
REMARK                            x       y       z     vdW  Elec       q    Type
REMARK                         _______ _______ _______ _____ _____    ______ ____
ROOT
ATOM      1  C   UNL     1       0.201  -7.214  -2.842  0.00  0.00    +0.130 A 
ATOM      2  C   UNL     1       0.770  -8.372  -3.273  0.00  0.00    +0.012 A 
ATOM      3  C   UNL     1       1.830  -8.361  -4.187  0.00  0.00    +0.053 A 
ATOM      4  C   UNL     1       2.308  -7.128  -4.661  0.00  0.00    +0.098 A 
ATOM      5  C   UNL     1       1.669  -5.903  -4.174  0.00  0.00    +0.088 A 
ATOM      6  N   UNL     1       0.632  -5.991  -3.283  0.00  0.00    -0.217 N 
ATOM      7  N   UNL     1       0.214  -4.685  -2.997  0.00  0.00    -0.173 NA
ATOM      8  C   UNL     1       0.953  -3.843  -3.681  0.00  0.00    +0.135 A 
ATOM      9  C   UNL     1       1.882  -4.561  -4.426  0.00  0.00    +0.050 A 
ATOM     10  C   UNL     1       0.249  -9.689  -2.758  0.00  0.00    +0.049 C 
ENDROOT
BRANCH   1  11
ATOM     11  N   UNL     1      -0.841  -7.274  -1.941  0.00  0.00    -0.299 N 
ATOM     12  H   UNL     1      -1.647  -7.765  -2.164  0.00  0.00    +0.154 HD
BRANCH  11  16
ATOM     13  C   UNL     1      -0.527  -5.343   1.740  0.00  0.00    +0.121 A 
ATOM     14  C   UNL     1      -1.730  -5.920   1.360  0.00  0.00    +0.047 A 
ATOM     15  C   UNL     1      -1.835  -6.560   0.141  0.00  0.00    +0.027 A 
ATOM     16  C   UNL     1      -0.736  -6.625  -0.705  0.00  0.00    +0.033 A 
ATOM     17  C   UNL     1       0.468  -6.046  -0.325  0.00  0.00    +0.027 A 
ATOM     18  C   UNL     1       0.570  -5.402   0.892  0.00  0.00    +0.047 A 
BRANCH  13  19
ATOM     19  O   UNL     1      -0.424  -4.713   2.941  0.00  0.00    -0.492 OA
BRANCH  19  21
ATOM     20  C   UNL     1      -1.287  -3.944   5.063  0.00  0.00    +0.048 C 
ATOM     21  C   UNL     1      -1.593  -4.690   3.763  0.00  0.00    +0.225 C 
ENDBRANCH  19  21
ENDBRANCH  13  19
ENDBRANCH  11  16
ENDBRANCH   1  11
BRANCH   4  22
ATOM     22  C   UNL     1       3.391  -7.071  -5.596  0.00  0.00    +0.103 C 
ATOM     23  N   UNL     1       4.250  -7.026  -6.338  0.00  0.00    -0.191 NA
ENDBRANCH   4  22
BRANCH   3  24
ATOM     24  N   UNL     1       2.399  -9.548  -4.616  0.00  0.00    -0.340 N 
ATOM     25  H   UNL     1       2.353  -9.797  -5.552  0.00  0.00    +0.146 HD
BRANCH  24  26
ATOM     26  C   UNL     1       3.072 -10.427  -3.656  0.00  0.00    +0.069 C 
ATOM     27  C   UNL     1       4.584 -10.373  -3.889  0.00  0.00    +0.022 C 
ATOM     28  C   UNL     1       4.897 -10.838  -5.313  0.00  0.00    +0.000 C 
ATOM     29  C   UNL     1       4.402 -12.273  -5.502  0.00  0.00    -0.016 C 
ATOM     30  C   UNL     1       2.891 -12.326  -5.269  0.00  0.00    -0.073 C 
ATOM     31  C   UNL     1       2.578 -11.862  -3.845  0.00  0.00    +0.006 C 
BRANCH  30  32
ATOM     32  N   UNL     1       2.416 -13.704  -5.451  0.00  0.00    +0.380 N 
ATOM     33  H   UNL     1       2.880 -14.310  -4.790  0.00  0.00    -0.090 HD
ATOM     34  H   UNL     1       1.419 -13.739  -5.297  0.00  0.00    -0.090 HD
ATOM     35  H   UNL     1       2.623 -14.011  -6.389  0.00  0.00    -0.090 HD
ENDBRANCH  30  32
ENDBRANCH  24  26
ENDBRANCH   3  24
TORSDOF 8
