REMARK  Name = ZINC25692380
REMARK  5 active torsions:
REMARK  status: ('A' for Active; 'I' for Inactive)
REMARK    1  A    between atoms: C_4  and  C_7
REMARK    2  A    between atoms: C_7  and  C_9
REMARK    3  A    between atoms: C_7  and  N_16
REMARK    4  A    between atoms: N_16  and  N_17
REMARK    5  A    between atoms: C_18  and  C_20
REMARK                            x       y       z     vdW  Elec       q    Type
REMARK                         _______ _______ _______ _____ _____    ______ ____
ROOT
ATOM      1  C   UNL     1       1.174   3.411   0.140  0.00  0.00    +0.188 C 
ENDROOT
BRANCH   1   2
ATOM      2  C   UNL     1       1.456   3.814  -1.284  0.00  0.00    +0.239 C 
ATOM      3  O   UNL     1       2.425   4.498  -1.541  0.00  0.00    -0.273 OA
ATOM      4  N   UNL     1       0.632   3.414  -2.273  0.00  0.00    -0.300 N 
ATOM      5  C   UNL     1      -0.613   2.654  -2.096  0.00  0.00    +0.108 C 
ATOM      6  C   UNL     1      -1.202   2.404  -3.500  0.00  0.00    +0.020 C 
ATOM      7  C   UNL     1       0.038   2.539  -4.423  0.00  0.00    +0.020 C 
ATOM      8  C   UNL     1       0.834   3.662  -3.712  0.00  0.00    +0.108 C 
ENDBRANCH   1   2
BRANCH   1  12
ATOM      9  C   UNL     1       2.969  -0.384   0.930  0.00  0.00    +0.000 A 
ATOM     10  C   UNL     1       3.669   0.579   0.228  0.00  0.00    +0.000 A 
ATOM     11  C   UNL     1       3.089   1.807  -0.027  0.00  0.00    +0.006 A 
ATOM     12  C   UNL     1       1.807   2.072   0.418  0.00  0.00    -0.020 A 
ATOM     13  C   UNL     1       1.106   1.109   1.120  0.00  0.00    +0.006 A 
ATOM     14  C   UNL     1       1.687  -0.119   1.375  0.00  0.00    +0.000 A 
ENDBRANCH   1  12
BRANCH   1  15
ATOM     15  N   UNL     1       1.735   4.417   1.054  0.00  0.00    -0.224 NA
ATOM     16  H   UNL     1       1.310   5.319   0.902  0.00  0.00    +0.145 HD
BRANCH  15  17
ATOM     17  N   UNL     1       3.093   4.487   0.930  0.00  0.00    -0.245 N 
ATOM     18  C   UNL     1       3.805   5.274   1.760  0.00  0.00    +0.274 C 
ATOM     19  O   UNL     1       3.238   5.922   2.620  0.00  0.00    -0.267 OA
ATOM     20  H   UNL     1       3.606   3.902   0.152  0.00  0.00    +0.169 HD
BRANCH  18  21
ATOM     21  C   UNL     1       5.264   5.350   1.627  0.00  0.00    +0.104 A 
ATOM     22  C   UNL     1       6.114   6.114   2.399  0.00  0.00    +0.047 A 
ATOM     23  C   UNL     1       7.412   5.882   1.933  0.00  0.00    +0.036 A 
ATOM     24  C   UNL     1       7.333   5.008   0.901  0.00  0.00    +0.098 A 
ATOM     25  N   UNL     1       6.033   4.677   0.706  0.00  0.00    -0.356 N 
ATOM     26  H   UNL     1       5.556   4.005  -0.023  0.00  0.00    +0.166 HD
ATOM     27 BR   UNL     1       8.996   6.658   2.617  0.00  0.00    -0.049 Br
ENDBRANCH  18  21
ENDBRANCH  15  17
ENDBRANCH   1  15
TORSDOF 5
