REMARK  Name = ZINC50374379
REMARK  4 active torsions:
REMARK  status: ('A' for Active; 'I' for Inactive)
REMARK    1  A    between atoms: C_1  and  O_2
REMARK    2  A    between atoms: O_2  and  C_3
REMARK    3  A    between atoms: C_8  and  N_10
REMARK    4  A    between atoms: C_17  and  N_21
REMARK                            x       y       z     vdW  Elec       q    Type
REMARK                         _______ _______ _______ _____ _____    ______ ____
ROOT
ATOM      1  N   UNL     1       0.116  -2.527   0.626  0.00  0.00    -0.228 N 
ATOM      2  C   UNL     1       0.794  -2.761  -0.512  0.00  0.00    +0.254 C 
ATOM      3  O   UNL     1       0.381  -2.564  -1.637  0.00  0.00    -0.270 OA
ATOM      4  C   UNL     1       2.125  -3.299  -0.164  0.00  0.00    +0.051 A 
ATOM      5  C   UNL     1       3.224  -3.712  -0.897  0.00  0.00    +0.014 A 
ATOM      6  C   UNL     1       4.357  -4.180  -0.245  0.00  0.00    +0.003 A 
ATOM      7  C   UNL     1       4.400  -4.239   1.132  0.00  0.00    +0.023 A 
ATOM      8  C   UNL     1       3.302  -3.828   1.891  0.00  0.00    +0.038 A 
ATOM      9  C   UNL     1       2.160  -3.356   1.246  0.00  0.00    +0.070 A 
ATOM     10  C   UNL     1       0.856  -2.846   1.704  0.00  0.00    +0.256 C 
ATOM     11  O   UNL     1       0.505  -2.735   2.862  0.00  0.00    -0.269 OA
ENDROOT
BRANCH   1  16
ATOM     12  C   UNL     1      -1.295  -0.603   0.011  0.00  0.00    +0.139 C 
ATOM     13  C   UNL     1      -1.767  -0.897  -1.435  0.00  0.00    +0.033 C 
ATOM     14  C   UNL     1      -2.806  -2.027  -1.232  0.00  0.00    +0.004 C 
ATOM     15  C   UNL     1      -2.205  -2.897  -0.108  0.00  0.00    +0.026 C 
ATOM     16  C   UNL     1      -1.245  -1.990   0.685  0.00  0.00    +0.113 C 
BRANCH  12  18
ATOM     17  C   UNL     1      -0.017   1.425   0.010  0.00  0.00    +0.194 C 
ATOM     18  O   UNL     1       0.002  -0.004   0.002  0.00  0.00    -0.378 OA
ENDBRANCH  12  18
ENDBRANCH   1  16
BRANCH   8  19
ATOM     19  N   UNL     1       3.348  -3.888   3.276  0.00  0.00    -0.357 N 
ATOM     20  H   UNL     1       4.145  -4.217   3.721  0.00  0.00    +0.142 HD
ATOM     21  H   UNL     1       2.584  -3.601   3.800  0.00  0.00    +0.142 HD
ENDBRANCH   8  19
TORSDOF 3
