REMARK  Name = ZINC20263208
REMARK  7 active torsions:
REMARK  status: ('A' for Active; 'I' for Inactive)
REMARK    1  A    between atoms: C_1  and  C_2
REMARK    2  A    between atoms: N_8  and  C_9
REMARK    3  A    between atoms: C_9  and  C_10
REMARK    4  A    between atoms: C_10  and  C_11
REMARK    5  A    between atoms: C_11  and  N_12
REMARK    6  A    between atoms: C_19  and  O_20
REMARK    7  A    between atoms: C_27  and  O_28
REMARK                            x       y       z     vdW  Elec       q    Type
REMARK                         _______ _______ _______ _____ _____    ______ ____
ROOT
ATOM      1  N   UNL     1      -0.065   8.163   0.044  0.00  0.00    -0.384 N 
ATOM      2  C   UNL     1       1.144   7.486   0.030  0.00  0.00    +0.050 A 
ATOM      3  C   UNL     1       2.342   8.199  -0.006  0.00  0.00    +0.074 A 
ATOM      4  C   UNL     1       3.553   7.537  -0.021  0.00  0.00    +0.156 A 
ATOM      5  C   UNL     1       3.589   6.130   0.000  0.00  0.00    +0.118 A 
ATOM      6  C   UNL     1       2.401   5.401   0.036  0.00  0.00    +0.059 A 
ATOM      7  C   UNL     1       1.162   6.085   0.051  0.00  0.00    +0.053 A 
ATOM      8  C   UNL     1      -0.094   5.330   0.088  0.00  0.00    +0.134 A 
ATOM      9  C   UNL     1      -0.067   3.853   0.110  0.00  0.00    +0.028 A 
ATOM     10  C   UNL     1      -1.256   3.129   0.145  0.00  0.00    +0.012 A 
ATOM     11  C   UNL     1      -1.221   1.747   0.160  0.00  0.00    +0.001 A 
ATOM     12  C   UNL     1      -0.011   1.077   0.150  0.00  0.00    +0.001 A 
ATOM     13  C   UNL     1       1.179   1.779   0.115  0.00  0.00    +0.012 A 
ATOM     14  C   UNL     1       1.163   3.172   0.094  0.00  0.00    +0.028 A 
ATOM     15  C   UNL     1       2.429   3.932   0.056  0.00  0.00    +0.135 A 
ATOM     16  N   UNL     1       4.811   5.475  -0.015  0.00  0.00    -0.240 NA
ATOM     17  C   UNL     1       5.987   6.233  -0.050  0.00  0.00    +0.107 A 
ATOM     18  C   UNL     1       7.223   5.604  -0.065  0.00  0.00    +0.031 A 
ATOM     19  C   UNL     1       8.381   6.360  -0.100  0.00  0.00    +0.002 A 
ATOM     20  C   UNL     1       8.307   7.740  -0.120  0.00  0.00    +0.004 A 
ATOM     21  C   UNL     1       7.079   8.374  -0.105  0.00  0.00    +0.048 A 
ATOM     22  C   UNL     1       5.913   7.625  -0.070  0.00  0.00    +0.154 A 
ATOM     23  O   UNL     1       4.707   8.248  -0.055  0.00  0.00    -0.452 OA
ATOM     24  H   UNL     1      -1.009   7.604  -0.032  0.00  0.00    +0.160 HD
ENDROOT
BRANCH   8  25
ATOM     25  O   UNL     1      -1.159   5.920   0.101  0.00  0.00    -0.505 OA
ATOM     26  H   UNL     1      -2.102   5.353   0.129  0.00  0.00    +0.292 HD
ENDBRANCH   8  25
BRANCH  15  27
ATOM     27  O   UNL     1       3.493   3.342   0.044  0.00  0.00    -0.505 OA
ATOM     28  H   UNL     1       3.513   2.243   0.059  0.00  0.00    +0.292 HD
ENDBRANCH  15  27
BRANCH   1  29
ATOM     29  C   UNL     1      -0.085   9.623   0.161  0.00  0.00    +0.111 C 
BRANCH  29  30
ATOM     30  C   UNL     1      -1.534  10.115   0.152  0.00  0.00    +0.002 C 
BRANCH  30  31
ATOM     31  C   UNL     1      -1.555  11.640   0.274  0.00  0.00    -0.077 C 
BRANCH  31  38
ATOM     32  C   UNL     1      -2.834  12.150  -2.180  0.00  0.00    -0.013 C 
ATOM     33  C   UNL     1      -3.637  11.693  -0.960  0.00  0.00    -0.072 C 
ATOM     34  C   UNL     1      -5.031  12.323  -1.002  0.00  0.00    -0.016 C 
ATOM     35  C   UNL     1      -5.824  11.879   0.231  0.00  0.00    -0.003 C 
ATOM     36  C   UNL     1      -5.059  12.286   1.493  0.00  0.00    -0.019 C 
ATOM     37  C   UNL     1      -3.663  11.657   1.463  0.00  0.00    -0.078 C 
ATOM     38  N   UNL     1      -2.946  12.113   0.266  0.00  0.00    +0.381 N 
ATOM     39  H   UNL     1      -2.931  13.213   0.282  0.00  0.00    -0.081 HD
ENDBRANCH  31  38
ENDBRANCH  30  31
ENDBRANCH  29  30
ENDBRANCH   1  29
TORSDOF 6
