REMARK  Name = ZINC40702429
REMARK  7 active torsions:
REMARK  status: ('A' for Active; 'I' for Inactive)
REMARK    1  A    between atoms: C_1  and  C_2
REMARK    2  A    between atoms: C_6  and  N_8
REMARK    3  A    between atoms: C_10  and  N_25
REMARK    4  A    between atoms: C_11  and  N_15
REMARK    5  A    between atoms: N_15  and  C_16
REMARK    6  A    between atoms: C_21  and  O_22
REMARK    7  A    between atoms: O_22  and  C_23
REMARK                            x       y       z     vdW  Elec       q    Type
REMARK                         _______ _______ _______ _____ _____    ______ ____
ROOT
ATOM      1  N   UNL     1       0.339  -2.800   2.450  0.00  0.00    -0.298 N 
ATOM      2  C   UNL     1       0.223  -4.185   2.429  0.00  0.00    +0.149 A 
ATOM      3  C   UNL     1       0.010  -4.897   3.611  0.00  0.00    +0.106 A 
ATOM      4  C   UNL     1      -0.100  -6.287   3.532  0.00  0.00    +0.149 A 
ATOM      5  N   UNL     1       0.002  -6.875   2.343  0.00  0.00    -0.219 NA
ATOM      6  C   UNL     1       0.203  -6.166   1.251  0.00  0.00    +0.225 A 
ATOM      7  N   UNL     1       0.307  -4.853   1.280  0.00  0.00    -0.219 NA
ATOM      8  H   UNL     1       0.348  -2.327   3.297  0.00  0.00    +0.154 HD
ENDROOT
BRANCH   1  14
ATOM      9  C   UNL     1       2.144   1.022  -0.059  0.00  0.00    +0.044 C 
ATOM     10  C   UNL     1       1.311  -0.232   0.006  0.00  0.00    -0.049 A 
ATOM     11  C   UNL     1       0.648  -0.681  -1.122  0.00  0.00    +0.003 A 
ATOM     12  C   UNL     1      -0.117  -1.831  -1.066  0.00  0.00    +0.002 A 
ATOM     13  C   UNL     1      -0.222  -2.536   0.117  0.00  0.00    +0.023 A 
ATOM     14  C   UNL     1       0.443  -2.089   1.251  0.00  0.00    +0.033 A 
ATOM     15  C   UNL     1       1.215  -0.935   1.191  0.00  0.00    +0.026 A 
ENDBRANCH   1  14
BRANCH   3  16
ATOM     16  N   UNL     1      -0.090  -4.234   4.844  0.00  0.00    -0.353 N 
ATOM     17  H   UNL     1      -0.011  -3.268   4.883  0.00  0.00    +0.143 HD
ATOM     18  H   UNL     1      -0.237  -4.742   5.657  0.00  0.00    +0.143 HD
ENDBRANCH   3  16
BRANCH   4  19
ATOM     19  N   UNL     1      -0.311  -7.044   4.679  0.00  0.00    -0.295 N 
ATOM     20  H   UNL     1      -0.473  -6.603   5.528  0.00  0.00    +0.154 HD
BRANCH  19  21
ATOM     21  C   UNL     1      -0.290  -8.442   4.609  0.00  0.00    +0.076 A 
ATOM     22  C   UNL     1       0.323  -9.075   3.537  0.00  0.00    +0.047 A 
ATOM     23  C   UNL     1       0.343 -10.456   3.470  0.00  0.00    +0.043 A 
ATOM     24  C   UNL     1      -0.247 -11.209   4.470  0.00  0.00    +0.024 A 
ATOM     25  C   UNL     1      -0.860 -10.584   5.540  0.00  0.00    +0.049 A 
ATOM     26  C   UNL     1      -0.879  -9.201   5.617  0.00  0.00    +0.141 A 
ATOM     27 CL   UNL     1       1.111 -11.247   2.129  0.00  0.00    -0.083 Cl
BRANCH  26  28
ATOM     28  O   UNL     1      -1.476  -8.585   6.673  0.00  0.00    -0.493 OA
ATOM     29  C   UNL     1      -2.060  -9.427   7.669  0.00  0.00    +0.277 C 
ENDBRANCH  26  28
ENDBRANCH  19  21
ENDBRANCH   4  19
TORSDOF 5
