REMARK  Name = ZINC49091481
REMARK  3 active torsions:
REMARK  status: ('A' for Active; 'I' for Inactive)
REMARK    1  A    between atoms: C_1  and  C_2
REMARK    2  A    between atoms: C_6  and  C_19
REMARK    3  A    between atoms: C_10  and  C_12
REMARK                            x       y       z     vdW  Elec       q    Type
REMARK                         _______ _______ _______ _____ _____    ______ ____
ROOT
ATOM      1  C   UNL     1       0.027   1.416  -0.077  0.00  0.00    +0.028 C 
ATOM      2  C   UNL     1      -0.277  -0.053   0.221  0.00  0.00    +0.073 C 
ATOM      3  C   UNL     1       0.055  -0.906  -1.008  0.00  0.00    +0.023 C 
ATOM      4  C   UNL     1      -0.119  -2.386  -0.659  0.00  0.00    +0.016 C 
ATOM      5  C   UNL     1       0.846  -2.764   0.467  0.00  0.00    +0.092 C 
ATOM      6  C   UNL     1       0.523  -1.932   1.712  0.00  0.00    +0.120 C 
ATOM      7  N   UNL     1       0.544  -0.508   1.351  0.00  0.00    -0.298 N 
ATOM      8  C   UNL     1       1.304   0.365   2.042  0.00  0.00    +0.219 C 
ATOM      9  O   UNL     1       1.241   1.551   1.796  0.00  0.00    -0.275 OA
ENDROOT
BRANCH   8  10
ATOM     10  C   UNL     1       2.232  -0.133   3.120  0.00  0.00    +0.079 C 
ATOM     11  C   UNL     1       2.546   1.007   4.098  0.00  0.00    +0.017 C 
ATOM     12  C   UNL     1       3.340   0.432   5.272  0.00  0.00    +0.027 C 
ATOM     13  C   UNL     1       4.483  -0.398   4.767  0.00  0.00    -0.031 C 
ATOM     14  C   UNL     1       4.570  -0.853   3.558  0.00  0.00    -0.030 C 
ATOM     15  C   UNL     1       3.543  -0.610   2.490  0.00  0.00    +0.039 C 
ENDBRANCH   8  10
BRANCH   5  16
ATOM     16  C   UNL     1       0.697  -4.229   0.787  0.00  0.00    +0.215 C 
ATOM     17  O   UNL     1       0.368  -4.575   1.901  0.00  0.00    -0.276 OA
ATOM     18  N   UNL     1       0.930  -5.154  -0.165  0.00  0.00    -0.329 N 
ATOM     19  H   UNL     1       1.194  -4.876  -1.057  0.00  0.00    +0.145 HD
ATOM     20  H   UNL     1       0.835  -6.097   0.041  0.00  0.00    +0.145 HD
ENDBRANCH   5  16
TORSDOF 2
