REMARK  Name = ZINC22356312
REMARK  6 active torsions:
REMARK  status: ('A' for Active; 'I' for Inactive)
REMARK    1  A    between atoms: C_8  and  C_10
REMARK    2  A    between atoms: C_13  and  C_16
REMARK    3  A    between atoms: C_21  and  C_23
REMARK    4  A    between atoms: C_23  and  N_24
REMARK    5  A    between atoms: N_24  and  C_25
REMARK    6  A    between atoms: C_30  and  C_31
REMARK                            x       y       z     vdW  Elec       q    Type
REMARK                         _______ _______ _______ _____ _____    ______ ____
ROOT
ATOM      1  C   UNL     1      -6.486   1.680   0.586  0.00  0.00    +0.104 C 
ATOM      2  N   UNL     1      -5.231   1.397   0.478  0.00  0.00    -0.178 NA
ATOM      3  N   UNL     1      -4.965   0.035   0.344  0.00  0.00    -0.181 N 
ATOM      4  C   UNL     1      -6.238  -0.702   0.359  0.00  0.00    +0.173 C 
ATOM      5  C   UNL     1      -7.297   0.405   0.530  0.00  0.00    +0.093 C 
ATOM      6  C   UNL     1      -3.742  -0.515   0.216  0.00  0.00    +0.252 C 
ATOM      7  O   UNL     1      -3.627  -1.718   0.104  0.00  0.00    -0.272 OA
ENDROOT
BRANCH   1  15
ATOM      8  C   UNL     1      -8.288   7.412   1.198  0.00  0.00    +0.001 A 
ATOM      9  C   UNL     1      -9.539   6.813   1.229  0.00  0.00    +0.004 A 
ATOM     10  C   UNL     1      -9.669   5.445   1.120  0.00  0.00    +0.047 A 
ATOM     11  C   UNL     1      -8.537   4.652   0.977  0.00  0.00    +0.136 A 
ATOM     12  C   UNL     1      -7.271   5.264   0.946  0.00  0.00    +0.021 A 
ATOM     13  C   UNL     1      -7.160   6.652   1.058  0.00  0.00    +0.011 A 
ATOM     14  C   UNL     1      -6.307   4.174   0.794  0.00  0.00    +0.059 A 
ATOM     15  C   UNL     1      -7.039   3.030   0.738  0.00  0.00    +0.152 A 
ATOM     16  O   UNL     1      -8.351   3.323   0.850  0.00  0.00    -0.454 OA
ENDBRANCH   1  15
BRANCH   4  17
ATOM     17  C   UNL     1      -6.283  -1.659   1.522  0.00  0.00    +0.128 A 
ATOM     18  C   UNL     1      -6.809  -2.897   1.502  0.00  0.00    +0.046 A 
ATOM     19  C   UNL     1      -6.638  -3.436   2.798  0.00  0.00    +0.041 A 
ATOM     20  C   UNL     1      -6.016  -2.495   3.532  0.00  0.00    +0.195 A 
ATOM     21  O   UNL     1      -5.799  -1.424   2.752  0.00  0.00    -0.466 OA
ENDBRANCH   4  17
BRANCH   6  22
ATOM     22  C   UNL     1      -2.517   0.362   0.210  0.00  0.00    +0.199 C 
BRANCH  22  23
ATOM     23  N   UNL     1      -1.321  -0.470   0.059  0.00  0.00    -0.335 N 
ATOM     24  H   UNL     1      -1.418  -1.562  -0.028  0.00  0.00    +0.147 HD
BRANCH  23  25
ATOM     25  C   UNL     1      -0.064   0.121   0.027  0.00  0.00    +0.040 A 
ATOM     26  C   UNL     1       0.058   1.505   0.022  0.00  0.00    +0.024 A 
ATOM     27  C   UNL     1       1.307   2.089  -0.011  0.00  0.00    +0.002 A 
ATOM     28  C   UNL     1       2.449   1.303  -0.038  0.00  0.00    +0.001 A 
ATOM     29  C   UNL     1       2.348  -0.071  -0.033  0.00  0.00    +0.015 A 
ATOM     30  C   UNL     1       1.090  -0.678  -0.001  0.00  0.00    +0.057 A 
BRANCH  30  31
ATOM     31  C   UNL     1       0.975  -2.148   0.004  0.00  0.00    +0.243 C 
ATOM     32  O   UNL     1      -0.119  -2.672  -0.075  0.00  0.00    -0.270 OA
ATOM     33  N   UNL     1       2.083  -2.910   0.097  0.00  0.00    -0.325 N 
ATOM     34  H   UNL     1       1.997  -4.006   0.101  0.00  0.00    +0.145 HD
ATOM     35  H   UNL     1       3.073  -2.435   0.170  0.00  0.00    +0.145 HD
ENDBRANCH  30  31
ENDBRANCH  23  25
ENDBRANCH  22  23
ENDBRANCH   6  22
TORSDOF 6
