REMARK  Name = ZINC63884193
REMARK  8 active torsions:
REMARK  status: ('A' for Active; 'I' for Inactive)
REMARK    1  A    between atoms: C_1  and  C_2
REMARK    2  A    between atoms: C_6  and  S_9
REMARK    3  A    between atoms: S_9  and  C_10
REMARK    4  A    between atoms: C_10  and  C_11
REMARK    5  A    between atoms: N_13  and  C_14
REMARK    6  A    between atoms: N_13  and  C_15
REMARK    7  A    between atoms: C_15  and  C_16
REMARK    8  A    between atoms: C_20  and  C_22
REMARK                            x       y       z     vdW  Elec       q    Type
REMARK                         _______ _______ _______ _____ _____    ______ ____
ROOT
ATOM      1  C   UNL     1      -0.663  -5.016   1.947  0.00  0.00    +0.226 C 
ATOM      2  O   UNL     1       0.183  -5.828   2.259  0.00  0.00    -0.275 OA
ATOM      3  N   UNL     1      -1.967  -5.290   2.149  0.00  0.00    -0.297 N 
ATOM      4  C   UNL     1      -2.988  -4.309   1.772  0.00  0.00    +0.132 C 
ENDROOT
BRANCH   1   5
ATOM      5  C   UNL     1      -0.255  -3.702   1.333  0.00  0.00    +0.167 C 
BRANCH   5   6
ATOM      6  S   UNL     1       1.552  -3.635   1.192  0.00  0.00    -0.121 S 
BRANCH   6  11
ATOM      7  C   UNL     1      -0.019   1.526   0.010  0.00  0.00    +0.037 C 
ATOM      8  C   UNL     1       0.002  -0.004   0.002  0.00  0.00    +0.126 C 
ATOM      9  N   UNL     1       0.783  -0.534  -1.160  0.00  0.00    -0.242 NA
ATOM     10  N   UNL     1       1.220  -1.898  -0.887  0.00  0.00    -0.233 NA
ATOM     11  C   UNL     1       1.875  -2.013   0.446  0.00  0.00    +0.186 C 
ATOM     12  S   UNL     1       1.026  -0.672   1.385  0.00  0.00    -0.110 S 
ATOM     13  H   UNL     1       1.569   0.063  -1.369  0.00  0.00    +0.142 HD
ATOM     14  H   UNL     1       1.826  -2.237  -1.618  0.00  0.00    +0.143 HD
ENDBRANCH   6  11
ENDBRANCH   5   6
ENDBRANCH   1   5
BRANCH   3  15
ATOM     15  C   UNL     1      -2.363  -6.568   2.746  0.00  0.00    +0.179 C 
BRANCH  15  16
ATOM     16  C   UNL     1      -2.420  -6.426   4.245  0.00  0.00    +0.102 A 
ATOM     17  H   UNL     1      -3.621  -8.014   4.841  0.00  0.00    +0.167 HD
ATOM     18  N   UNL     1      -1.832  -5.493   4.944  0.00  0.00    -0.348 N 
ATOM     19  C   UNL     1      -2.101  -5.679   6.245  0.00  0.00    +0.105 A 
ATOM     20  C   UNL     1      -2.885  -6.768   6.356  0.00  0.00    +0.030 A 
ATOM     21  N   UNL     1      -3.092  -7.239   5.088  0.00  0.00    -0.346 N 
ATOM     22  C   UNL     1      -3.435  -7.352   7.632  0.00  0.00    +0.065 C 
ATOM     23  H   UNL     1      -1.286  -4.779   4.580  0.00  0.00    +0.166 HD
ENDBRANCH  15  16
ENDBRANCH   3  15
TORSDOF 5
