REMARK  Name = ZINC06469407
REMARK  4 active torsions:
REMARK  status: ('A' for Active; 'I' for Inactive)
REMARK    1  A    between atoms: C_1  and  C_2
REMARK    2  A    between atoms: C_12  and  O_15
REMARK    3  A    between atoms: C_16  and  C_28
REMARK    4  A    between atoms: C_19  and  O_27
REMARK                            x       y       z     vdW  Elec       q    Type
REMARK                         _______ _______ _______ _____ _____    ______ ____
ROOT
ATOM      1  C   UNL     1       1.934   5.651   3.581  0.00  0.00    +0.011 C 
ATOM      2  C   UNL     1       2.724   5.314   2.314  0.00  0.00    -0.026 C 
ATOM      3  C   UNL     1       3.751   6.409   2.044  0.00  0.00    +0.007 C 
ATOM      4  C   UNL     1       3.003   7.472   1.202  0.00  0.00    +0.001 C 
ATOM      5  C   UNL     1       1.581   6.904   0.940  0.00  0.00    +0.005 C 
ATOM      6  C   UNL     1       1.786   5.391   1.078  0.00  0.00    +0.006 C 
ATOM      7  C   UNL     1       0.552   4.582   1.421  0.00  0.00    +0.065 C 
ATOM      8  C   UNL     1       1.004   3.119   1.569  0.00  0.00    +0.034 C 
ATOM      9  C   UNL     1       2.045   2.972   2.669  0.00  0.00    +0.119 C 
ATOM     10  C   UNL     1       3.249   3.897   2.413  0.00  0.00    +0.038 C 
ATOM     11  C   UNL     1      -0.216   2.241   1.839  0.00  0.00    -0.023 C 
ATOM     12  C   UNL     1       0.232   0.795   2.075  0.00  0.00    +0.010 C 
ATOM     13  C   UNL     1       0.984   0.291   0.841  0.00  0.00    +0.032 C 
ATOM     14  C   UNL     1       0.062   0.344  -0.378  0.00  0.00    +0.115 C 
ATOM     15  C   UNL     1      -0.400   1.784  -0.610  0.00  0.00    +0.035 C 
ATOM     16  C   UNL     1      -1.151   2.280   0.627  0.00  0.00    +0.005 C 
ATOM     17  C   UNL     1      -1.637   3.712   0.395  0.00  0.00    +0.078 C 
ATOM     18  C   UNL     1      -0.471   4.644   0.312  0.00  0.00    +0.137 C 
ATOM     19  O   UNL     1      -0.347   5.413  -0.610  0.00  0.00    -0.297 OA
ATOM     20  C   UNL     1      -0.956   2.757   3.074  0.00  0.00    +0.012 C 
ENDROOT
BRANCH   9  21
ATOM     21  O   UNL     1       1.453   3.309   3.925  0.00  0.00    -0.391 OA
ATOM     22  H   UNL     1       2.057   3.239   4.677  0.00  0.00    +0.210 HD
ENDBRANCH   9  21
BRANCH  14  23
ATOM     23  O   UNL     1       0.769  -0.120  -1.530  0.00  0.00    -0.392 OA
ATOM     24  H   UNL     1       1.091  -1.029  -1.454  0.00  0.00    +0.210 HD
ENDBRANCH  14  23
TORSDOF 2
