REMARK  Name = ZINC08686872
REMARK  6 active torsions:
REMARK  status: ('A' for Active; 'I' for Inactive)
REMARK    1  A    between atoms: C_4  and  C_7
REMARK    2  A    between atoms: C_7  and  N_8
REMARK    3  A    between atoms: C_15  and  N_18
REMARK    4  A    between atoms: C_16  and  O_17
REMARK    5  A    between atoms: N_19  and  C_20
REMARK    6  A    between atoms: C_20  and  N_22
REMARK                            x       y       z     vdW  Elec       q    Type
REMARK                         _______ _______ _______ _____ _____    ______ ____
ROOT
ATOM      1  N   UNL     1       4.152  -0.952   1.338  0.00  0.00    -0.306 N 
ATOM      2  C   UNL     1       4.940  -0.088   2.079  0.00  0.00    +0.055 A 
ATOM      3  C   UNL     1       5.506   1.150   1.795  0.00  0.00    +0.026 A 
ATOM      4  C   UNL     1       6.264   1.796   2.749  0.00  0.00    +0.002 A 
ATOM      5  C   UNL     1       6.469   1.224   3.995  0.00  0.00    +0.001 A 
ATOM      6  C   UNL     1       5.916  -0.004   4.295  0.00  0.00    +0.012 A 
ATOM      7  C   UNL     1       5.149  -0.666   3.340  0.00  0.00    +0.031 A 
ATOM      8  C   UNL     1       4.430  -1.955   3.325  0.00  0.00    +0.150 A 
ATOM      9  C   UNL     1       3.839  -2.054   2.063  0.00  0.00    +0.222 A 
ENDROOT
BRANCH   8  10
ATOM     10  N   UNL     1       4.354  -2.846   4.321  0.00  0.00    -0.175 NA
ATOM     11  N   UNL     1       3.684  -3.937   4.161  0.00  0.00    -0.218 N 
ATOM     12  H   UNL     1       3.235  -4.111   3.319  0.00  0.00    +0.176 HD
BRANCH  11  13
ATOM     13  C   UNL     1       3.608  -4.835   5.164  0.00  0.00    +0.147 C 
ATOM     14  S   UNL     1       2.719  -6.282   4.951  0.00  0.00    -0.017 S 
BRANCH  13  15
ATOM     15  N   UNL     1       4.232  -4.592   6.333  0.00  0.00    -0.339 N 
ATOM     16  H   UNL     1       4.736  -3.772   6.454  0.00  0.00    +0.144 HD
ATOM     17  H   UNL     1       4.177  -5.238   7.055  0.00  0.00    +0.144 HD
ENDBRANCH  13  15
ENDBRANCH  11  13
ENDBRANCH   8  10
BRANCH   9  18
ATOM     18  O   UNL     1       3.081  -3.085   1.633  0.00  0.00    -0.492 OA
ATOM     19  H   UNL     1       3.584  -3.791   1.204  0.00  0.00    +0.294 HD
ENDBRANCH   9  18
BRANCH   1  20
ATOM     20  C   UNL     1       3.711  -0.707  -0.038  0.00  0.00    +0.160 C 
BRANCH  20  24
ATOM     21  C   UNL     1      -0.017   1.378   0.010  0.00  0.00    +0.000 A 
ATOM     22  C   UNL     1       1.171   2.086   0.002  0.00  0.00    +0.000 A 
ATOM     23  C   UNL     1       2.377   1.411  -0.013  0.00  0.00    +0.005 A 
ATOM     24  C   UNL     1       2.396   0.029  -0.020  0.00  0.00    -0.028 A 
ATOM     25  C   UNL     1       1.208  -0.679  -0.012  0.00  0.00    +0.005 A 
ATOM     26  C   UNL     1       0.002  -0.004   0.002  0.00  0.00    +0.000 A 
ENDBRANCH  20  24
ENDBRANCH   1  20
TORSDOF 6
