REMARK  Name = ZINC57933778
REMARK  3 active torsions:
REMARK  status: ('A' for Active; 'I' for Inactive)
REMARK    1  A    between atoms: C_1  and  C_2
REMARK    2  A    between atoms: C_2  and  C_16
REMARK    3  A    between atoms: N_5  and  C_15
REMARK                            x       y       z     vdW  Elec       q    Type
REMARK                         _______ _______ _______ _____ _____    ______ ____
ROOT
ATOM      1  C   UNL     1      -0.019   1.526   0.010  0.00  0.00    +0.041 C 
ATOM      2  C   UNL     1       0.002  -0.004   0.002  0.00  0.00    +0.103 C 
ATOM      3  C   UNL     1       0.718  -0.492  -1.232  0.00  0.00    +0.242 C 
ATOM      4  O   UNL     1       0.086  -0.714  -2.244  0.00  0.00    -0.273 OA
ATOM      5  N   UNL     1       2.049  -0.685  -1.224  0.00  0.00    -0.271 N 
ATOM      6  C   UNL     1       2.783  -0.575  -0.037  0.00  0.00    +0.058 A 
ATOM      7  C   UNL     1       4.169  -0.573  -0.063  0.00  0.00    +0.046 A 
ATOM      8  C   UNL     1       4.881  -0.454   1.118  0.00  0.00    +0.061 A 
ATOM      9  C   UNL     1       4.215  -0.337   2.326  0.00  0.00    +0.061 A 
ATOM     10  C   UNL     1       2.831  -0.341   2.361  0.00  0.00    +0.046 A 
ATOM     11  C   UNL     1       2.115  -0.464   1.183  0.00  0.00    +0.051 A 
ATOM     12  N   UNL     1       0.713  -0.493   1.192  0.00  0.00    -0.329 N 
ATOM     13 CL   UNL     1       5.118  -0.184   3.801  0.00  0.00    -0.082 Cl
ATOM     14 CL   UNL     1       6.617  -0.454   1.084  0.00  0.00    -0.082 Cl
ATOM     15  C   UNL     1       2.739  -1.015  -2.473  0.00  0.00    +0.138 C 
ATOM     16  C   UNL     1      -1.433  -0.535   0.008  0.00  0.00    +0.041 C 
ATOM     17  H   UNL     1       0.226  -0.826   1.963  0.00  0.00    +0.147 HD
ENDROOT
TORSDOF 0
