REMARK  Name = ZINC08448463
REMARK  4 active torsions:
REMARK  status: ('A' for Active; 'I' for Inactive)
REMARK    1  A    between atoms: C_1  and  C_2
REMARK    2  A    between atoms: C_5  and  C_13
REMARK    3  A    between atoms: C_6  and  S_9
REMARK    4  A    between atoms: S_9  and  N_12
REMARK                            x       y       z     vdW  Elec       q    Type
REMARK                         _______ _______ _______ _____ _____    ______ ____
ROOT
ATOM      1  C   UNL     1      -2.408   3.688   4.502  0.00  0.00    +0.045 C 
ATOM      2  C   UNL     1      -1.863   2.818   3.399  0.00  0.00    -0.029 A 
ATOM      3  C   UNL     1      -0.664   2.152   3.571  0.00  0.00    +0.025 A 
ATOM      4  C   UNL     1      -0.165   1.353   2.559  0.00  0.00    +0.046 A 
ATOM      5  C   UNL     1      -0.866   1.218   1.374  0.00  0.00    -0.004 A 
ATOM      6  C   UNL     1      -2.062   1.888   1.199  0.00  0.00    +0.128 A 
ATOM      7  C   UNL     1      -2.564   2.683   2.214  0.00  0.00    +0.070 A 
ATOM      8 CL   UNL     1      -4.071   3.519   1.997  0.00  0.00    -0.081 Cl
ATOM      9  C   UNL     1      -0.322   0.347   0.271  0.00  0.00    +0.047 C 
ATOM     10 CL   UNL     1       1.341   0.517   2.776  0.00  0.00    -0.083 Cl
ENDROOT
BRANCH   6  11
ATOM     11  S   UNL     1      -2.952   1.723  -0.313  0.00  0.00    +0.058 S 
ATOM     12  O   UNL     1      -3.997   2.684  -0.276  0.00  0.00    -0.153 OA
ATOM     13  O   UNL     1      -1.983   1.690  -1.352  0.00  0.00    -0.153 OA
BRANCH  11  14
ATOM     14  N   UNL     1      -3.677   0.234  -0.294  0.00  0.00    -0.203 NA
ATOM     15  H   UNL     1      -4.515   0.097  -0.764  0.00  0.00    +0.144 HD
ATOM     16  H   UNL     1      -3.264  -0.501   0.185  0.00  0.00    +0.144 HD
ENDBRANCH  11  14
ENDBRANCH   6  11
TORSDOF 2
