REMARK  Name = ZINC37358226
REMARK  5 active torsions:
REMARK  status: ('A' for Active; 'I' for Inactive)
REMARK    1  A    between atoms: C_5  and  C_7
REMARK    2  A    between atoms: C_7  and  N_8
REMARK    3  A    between atoms: C_11  and  C_26
REMARK    4  A    between atoms: C_13  and  N_25
REMARK    5  A    between atoms: N_14  and  C_18
REMARK                            x       y       z     vdW  Elec       q    Type
REMARK                         _______ _______ _______ _____ _____    ______ ____
ROOT
ATOM      1  N   UNL     1       0.773  -2.777  -1.443  0.00  0.00    -0.308 N 
ATOM      2  C   UNL     1       1.082  -4.105  -1.675  0.00  0.00    +0.218 A 
ATOM      3  N   UNL     1       1.177  -4.516  -2.935  0.00  0.00    -0.213 NA
ATOM      4  C   UNL     1       1.471  -5.776  -3.247  0.00  0.00    +0.095 A 
ATOM      5  C   UNL     1       1.686  -6.695  -2.191  0.00  0.00    +0.087 A 
ATOM      6  C   UNL     1       2.000  -8.043  -2.095  0.00  0.00    +0.131 A 
ATOM      7  N   UNL     1       2.072  -8.351  -0.784  0.00  0.00    -0.216 N 
ATOM      8  N   UNL     1       1.808  -7.213  -0.014  0.00  0.00    -0.144 NA
ATOM      9  C   UNL     1       1.570  -6.194  -0.810  0.00  0.00    +0.189 A 
ATOM     10  N   UNL     1       1.271  -4.891  -0.635  0.00  0.00    -0.193 NA
ATOM     11  H   UNL     1       0.628  -2.175  -2.190  0.00  0.00    +0.149 HD
ENDROOT
BRANCH   7  12
ATOM     12  C   UNL     1       2.368  -9.619  -0.271  0.00  0.00    +0.070 A 
ATOM     13  C   UNL     1       1.929 -10.758  -0.935  0.00  0.00    +0.028 A 
ATOM     14  C   UNL     1       2.221 -12.008  -0.427  0.00  0.00    +0.005 A 
ATOM     15  C   UNL     1       2.950 -12.129   0.741  0.00  0.00    +0.038 A 
ATOM     16  C   UNL     1       3.390 -10.997   1.406  0.00  0.00    +0.125 A 
ATOM     17  C   UNL     1       3.104  -9.742   0.899  0.00  0.00    +0.066 A 
ATOM     18  F   UNL     1       4.102 -11.118   2.548  0.00  0.00    -0.205 F 
ENDBRANCH   7  12
BRANCH   4  19
ATOM     19  C   UNL     1       1.569  -6.203  -4.651  0.00  0.00    +0.038 A 
ATOM     20  C   UNL     1       1.055  -7.337  -5.256  0.00  0.00    +0.017 A 
ATOM     21  C   UNL     1       1.313  -7.466  -6.602  0.00  0.00    +0.008 A 
ATOM     22  C   UNL     1       2.032  -6.504  -7.229  0.00  0.00    +0.046 A 
ATOM     23  S   UNL     1       2.374  -5.391  -6.019  0.00  0.00    -0.095 S 
ENDBRANCH   4  19
BRANCH   6  24
ATOM     24  N   UNL     1       2.201  -8.912  -3.151  0.00  0.00    -0.342 N 
ATOM     25  H   UNL     1       2.245  -8.572  -4.059  0.00  0.00    +0.144 HD
ATOM     26  H   UNL     1       2.300  -9.863  -2.985  0.00  0.00    +0.144 HD
ENDBRANCH   6  24
BRANCH   1  27
ATOM     27  C   UNL     1       0.664  -2.279  -0.069  0.00  0.00    +0.160 C 
BRANCH  27  32
ATOM     28  C   UNL     1      -1.305   0.934  -0.015  0.00  0.00    +0.003 A 
ATOM     29  C   UNL     1      -0.266   1.843  -0.138  0.00  0.00    +0.020 A 
ATOM     30  C   UNL     1       1.031   1.375  -0.232  0.00  0.00    +0.111 A 
ATOM     31  N   UNL     1       1.284   0.081  -0.208  0.00  0.00    -0.258 NA
ATOM     32  C   UNL     1       0.321  -0.812  -0.092  0.00  0.00    +0.058 A 
ATOM     33  C   UNL     1      -1.000  -0.418   0.008  0.00  0.00    +0.025 A 
ENDBRANCH  27  32
ENDBRANCH   1  27
TORSDOF 5
