REMARK  Name = ZINC42259898
REMARK  4 active torsions:
REMARK  status: ('A' for Active; 'I' for Inactive)
REMARK    1  A    between atoms: C_1  and  C_2
REMARK    2  A    between atoms: C_2  and  C_4
REMARK    3  A    between atoms: C_2  and  N_11
REMARK    4  A    between atoms: N_14  and  C_15
REMARK                            x       y       z     vdW  Elec       q    Type
REMARK                         _______ _______ _______ _____ _____    ______ ____
ROOT
ATOM      1  N   UNL     1       0.709  -0.505   1.184  0.00  0.00    -0.293 N 
ATOM      2  C   UNL     1       2.053  -0.604   1.173  0.00  0.00    +0.304 C 
ATOM      3  O   UNL     1       2.677  -0.293   0.176  0.00  0.00    -0.252 OA
ATOM      4  N   UNL     1       2.706  -1.046   2.266  0.00  0.00    -0.268 N 
ATOM      5  H   UNL     1       0.211  -0.753   1.978  0.00  0.00    +0.151 HD
ATOM      6  H   UNL     1       2.217  -1.216   3.086  0.00  0.00    +0.156 HD
ENDROOT
BRANCH   4   7
ATOM      7  C   UNL     1       4.088  -1.261   2.216  0.00  0.00    +0.053 A 
ATOM      8  C   UNL     1       4.709  -1.526   1.003  0.00  0.00    +0.025 A 
ATOM      9  C   UNL     1       6.073  -1.737   0.958  0.00  0.00    +0.002 A 
ATOM     10  C   UNL     1       6.822  -1.685   2.119  0.00  0.00    +0.002 A 
ATOM     11  C   UNL     1       6.208  -1.421   3.330  0.00  0.00    +0.022 A 
ATOM     12  C   UNL     1       4.844  -1.203   3.381  0.00  0.00    +0.062 A 
ATOM     13 CL   UNL     1       4.074  -0.864   4.900  0.00  0.00    -0.082 Cl
ENDBRANCH   4   7
BRANCH   1  15
ATOM     14  C   UNL     1      -0.035   1.505   0.007  0.00  0.00    +0.033 C 
ATOM     15  C   UNL     1      -0.000  -0.025  -0.004  0.00  0.00    +0.102 C 
BRANCH  15  16
ATOM     16  C   UNL     1      -1.409  -0.559   0.001  0.00  0.00    -0.027 A 
ATOM     17  C   UNL     1      -2.123  -0.613   1.183  0.00  0.00    +0.006 A 
ATOM     18  C   UNL     1      -3.416  -1.102   1.189  0.00  0.00    +0.015 A 
ATOM     19  C   UNL     1      -3.995  -1.538   0.011  0.00  0.00    +0.018 A 
ATOM     20  C   UNL     1      -3.280  -1.485  -1.172  0.00  0.00    +0.015 A 
ATOM     21  C   UNL     1      -1.989  -0.990  -1.177  0.00  0.00    +0.006 A 
ATOM     22 BR   UNL     1      -5.763  -2.209   0.018  0.00  0.00    -0.050 Br
ENDBRANCH  15  16
ENDBRANCH   1  15
TORSDOF 3
