REMARK  Name = ZINC36743542
REMARK  7 active torsions:
REMARK  status: ('A' for Active; 'I' for Inactive)
REMARK    1  A    between atoms: C_1  and  C_2
REMARK    2  A    between atoms: C_6  and  N_19
REMARK    3  A    between atoms: C_7  and  N_8
REMARK    4  A    between atoms: N_8  and  S_9
REMARK    5  A    between atoms: S_9  and  C_12
REMARK    6  A    between atoms: C_13  and  C_18
REMARK    7  A    between atoms: C_16  and  C_17
REMARK                            x       y       z     vdW  Elec       q    Type
REMARK                         _______ _______ _______ _____ _____    ______ ____
ROOT
ATOM      1  N   UNL     1       1.008  -0.476   2.265  0.00  0.00    -0.214 N 
ATOM      2  H   UNL     1       0.789   0.449   2.455  0.00  0.00    +0.174 HD
ENDROOT
BRANCH   1   9
ATOM      3  C   UNL     1       3.497   0.554   1.356  0.00  0.00    +0.046 C 
ATOM      4  C   UNL     1       2.657  -0.364   0.505  0.00  0.00    -0.025 A 
ATOM      5  C   UNL     1       3.095  -0.732  -0.754  0.00  0.00    +0.020 A 
ATOM      6  C   UNL     1       2.327  -1.573  -1.538  0.00  0.00    +0.020 A 
ATOM      7  C   UNL     1       1.117  -2.052  -1.067  0.00  0.00    +0.040 A 
ATOM      8  C   UNL     1       0.672  -1.688   0.194  0.00  0.00    +0.049 A 
ATOM      9  C   UNL     1       1.450  -0.844   0.987  0.00  0.00    +0.072 A 
ATOM     10 BR   UNL     1       2.932  -2.071  -3.260  0.00  0.00    -0.050 Br
BRANCH   8  11
ATOM     11  N   UNL     1      -0.552  -2.171   0.673  0.00  0.00    -0.356 N 
ATOM     12  H   UNL     1      -0.966  -2.942   0.255  0.00  0.00    +0.142 HD
ATOM     13  H   UNL     1      -0.985  -1.735   1.424  0.00  0.00    +0.142 HD
ENDBRANCH   8  11
ENDBRANCH   1   9
BRANCH   1  14
ATOM     14  S   UNL     1       0.859  -1.623   3.450  0.00  0.00    +0.077 S 
ATOM     15  O   UNL     1       0.418  -0.944   4.618  0.00  0.00    -0.150 OA
ATOM     16  O   UNL     1       0.138  -2.706   2.880  0.00  0.00    -0.150 OA
BRANCH  14  17
ATOM     17  C   UNL     1       2.478  -2.224   3.799  0.00  0.00    +0.173 A 
ATOM     18  C   UNL     1       3.078  -3.360   3.225  0.00  0.00    +0.107 A 
ATOM     19  N   UNL     1       4.274  -3.483   3.729  0.00  0.00    -0.081 NA
ATOM     20  O   UNL     1       4.472  -2.422   4.646  0.00  0.00    -0.358 OA
ATOM     21  C   UNL     1       3.359  -1.674   4.657  0.00  0.00    +0.161 A 
ATOM     22  C   UNL     1       3.131  -0.437   5.487  0.00  0.00    +0.091 C 
ATOM     23  C   UNL     1       2.449  -4.274   2.206  0.00  0.00    +0.071 C 
ENDBRANCH  14  17
ENDBRANCH   1  14
TORSDOF 4
