REMARK  Name = ZINC20985055
REMARK  8 active torsions:
REMARK  status: ('A' for Active; 'I' for Inactive)
REMARK    1  A    between atoms: C_1  and  C_2
REMARK    2  A    between atoms: C_2  and  C_4
REMARK    3  A    between atoms: C_2  and  N_23
REMARK    4  A    between atoms: C_4  and  C_5
REMARK    5  A    between atoms: C_5  and  N_6
REMARK    6  A    between atoms: N_6  and  S_7
REMARK    7  A    between atoms: S_7  and  C_10
REMARK    8  A    between atoms: C_13  and  C_15
REMARK                            x       y       z     vdW  Elec       q    Type
REMARK                         _______ _______ _______ _____ _____    ______ ____
ROOT
ATOM      1  S   UNL     1      -5.282  -2.229   0.202  0.00  0.00    +0.065 S 
ATOM      2  O   UNL     1      -5.806  -1.061  -0.416  0.00  0.00    -0.153 OA
ATOM      3  O   UNL     1      -5.485  -3.530  -0.332  0.00  0.00    -0.153 OA
ENDROOT
BRANCH   1   4
ATOM      4  C   UNL     1      -3.539  -1.998   0.318  0.00  0.00    +0.143 A 
ATOM      5  C   UNL     1      -2.558  -2.933   0.410  0.00  0.00    +0.037 A 
ATOM      6  C   UNL     1      -1.246  -2.524   0.484  0.00  0.00    +0.020 A 
ATOM      7  C   UNL     1      -0.973  -1.181   0.476  0.00  0.00    +0.041 A 
ATOM      8  S   UNL     1      -2.608  -0.475   0.344  0.00  0.00    -0.067 S 
BRANCH   7   9
ATOM      9  C   UNL     1       0.334  -0.496   0.549  0.00  0.00    +0.098 A 
ATOM     10  C   UNL     1       0.392   0.919   0.518  0.00  0.00    +0.036 A 
ATOM     11  C   UNL     1       1.615   1.516   0.588  0.00  0.00    +0.073 A 
ATOM     12  C   UNL     1       2.753   0.683   0.687  0.00  0.00    +0.265 A 
ATOM     13  O   UNL     1       3.869   1.174   0.752  0.00  0.00    -0.266 OA
ATOM     14  N   UNL     1       2.598  -0.653   0.710  0.00  0.00    -0.243 N 
ATOM     15  H   UNL     1       3.479  -1.308   0.787  0.00  0.00    +0.192 HD
ATOM     16  N   UNL     1       1.439  -1.202   0.643  0.00  0.00    -0.170 NA
ENDBRANCH   7   9
ENDBRANCH   1   4
BRANCH   1  17
ATOM     17  N   UNL     1      -5.876  -2.253   1.748  0.00  0.00    -0.190 NA
ATOM     18  H   UNL     1      -6.181  -3.213   2.191  0.00  0.00    +0.148 HD
BRANCH  17  19
ATOM     19  C   UNL     1      -5.792  -1.054   2.584  0.00  0.00    +0.104 C 
BRANCH  19  20
ATOM     20  C   UNL     1      -6.719  -1.207   3.791  0.00  0.00    +0.001 C 
BRANCH  20  22
ATOM     21  C   UNL     1      -7.649  -0.053   5.803  0.00  0.00    -0.013 C 
ATOM     22  C   UNL     1      -6.631   0.046   4.665  0.00  0.00    -0.071 C 
BRANCH  22  23
ATOM     23  N   UNL     1      -5.278   0.157   5.226  0.00  0.00    +0.381 N 
ATOM     24  C   UNL     1      -4.927  -1.050   6.008  0.00  0.00    -0.078 C 
ATOM     25  C   UNL     1      -3.674  -0.875   6.822  0.00  0.00    -0.019 C 
ATOM     26  C   UNL     1      -4.071  -0.412   8.239  0.00  0.00    -0.002 C 
ATOM     27  C   UNL     1      -4.396   1.009   8.285  0.00  0.00    -0.002 C 
ATOM     28  C   UNL     1      -5.593   1.363   7.378  0.00  0.00    -0.019 C 
ATOM     29  C   UNL     1      -5.109   1.434   5.955  0.00  0.00    -0.078 C 
ATOM     30  H   UNL     1      -4.552   0.192   4.401  0.00  0.00    -0.081 HD
ENDBRANCH  22  23
ENDBRANCH  20  22
ENDBRANCH  19  20
ENDBRANCH  17  19
ENDBRANCH   1  17
TORSDOF 7
