REMARK  Name = ZINC13146647
REMARK  7 active torsions:
REMARK  status: ('A' for Active; 'I' for Inactive)
REMARK    1  A    between atoms: C_1  and  C_2
REMARK    2  A    between atoms: C_2  and  O_3
REMARK    3  A    between atoms: O_3  and  C_4
REMARK    4  A    between atoms: C_4  and  C_6
REMARK    5  A    between atoms: N_7  and  C_8
REMARK    6  A    between atoms: N_16  and  N_17
REMARK    7  A    between atoms: N_17  and  C_18
REMARK                            x       y       z     vdW  Elec       q    Type
REMARK                         _______ _______ _______ _____ _____    ______ ____
ROOT
ATOM      1  C   UNL     1       1.440  -2.332  -2.524  0.00  0.00    +0.196 C 
ATOM      2  N   UNL     1       1.639  -3.717  -2.551  0.00  0.00    -0.319 N 
ATOM      3  N   UNL     1       1.884  -1.589  -3.502  0.00  0.00    -0.288 N 
ATOM      4  H   UNL     1       2.158  -4.118  -3.266  0.00  0.00    +0.148 HD
ATOM      5  H   UNL     1       1.813  -0.623  -3.448  0.00  0.00    +0.186 HD
ENDROOT
BRANCH   2   6
ATOM      6  C   UNL     1       1.063  -4.561  -1.501  0.00  0.00    +0.094 C 
ATOM      7  C   UNL     1      -0.429  -4.792  -1.793  0.00  0.00    +0.046 C 
ATOM      8  C   UNL     1      -0.936  -5.927  -0.858  0.00  0.00    +0.168 C 
ATOM      9  S   UNL     1       0.494  -7.087  -0.931  0.00  0.00    -0.029 S 
ATOM     10  O   UNL     1       0.270  -8.033  -1.968  0.00  0.00    -0.174 OA
ATOM     11  O   UNL     1       0.786  -7.544   0.382  0.00  0.00    -0.174 OA
ATOM     12  C   UNL     1       1.808  -5.917  -1.465  0.00  0.00    +0.188 C 
ENDBRANCH   2   6
BRANCH   1  13
ATOM     13  C   UNL     1       0.732  -1.714  -1.397  0.00  0.00    +0.372 C 
ATOM     14  O   UNL     1       0.225  -2.414  -0.540  0.00  0.00    -0.242 OA
BRANCH  13  15
ATOM     15  O   UNL     1       0.643  -0.371  -1.310  0.00  0.00    -0.460 OA
BRANCH  15  17
ATOM     16  C   UNL     1      -0.056   1.690  -0.259  0.00  0.00    +0.048 C 
ATOM     17  C   UNL     1      -0.060   0.161  -0.186  0.00  0.00    +0.229 C 
ENDBRANCH  15  17
ENDBRANCH  13  15
ENDBRANCH   1  13
BRANCH   3  18
ATOM     18  N   UNL     1       2.462  -2.187  -4.629  0.00  0.00    -0.259 N 
ATOM     19  H   UNL     1       2.465  -3.152  -4.718  0.00  0.00    +0.172 HD
BRANCH  18  20
ATOM     20  C   UNL     1       3.034  -1.393  -5.624  0.00  0.00    +0.046 A 
ATOM     21  C   UNL     1       3.035  -0.009  -5.496  0.00  0.00    +0.026 A 
ATOM     22  C   UNL     1       3.602   0.774  -6.482  0.00  0.00    +0.017 A 
ATOM     23  C   UNL     1       4.168   0.182  -7.598  0.00  0.00    +0.018 A 
ATOM     24  C   UNL     1       4.168  -1.196  -7.729  0.00  0.00    +0.017 A 
ATOM     25  C   UNL     1       3.608  -1.984  -6.743  0.00  0.00    +0.026 A 
ATOM     26 BR   UNL     1       4.942   1.258  -8.947  0.00  0.00    -0.050 Br
ENDBRANCH  18  20
ENDBRANCH   3  18
TORSDOF 6
