REMARK  Name = ZINC48499105
REMARK  4 active torsions:
REMARK  status: ('A' for Active; 'I' for Inactive)
REMARK    1  A    between atoms: C_6  and  N_7
REMARK    2  A    between atoms: C_8  and  C_10
REMARK    3  A    between atoms: N_12  and  C_13
REMARK    4  A    between atoms: C_13  and  C_14
REMARK                            x       y       z     vdW  Elec       q    Type
REMARK                         _______ _______ _______ _____ _____    ______ ____
ROOT
ATOM      1  N   UNL     1      -1.198  -0.721   0.010  0.00  0.00    -0.278 N 
ATOM      2  C   UNL     1      -1.182  -2.064  -0.099  0.00  0.00    +0.303 C 
ATOM      3  O   UNL     1      -0.125  -2.659  -0.113  0.00  0.00    -0.265 OA
ATOM      4  H   UNL     1      -2.043  -0.251   0.098  0.00  0.00    +0.155 HD
ENDROOT
BRANCH   1  10
ATOM      5  C   UNL     1       1.071  -0.453  -0.767  0.00  0.00    +0.026 A 
ATOM      6  C   UNL     1       2.256   0.257  -0.780  0.00  0.00    +0.041 A 
ATOM      7  C   UNL     1       2.379   1.415  -0.033  0.00  0.00    +0.142 A 
ATOM      8  C   UNL     1       1.313   1.866   0.731  0.00  0.00    +0.078 A 
ATOM      9  C   UNL     1       0.126   1.159   0.746  0.00  0.00    +0.046 A 
ATOM     10  C   UNL     1       0.002  -0.004  -0.004  0.00  0.00    +0.035 A 
ATOM     11 CL   UNL     1       1.470   3.319   1.668  0.00  0.00    -0.081 Cl
ATOM     12  F   UNL     1       3.539   2.108  -0.047  0.00  0.00    -0.204 F 
ENDBRANCH   1  10
BRANCH   2  13
ATOM     13  C   UNL     1      -2.466  -2.820  -0.203  0.00  0.00    +0.300 C 
ATOM     14  O   UNL     1      -3.524  -2.225  -0.189  0.00  0.00    -0.265 OA
ATOM     15  N   UNL     1      -2.450  -4.163  -0.312  0.00  0.00    -0.302 N 
ATOM     16  H   UNL     1      -1.605  -4.639  -0.323  0.00  0.00    +0.150 HD
BRANCH  15  17
ATOM     17  C   UNL     1      -3.709  -4.905  -0.414  0.00  0.00    +0.162 C 
BRANCH  17  18
ATOM     18  C   UNL     1      -3.416  -6.379  -0.524  0.00  0.00    +0.080 A 
ATOM     19  C   UNL     1      -3.396  -7.293   0.534  0.00  0.00    +0.045 A 
ATOM     20  C   UNL     1      -3.095  -8.511   0.027  0.00  0.00    +0.105 A 
ATOM     21  N   UNL     1      -2.931  -8.373  -1.305  0.00  0.00    -0.284 N 
ATOM     22  H   UNL     1      -2.709  -9.081  -1.929  0.00  0.00    +0.188 HD
ATOM     23  N   UNL     1      -3.143  -7.026  -1.628  0.00  0.00    -0.177 NA
ENDBRANCH  17  18
ENDBRANCH  15  17
ENDBRANCH   2  13
TORSDOF 4
