REMARK  Name = ZINC17857704
REMARK  5 active torsions:
REMARK  status: ('A' for Active; 'I' for Inactive)
REMARK    1  A    between atoms: C_2  and  C_9
REMARK    2  A    between atoms: N_10  and  C_11
REMARK    3  A    between atoms: C_11  and  C_12
REMARK    4  A    between atoms: C_12  and  N_13
REMARK    5  A    between atoms: C_14  and  C_15
REMARK                            x       y       z     vdW  Elec       q    Type
REMARK                         _______ _______ _______ _____ _____    ______ ____
ROOT
ATOM      1  C   UNL     1       2.271   5.685   0.010  0.00  0.00    +0.133 C 
ENDROOT
BRANCH   1   3
ATOM      2  C   UNL     1       1.171   3.563   0.009  0.00  0.00    +0.086 C 
ATOM      3  N   UNL     1       2.285   4.220   0.002  0.00  0.00    -0.388 N 
ATOM      4  H   UNL     1       3.129   3.743  -0.008  0.00  0.00    +0.159 HD
BRANCH   2   6
ATOM      5  C   UNL     1      -0.017   1.375   0.010  0.00  0.00    +0.011 A 
ATOM      6  C   UNL     1       1.185   2.087   0.002  0.00  0.00    -0.008 A 
ATOM      7  C   UNL     1       2.399   1.397  -0.013  0.00  0.00    +0.030 A 
ATOM      8  C   UNL     1       2.405   0.017  -0.021  0.00  0.00    +0.060 A 
ATOM      9  C   UNL     1       1.209  -0.683  -0.014  0.00  0.00    +0.059 A 
ATOM     10  C   UNL     1       0.002  -0.004   0.002  0.00  0.00    +0.022 A 
ATOM     11 CL   UNL     1       1.224  -2.419  -0.024  0.00  0.00    -0.082 Cl
ATOM     12 CL   UNL     1       3.913  -0.843  -0.040  0.00  0.00    -0.082 Cl
ENDBRANCH   2   6
ENDBRANCH   1   3
BRANCH   1  13
ATOM     13  C   UNL     1       2.888   6.194   1.314  0.00  0.00    +0.133 C 
BRANCH  13  14
ATOM     14  N   UNL     1       2.875   7.659   1.322  0.00  0.00    -0.388 N 
ATOM     15  C   UNL     1       2.157   8.294   2.190  0.00  0.00    +0.086 C 
ATOM     16  H   UNL     1       3.404   8.152   0.676  0.00  0.00    +0.159 HD
BRANCH  15  17
ATOM     17  C   UNL     1       2.143   9.770   2.197  0.00  0.00    -0.008 A 
ATOM     18  C   UNL     1       2.900  10.483   1.265  0.00  0.00    +0.030 A 
ATOM     19  C   UNL     1       2.882  11.863   1.277  0.00  0.00    +0.060 A 
ATOM     20  C   UNL     1       2.116  12.540   2.212  0.00  0.00    +0.059 A 
ATOM     21  C   UNL     1       1.365  11.838   3.139  0.00  0.00    +0.022 A 
ATOM     22  C   UNL     1       1.369  10.459   3.133  0.00  0.00    +0.011 A 
ATOM     23 CL   UNL     1       2.099  14.276   2.222  0.00  0.00    -0.082 Cl
ATOM     24 CL   UNL     1       3.822  12.752   0.119  0.00  0.00    -0.082 Cl
ENDBRANCH  15  17
ENDBRANCH  13  14
ENDBRANCH   1  13
TORSDOF 5
