REMARK  Name = ZINC43396236
REMARK  6 active torsions:
REMARK  status: ('A' for Active; 'I' for Inactive)
REMARK    1  A    between atoms: C_1  and  C_2
REMARK    2  A    between atoms: C_5  and  C_16
REMARK    3  A    between atoms: C_6  and  N_8
REMARK    4  A    between atoms: C_9  and  C_15
REMARK    5  A    between atoms: C_10  and  N_14
REMARK    6  A    between atoms: C_11  and  C_13
REMARK                            x       y       z     vdW  Elec       q    Type
REMARK                         _______ _______ _______ _____ _____    ______ ____
ROOT
ATOM      1  C   UNL     1      -0.782   1.387   0.007  0.00  0.00    +0.065 C 
ATOM      2  C   UNL     1      -0.358  -0.059   0.000  0.00  0.00    +0.041 A 
ATOM      3  C   UNL     1       0.003  -0.656  -1.195  0.00  0.00    +0.024 A 
ATOM      4  C   UNL     1       0.392  -1.983  -1.202  0.00  0.00    +0.018 A 
ATOM      5  C   UNL     1       0.406  -2.679   0.012  0.00  0.00    +0.081 A 
ATOM      6  C   UNL     1       0.026  -2.003   1.182  0.00  0.00    +0.167 A 
ATOM      7  N   UNL     1      -0.333  -0.731   1.134  0.00  0.00    -0.232 NA
ENDROOT
BRANCH   6   8
ATOM      8  N   UNL     1       0.032  -2.676   2.402  0.00  0.00    -0.216 N 
ATOM      9  C   UNL     1       0.733  -2.315   3.515  0.00  0.00    +0.064 A 
ATOM     10  C   UNL     1       0.464  -3.228   4.480  0.00  0.00    +0.069 A 
ATOM     11  C   UNL     1      -0.426  -4.173   3.944  0.00  0.00    +0.081 A 
ATOM     12  N   UNL     1      -0.687  -3.839   2.707  0.00  0.00    -0.168 NA
ATOM     13  C   UNL     1      -0.990  -5.366   4.673  0.00  0.00    +0.069 C 
ATOM     14  C   UNL     1       1.642  -1.120   3.647  0.00  0.00    +0.068 C 
BRANCH  10  15
ATOM     15  N   UNL     1       0.985  -3.230   5.788  0.00  0.00    -0.355 N 
ATOM     16  H   UNL     1       1.597  -2.531   6.067  0.00  0.00    +0.142 HD
ATOM     17  H   UNL     1       0.731  -3.929   6.410  0.00  0.00    +0.142 HD
ENDBRANCH  10  15
ENDBRANCH   6   8
BRANCH   5  18
ATOM     18  C   UNL     1       0.812  -4.096   0.062  0.00  0.00    +0.245 C 
ATOM     19  O   UNL     1       0.926  -4.660   1.133  0.00  0.00    -0.270 OA
ATOM     20  N   UNL     1       1.058  -4.767  -1.081  0.00  0.00    -0.325 N 
ATOM     21  H   UNL     1       0.968  -4.318  -1.936  0.00  0.00    +0.145 HD
ATOM     22  H   UNL     1       1.325  -5.699  -1.049  0.00  0.00    +0.145 HD
ENDBRANCH   5  18
TORSDOF 3
