REMARK  Name = ZINC39662092
REMARK  7 active torsions:
REMARK  status: ('A' for Active; 'I' for Inactive)
REMARK    1  A    between atoms: C_3  and  C_15
REMARK    2  A    between atoms: C_4  and  O_7
REMARK    3  A    between atoms: O_7  and  C_8
REMARK    4  A    between atoms: C_19  and  C_28
REMARK    5  A    between atoms: N_30  and  C_31
REMARK    6  A    between atoms: C_31  and  C_32
REMARK    7  A    between atoms: C_32  and  S_33
REMARK                            x       y       z     vdW  Elec       q    Type
REMARK                         _______ _______ _______ _____ _____    ______ ____
ROOT
ATOM      1  C   UNL     1       3.626   2.159   0.213  0.00  0.00    +0.252 C 
ATOM      2  O   UNL     1       4.645   1.495   0.199  0.00  0.00    -0.270 OA
ATOM      3  N   UNL     1       3.695   3.501   0.106  0.00  0.00    -0.296 N 
ATOM      4  C   UNL     1       2.572   4.462   0.003  0.00  0.00    +0.121 C 
ATOM      5  C   UNL     1       3.009   5.667   0.867  0.00  0.00    +0.100 C 
ATOM      6  C   UNL     1       4.544   5.588   0.902  0.00  0.00    -0.004 C 
ATOM      7  C   UNL     1       4.910   4.349   0.071  0.00  0.00    +0.115 C 
ATOM      8  C   UNL     1       5.153   6.841   0.280  0.00  0.00    -0.010 C 
ATOM      9  C   UNL     1       6.679   6.765   0.379  0.00  0.00    -0.082 C 
ATOM     10  N   UNL     1       7.075   6.652   1.788  0.00  0.00    +0.379 N 
ATOM     11  C   UNL     1       6.563   5.398   2.353  0.00  0.00    -0.082 C 
ATOM     12  C   UNL     1       5.032   5.416   2.337  0.00  0.00    -0.010 C 
ATOM     13  H   UNL     1       8.081   6.664   1.855  0.00  0.00    -0.086 HD
ATOM     14  H   UNL     1       6.697   7.432   2.305  0.00  0.00    -0.086 HD
ENDROOT
BRANCH   1  17
ATOM     15  C   UNL     1      -0.017   1.345  -0.155  0.00  0.00    +0.021 A 
ATOM     16  C   UNL     1       1.189   2.004  -0.312  0.00  0.00    +0.020 A 
ATOM     17  C   UNL     1       2.315   1.496   0.346  0.00  0.00    +0.099 A 
ATOM     18  C   UNL     1       2.174   0.343   1.134  0.00  0.00    +0.233 A 
ATOM     19  N   UNL     1       0.998  -0.248   1.250  0.00  0.00    -0.220 NA
ATOM     20  C   UNL     1      -0.076   0.214   0.639  0.00  0.00    +0.114 A 
BRANCH  18  21
ATOM     21  O   UNL     1       3.251  -0.167   1.779  0.00  0.00    -0.437 OA
BRANCH  21  22
ATOM     22  C   UNL     1       3.100  -1.346   2.438  0.00  0.00    +0.130 A 
ATOM     23  C   UNL     1       3.079  -2.539   1.731  0.00  0.00    +0.048 A 
ATOM     24  C   UNL     1       2.925  -3.736   2.403  0.00  0.00    +0.023 A 
ATOM     25  C   UNL     1       2.794  -3.746   3.780  0.00  0.00    +0.041 A 
ATOM     26  C   UNL     1       2.815  -2.557   4.487  0.00  0.00    +0.023 A 
ATOM     27  C   UNL     1       2.974  -1.358   3.820  0.00  0.00    +0.048 A 
ATOM     28 CL   UNL     1       2.601  -5.252   4.622  0.00  0.00    -0.084 Cl
ENDBRANCH  21  22
ENDBRANCH  18  21
ENDBRANCH   1  17
BRANCH   5  29
ATOM     29  C   UNL     1       2.562   6.958   0.231  0.00  0.00    +0.218 C 
ATOM     30  O   UNL     1       2.420   7.024  -0.972  0.00  0.00    -0.275 OA
ATOM     31  N   UNL     1       2.321   8.039   0.998  0.00  0.00    -0.314 N 
ATOM     32  H   UNL     1       2.435   7.986   1.960  0.00  0.00    +0.149 HD
BRANCH  31  33
ATOM     33  C   UNL     1       1.887   9.294   0.380  0.00  0.00    +0.114 C 
BRANCH  33  34
ATOM     34  C   UNL     1       1.684  10.354   1.465  0.00  0.00    +0.084 C 
BRANCH  34  35
ATOM     35  S   UNL     1       1.147  11.908   0.699  0.00  0.00    -0.177 S 
ATOM     36  H   UNL     1       1.004  12.750   1.738  0.00  0.00    +0.102 HD
ENDBRANCH  34  35
ENDBRANCH  33  34
ENDBRANCH  31  33
ENDBRANCH   5  29
TORSDOF 7
