REMARK  Name = ZINC12813496
REMARK  3 active torsions:
REMARK  status: ('A' for Active; 'I' for Inactive)
REMARK    1  A    between atoms: C_1  and  C_2
REMARK    2  A    between atoms: N_8  and  C_9
REMARK    3  A    between atoms: C_9  and  C_10
REMARK                            x       y       z     vdW  Elec       q    Type
REMARK                         _______ _______ _______ _____ _____    ______ ____
ROOT
ATOM      1  C   UNL     1      -0.016   1.302   0.009  0.00  0.00    +0.127 A 
ATOM      2  N   UNL     1       1.135   2.022   0.002  0.00  0.00    -0.309 N 
ATOM      3  H   UNL     1       1.090   2.991   0.007  0.00  0.00    +0.170 HD
ATOM      4  C   UNL     1       2.339   1.418  -0.012  0.00  0.00    +0.260 A 
ATOM      5  O   UNL     1       3.364   2.077  -0.018  0.00  0.00    -0.267 OA
ATOM      6  C   UNL     1       2.391  -0.013  -0.020  0.00  0.00    +0.075 A 
ATOM      7  C   UNL     1       3.582  -0.877  -0.035  0.00  0.00    -0.023 A 
ATOM      8  C   UNL     1       3.369  -2.204  -0.042  0.00  0.00    -0.004 A 
ATOM      9  S   UNL     1       1.601  -2.386  -0.027  0.00  0.00    -0.073 S 
ATOM     10  C   UNL     1       1.154  -0.670  -0.013  0.00  0.00    +0.116 A 
ATOM     11  N   UNL     1       0.002  -0.004   0.002  0.00  0.00    -0.225 NA
ATOM     12  C   UNL     1       4.656  -2.985  -0.063  0.00  0.00    +0.043 C 
ATOM     13  C   UNL     1       5.724  -1.960  -0.504  0.00  0.00    +0.010 C 
ATOM     14  C   UNL     1       5.093  -0.631  -0.044  0.00  0.00    +0.037 C 
ENDROOT
BRANCH   1  15
ATOM     15  C   UNL     1      -1.339   2.023   0.019  0.00  0.00    +0.180 C 
BRANCH  15  22
ATOM     16  C   UNL     1      -4.203   1.796  -1.545  0.00  0.00    +0.026 C 
ATOM     17  C   UNL     1      -3.748   1.713  -0.087  0.00  0.00    +0.082 C 
ATOM     18  C   UNL     1      -4.658   0.758   0.723  0.00  0.00    +0.117 C 
ATOM     19  C   UNL     1      -3.666   0.070   1.642  0.00  0.00    +0.228 C 
ATOM     20  O   UNL     1      -3.939  -0.579   2.630  0.00  0.00    -0.274 OA
ATOM     21  N   UNL     1      -2.429   0.307   1.168  0.00  0.00    -0.248 N 
ATOM     22  N   UNL     1      -2.432   1.042   0.019  0.00  0.00    -0.217 NA
ATOM     23  H   UNL     1      -1.619  -0.011   1.598  0.00  0.00    +0.169 HD
ENDBRANCH  15  22
ENDBRANCH   1  15
TORSDOF 2
