REMARK  Name = ZINC27548552
REMARK  10 active torsions:
REMARK  status: ('A' for Active; 'I' for Inactive)
REMARK    1  A    between atoms: C_1  and  C_2
REMARK    2  A    between atoms: C_5  and  N_8
REMARK    3  A    between atoms: C_9  and  C_11
REMARK    4  A    between atoms: C_11  and  N_22
REMARK    5  A    between atoms: C_12  and  C_13
REMARK    6  A    between atoms: C_16  and  N_19
REMARK    7  A    between atoms: N_19  and  C_20
REMARK    8  A    between atoms: N_19  and  C_21
REMARK    9  A    between atoms: C_23  and  C_25
REMARK   10  A    between atoms: C_30  and  C_31
REMARK                            x       y       z     vdW  Elec       q    Type
REMARK                         _______ _______ _______ _____ _____    ______ ____
ROOT
ATOM      1  C   UNL     1      -4.544   2.131  -0.339  0.00  0.00    +0.097 C 
ATOM      2  C   UNL     1      -3.334   1.665  -0.733  0.00  0.00    +0.036 C 
ENDROOT
BRANCH   2   3
ATOM      3  C   UNL     1      -2.168   2.558  -0.734  0.00  0.00    -0.023 A 
ATOM      4  C   UNL     1      -1.235   2.494  -1.776  0.00  0.00    +0.010 A 
ATOM      5  C   UNL     1      -0.147   3.336  -1.776  0.00  0.00    +0.023 A 
ATOM      6  C   UNL     1       0.031   4.246  -0.738  0.00  0.00    +0.029 A 
ATOM      7  C   UNL     1      -0.891   4.309   0.304  0.00  0.00    +0.023 A 
ATOM      8  C   UNL     1      -1.982   3.471   0.311  0.00  0.00    +0.010 A 
BRANCH   6   9
ATOM      9  N   UNL     1       1.134   5.097  -0.741  0.00  0.00    -0.336 N 
ATOM     10  C   UNL     1       2.105   5.033  -1.836  0.00  0.00    +0.129 C 
ATOM     11  C   UNL     1       1.323   6.056   0.350  0.00  0.00    +0.129 C 
ENDBRANCH   6   9
ENDBRANCH   2   3
BRANCH   1  13
ATOM     12  N   UNL     1      -5.938   4.036   0.273  0.00  0.00    -0.280 N 
ATOM     13  C   UNL     1      -4.768   3.576  -0.214  0.00  0.00    +0.262 C 
ATOM     14  O   UNL     1      -3.898   4.358  -0.549  0.00  0.00    -0.268 OA
ATOM     15  H   UNL     1      -6.690   3.331   0.656  0.00  0.00    +0.155 HD
BRANCH  12  20
ATOM     16  C   UNL     1      -6.982   9.611   0.341  0.00  0.00    +0.044 C 
ATOM     17  C   UNL     1      -6.704   8.130   0.323  0.00  0.00    -0.050 A 
ATOM     18  C   UNL     1      -5.954   7.581  -0.701  0.00  0.00    +0.005 A 
ATOM     19  C   UNL     1      -5.698   6.224  -0.721  0.00  0.00    +0.023 A 
ATOM     20  C   UNL     1      -6.195   5.410   0.289  0.00  0.00    +0.034 A 
ATOM     21  C   UNL     1      -6.952   5.964   1.314  0.00  0.00    +0.023 A 
ATOM     22  C   UNL     1      -7.199   7.323   1.331  0.00  0.00    +0.005 A 
ENDBRANCH  12  20
ENDBRANCH   1  13
BRANCH   1  23
ATOM     23  N   UNL     1      -5.579   1.234  -0.052  0.00  0.00    -0.277 N 
ATOM     24  C   UNL     1      -6.089   1.170   1.194  0.00  0.00    +0.249 C 
ATOM     25  O   UNL     1      -5.715   1.954   2.045  0.00  0.00    -0.270 OA
ATOM     26  H   UNL     1      -5.977   0.582  -0.843  0.00  0.00    +0.155 HD
BRANCH  24  27
ATOM     27  C   UNL     1      -7.102   0.147   1.526  0.00  0.00    +0.040 A 
ATOM     28  C   UNL     1      -7.504  -0.781   0.563  0.00  0.00    +0.013 A 
ATOM     29  C   UNL     1      -8.447  -1.736   0.881  0.00  0.00    +0.001 A 
ATOM     30  C   UNL     1      -9.001  -1.770   2.149  0.00  0.00    +0.000 A 
ATOM     31  C   UNL     1      -8.611  -0.851   3.106  0.00  0.00    +0.004 A 
ATOM     32  C   UNL     1      -7.666   0.107   2.803  0.00  0.00    -0.038 A 
ATOM     33  C   UNL     1      -7.242   1.108   3.847  0.00  0.00    +0.044 C 
ENDBRANCH  24  27
ENDBRANCH   1  23
TORSDOF 6
