REMARK  Name = ZINC40626330
REMARK  5 active torsions:
REMARK  status: ('A' for Active; 'I' for Inactive)
REMARK    1  A    between atoms: C_5  and  C_7
REMARK    2  A    between atoms: N_9  and  N_10
REMARK    3  A    between atoms: C_12  and  N_28
REMARK    4  A    between atoms: C_13  and  N_17
REMARK    5  A    between atoms: N_17  and  C_18
REMARK                            x       y       z     vdW  Elec       q    Type
REMARK                         _______ _______ _______ _____ _____    ______ ____
ROOT
ATOM      1  N   UNL     1       0.123  -4.257   0.029  0.00  0.00    -0.246 N 
ATOM      2  C   UNL     1      -1.065  -4.972   0.016  0.00  0.00    +0.171 A 
ATOM      3  C   UNL     1      -1.051  -6.364   0.009  0.00  0.00    +0.207 A 
ATOM      4  C   UNL     1      -2.270  -7.035  -0.004  0.00  0.00    +0.159 A 
ATOM      5  N   UNL     1      -3.398  -6.326  -0.008  0.00  0.00    -0.218 NA
ATOM      6  C   UNL     1      -3.369  -5.009  -0.001  0.00  0.00    +0.225 A 
ATOM      7  N   UNL     1      -2.235  -4.337   0.017  0.00  0.00    -0.217 NA
ATOM      8  H   UNL     1       0.972  -4.727   0.029  0.00  0.00    +0.172 HD
ENDROOT
BRANCH   1  11
ATOM      9  C   UNL     1       1.252  -2.162   0.054  0.00  0.00    +0.263 C 
ATOM     10  O   UNL     1       2.316  -2.750   0.054  0.00  0.00    -0.269 OA
ATOM     11  N   UNL     1       0.098  -2.857   0.042  0.00  0.00    -0.231 N 
ATOM     12  H   UNL     1      -0.751  -2.387   0.042  0.00  0.00    +0.173 HD
BRANCH   9  17
ATOM     13  C   UNL     1      -0.013   1.373   0.081  0.00  0.00    +0.001 A 
ATOM     14  C   UNL     1       1.174   2.086   0.093  0.00  0.00    +0.003 A 
ATOM     15  C   UNL     1       2.387   1.422   0.094  0.00  0.00    +0.039 A 
ATOM     16  C   UNL     1       2.421   0.039   0.081  0.00  0.00    +0.136 A 
ATOM     17  C   UNL     1       1.225  -0.685   0.068  0.00  0.00    +0.073 A 
ATOM     18  C   UNL     1       0.005  -0.005   0.068  0.00  0.00    +0.016 A 
ATOM     19  F   UNL     1       3.607  -0.609   0.081  0.00  0.00    -0.205 F 
ENDBRANCH   9  17
ENDBRANCH   1  11
BRANCH   3  20
ATOM     20  N   UNL     1       0.227  -7.111   0.014  0.00  0.00    +0.063 N 
ATOM     21  O   UNL     1       0.741  -7.422   1.063  0.00  0.00    -0.126 OA
ATOM     22  O   UNL     1       0.756  -7.410  -1.031  0.00  0.00    -0.126 OA
ENDBRANCH   3  20
BRANCH   4  23
ATOM     23  N   UNL     1      -2.310  -8.421  -0.012  0.00  0.00    -0.296 N 
ATOM     24  H   UNL     1      -1.488  -8.930  -0.096  0.00  0.00    +0.154 HD
BRANCH  23  25
ATOM     25  C   UNL     1      -3.533  -9.085   0.101  0.00  0.00    +0.059 A 
ATOM     26  C   UNL     1      -4.603  -8.467   0.711  0.00  0.00    +0.025 A 
ATOM     27  C   UNL     1      -5.828  -9.118   0.830  0.00  0.00    +0.003 A 
ATOM     28  C   UNL     1      -6.001 -10.380   0.347  0.00  0.00    +0.010 A 
ATOM     29  C   UNL     1      -4.934 -11.042  -0.281  0.00  0.00    +0.002 A 
ATOM     30  C   UNL     1      -3.684 -10.391  -0.413  0.00  0.00    +0.092 A 
ATOM     31  N   UNL     1      -2.668 -11.016  -1.014  0.00  0.00    -0.253 NA
ATOM     32  C   UNL     1      -2.802 -12.229  -1.494  0.00  0.00    +0.111 A 
ATOM     33  C   UNL     1      -4.006 -12.925  -1.401  0.00  0.00    +0.020 A 
ATOM     34  C   UNL     1      -5.081 -12.347  -0.789  0.00  0.00    +0.011 A 
ENDBRANCH  23  25
ENDBRANCH   4  23
TORSDOF 5
