REMARK  Name = ZINC06715444
REMARK  3 active torsions:
REMARK  status: ('A' for Active; 'I' for Inactive)
REMARK    1  A    between atoms: C_1  and  C_2
REMARK    2  A    between atoms: C_6  and  N_8
REMARK    3  A    between atoms: N_11  and  C_12
REMARK                            x       y       z     vdW  Elec       q    Type
REMARK                         _______ _______ _______ _____ _____    ______ ____
ROOT
ATOM      1  N   UNL     1       0.169   2.424   4.605  0.00  0.00    -0.254 N 
ATOM      2  C   UNL     1      -0.392   2.966   5.704  0.00  0.00    +0.309 C 
ATOM      3  O   UNL     1      -1.590   3.175   5.735  0.00  0.00    -0.252 OA
ATOM      4  N   UNL     1       0.374   3.276   6.769  0.00  0.00    -0.268 N 
ATOM      5  H   UNL     1       1.110   2.189   4.607  0.00  0.00    +0.158 HD
ATOM      6  H   UNL     1       1.338   3.186   6.715  0.00  0.00    +0.156 HD
ENDROOT
BRANCH   4   7
ATOM      7  C   UNL     1      -0.223   3.728   7.952  0.00  0.00    +0.053 A 
ATOM      8  C   UNL     1      -1.538   3.391   8.241  0.00  0.00    +0.026 A 
ATOM      9  C   UNL     1      -2.124   3.839   9.409  0.00  0.00    +0.017 A 
ATOM     10  C   UNL     1      -1.402   4.622  10.291  0.00  0.00    +0.019 A 
ATOM     11  C   UNL     1      -0.091   4.960  10.007  0.00  0.00    +0.037 A 
ATOM     12  C   UNL     1       0.503   4.510   8.842  0.00  0.00    +0.063 A 
ATOM     13 CL   UNL     1       2.150   4.928   8.489  0.00  0.00    -0.082 Cl
ATOM     14 BR   UNL     1      -2.208   5.233  11.889  0.00  0.00    -0.050 Br
ENDBRANCH   4   7
BRANCH   1  20
ATOM     15  C   UNL     1      -4.152   2.506   2.540  0.00  0.00    +0.065 C 
ATOM     16  C   UNL     1      -2.673   2.231   2.447  0.00  0.00    +0.040 A 
ATOM     17  C   UNL     1      -2.139   1.769   1.260  0.00  0.00    +0.023 A 
ATOM     18  C   UNL     1      -0.775   1.522   1.179  0.00  0.00    +0.005 A 
ATOM     19  C   UNL     1       0.003   1.740   2.303  0.00  0.00    +0.044 A 
ATOM     20  C   UNL     1      -0.603   2.200   3.466  0.00  0.00    +0.126 A 
ATOM     21  N   UNL     1      -1.906   2.429   3.502  0.00  0.00    -0.237 NA
ENDBRANCH   1  20
TORSDOF 2
