REMARK  Name = ZINC36828689
REMARK  5 active torsions:
REMARK  status: ('A' for Active; 'I' for Inactive)
REMARK    1  A    between atoms: C_1  and  C_2
REMARK    2  A    between atoms: C_6  and  C_20
REMARK    3  A    between atoms: C_7  and  N_8
REMARK    4  A    between atoms: N_8  and  S_9
REMARK    5  A    between atoms: S_9  and  C_12
REMARK                            x       y       z     vdW  Elec       q    Type
REMARK                         _______ _______ _______ _____ _____    ______ ____
ROOT
ATOM      1  N   UNL     1      -0.019  -0.187   2.516  0.00  0.00    -0.216 N 
ATOM      2  H   UNL     1      -0.816   0.281   2.812  0.00  0.00    +0.174 HD
ENDROOT
BRANCH   1   9
ATOM      3  C   UNL     1       0.102   1.624   0.326  0.00  0.00    +0.046 C 
ATOM      4  C   UNL     1       0.101   0.131   0.127  0.00  0.00    -0.027 A 
ATOM      5  C   UNL     1       0.166  -0.397  -1.148  0.00  0.00    +0.020 A 
ATOM      6  C   UNL     1       0.166  -1.768  -1.332  0.00  0.00    +0.018 A 
ATOM      7  C   UNL     1       0.100  -2.615  -0.240  0.00  0.00    +0.020 A 
ATOM      8  C   UNL     1       0.034  -2.094   1.037  0.00  0.00    -0.027 A 
ATOM      9  C   UNL     1       0.041  -0.718   1.225  0.00  0.00    +0.054 A 
ATOM     10  C   UNL     1      -0.038  -3.017   2.226  0.00  0.00    +0.046 C 
ATOM     11 BR   UNL     1       0.254  -2.486  -3.079  0.00  0.00    -0.050 Br
ENDBRANCH   1   9
BRANCH   1  12
ATOM     12  S   UNL     1       1.270  -0.356   3.542  0.00  0.00    +0.074 S 
ATOM     13  O   UNL     1       0.906   0.277   4.761  0.00  0.00    -0.150 OA
ATOM     14  O   UNL     1       1.662  -1.721   3.479  0.00  0.00    -0.150 OA
BRANCH  12  15
ATOM     15  C   UNL     1       2.600   0.581   2.865  0.00  0.00    +0.125 A 
ATOM     16  C   UNL     1       3.302   0.100   1.751  0.00  0.00    +0.035 A 
ATOM     17  C   UNL     1       4.329   0.838   1.240  0.00  0.00    +0.072 A 
ATOM     18  C   UNL     1       4.661   2.064   1.842  0.00  0.00    +0.249 A 
ATOM     19  O   UNL     1       5.577   2.735   1.395  0.00  0.00    -0.268 OA
ATOM     20  N   UNL     1       3.968   2.499   2.912  0.00  0.00    -0.327 N 
ATOM     21  H   UNL     1       4.202   3.346   3.322  0.00  0.00    +0.168 HD
ATOM     22  C   UNL     1       2.942   1.768   3.418  0.00  0.00    +0.114 A 
ENDBRANCH  12  15
ENDBRANCH   1  12
TORSDOF 3
