REMARK  Name = ZINC44994697
REMARK  3 active torsions:
REMARK  status: ('A' for Active; 'I' for Inactive)
REMARK    1  A    between atoms: C_13  and  C_15
REMARK    2  A    between atoms: C_15  and  N_16
REMARK    3  A    between atoms: N_19  and  C_20
REMARK                            x       y       z     vdW  Elec       q    Type
REMARK                         _______ _______ _______ _____ _____    ______ ____
ROOT
ATOM      1  C   UNL     1      -0.002   1.532   0.027  0.00  0.00    +0.000 C 
ATOM      2  C   UNL     1       1.431   2.065   0.012  0.00  0.00    +0.002 C 
ATOM      3  C   UNL     1       2.161   1.563  -1.237  0.00  0.00    +0.023 C 
ATOM      4  C   UNL     1       2.176   0.035  -1.224  0.00  0.00    +0.079 C 
ATOM      5  C   UNL     1       0.733  -0.480  -1.245  0.00  0.00    +0.010 C 
ATOM      6  C   UNL     1       0.013   0.000   0.014  0.00  0.00    +0.005 C 
ATOM      7  C   UNL     1       0.748  -2.007  -1.302  0.00  0.00    +0.007 C 
ATOM      8  C   UNL     1       1.434  -2.456  -2.595  0.00  0.00    +0.019 C 
ATOM      9  C   UNL     1       2.877  -1.944  -2.618  0.00  0.00    +0.108 C 
ATOM     10  N   UNL     1       2.876  -0.483  -2.404  0.00  0.00    -0.297 N 
ATOM     11  C   UNL     1       3.501   0.349  -3.260  0.00  0.00    +0.233 C 
ATOM     12  O   UNL     1       3.408   1.550  -3.114  0.00  0.00    -0.274 OA
ENDROOT
BRANCH  11  13
ATOM     13  C   UNL     1       4.315  -0.211  -4.397  0.00  0.00    +0.201 C 
BRANCH  13  14
ATOM     14  N   UNL     1       4.888   0.890  -5.177  0.00  0.00    -0.291 N 
ATOM     15  C   UNL     1       5.659   0.626  -6.250  0.00  0.00    +0.300 C 
ATOM     16  O   UNL     1       5.879  -0.526  -6.572  0.00  0.00    -0.253 OA
ATOM     17  N   UNL     1       6.185   1.638  -6.967  0.00  0.00    -0.297 N 
ATOM     18  H   UNL     1       4.712   1.808  -4.920  0.00  0.00    +0.151 HD
ATOM     19  H   UNL     1       6.009   2.557  -6.711  0.00  0.00    +0.151 HD
BRANCH  17  20
ATOM     20  C   UNL     1       7.023   1.351  -8.134  0.00  0.00    +0.075 C 
ATOM     21  C   UNL     1       8.306   2.168  -8.301  0.00  0.00    +0.024 C 
ATOM     22  C   UNL     1       7.111   2.423  -9.222  0.00  0.00    +0.024 C 
ENDBRANCH  17  20
ENDBRANCH  13  14
ENDBRANCH  11  13
TORSDOF 3
