REMARK  Name = ZINC17251261
REMARK  6 active torsions:
REMARK  status: ('A' for Active; 'I' for Inactive)
REMARK    1  A    between atoms: C_1  and  O_2
REMARK    2  A    between atoms: O_2  and  C_3
REMARK    3  A    between atoms: C_8  and  N_9
REMARK    4  A    between atoms: C_13  and  N_14
REMARK    5  A    between atoms: N_14  and  C_15
REMARK    6  A    between atoms: C_20  and  N_21
REMARK                            x       y       z     vdW  Elec       q    Type
REMARK                         _______ _______ _______ _____ _____    ______ ____
ROOT
ATOM      1  N   UNL     1      -0.093  -2.813  -0.012  0.00  0.00    -0.214 N 
ATOM      2  C   UNL     1       0.475  -3.173   1.157  0.00  0.00    +0.263 C 
ATOM      3  O   UNL     1      -0.038  -2.873   2.220  0.00  0.00    -0.269 OA
ATOM      4  C   UNL     1       1.733  -3.939   1.114  0.00  0.00    +0.113 C 
ATOM      5  C   UNL     1       2.372  -4.343   2.272  0.00  0.00    +0.090 C 
ATOM      6  C   UNL     1       2.279  -4.256  -0.218  0.00  0.00    +0.256 C 
ATOM      7  O   UNL     1       3.314  -4.886  -0.335  0.00  0.00    -0.270 OA
ATOM      8  N   UNL     1       1.601  -3.830  -1.303  0.00  0.00    -0.263 N 
ATOM      9  C   UNL     1       0.458  -3.141  -1.189  0.00  0.00    +0.151 C 
ATOM     10  S   UNL     1      -0.338  -2.647  -2.622  0.00  0.00    -0.018 S 
ATOM     11  H   UNL     1       1.948  -4.030  -2.187  0.00  0.00    +0.157 HD
ENDROOT
BRANCH   1  17
ATOM     12  C   UNL     1      -1.260  -0.691   0.019  0.00  0.00    +0.142 A 
ATOM     13  C   UNL     1      -2.447   0.025   0.029  0.00  0.00    +0.047 A 
ATOM     14  C   UNL     1      -3.657  -0.642   0.030  0.00  0.00    +0.004 A 
ATOM     15  C   UNL     1      -3.688  -2.025   0.021  0.00  0.00    +0.002 A 
ATOM     16  C   UNL     1      -2.510  -2.746   0.012  0.00  0.00    +0.027 A 
ATOM     17  C   UNL     1      -1.291  -2.083   0.005  0.00  0.00    +0.085 A 
BRANCH  12  19
ATOM     18  C   UNL     1      -0.115   1.393   0.034  0.00  0.00    +0.277 C 
ATOM     19  O   UNL     1      -0.069  -0.035   0.019  0.00  0.00    -0.493 OA
ENDBRANCH  12  19
ENDBRANCH   1  17
BRANCH   5  20
ATOM     20  N   UNL     1       3.452  -5.148   2.200  0.00  0.00    -0.318 N 
ATOM     21  H   UNL     1       3.826  -5.381   1.336  0.00  0.00    +0.152 HD
BRANCH  20  22
ATOM     22  C   UNL     1       4.032  -5.647   3.372  0.00  0.00    +0.052 A 
ATOM     23  C   UNL     1       3.495  -5.319   4.608  0.00  0.00    +0.025 A 
ATOM     24  C   UNL     1       4.069  -5.813   5.764  0.00  0.00    +0.002 A 
ATOM     25  C   UNL     1       5.180  -6.634   5.693  0.00  0.00    +0.002 A 
ATOM     26  C   UNL     1       5.722  -6.966   4.466  0.00  0.00    +0.025 A 
ATOM     27  C   UNL     1       5.149  -6.480   3.300  0.00  0.00    +0.051 A 
BRANCH  27  28
ATOM     28  N   UNL     1       5.692  -6.819   2.057  0.00  0.00    -0.324 N 
ATOM     29  C   UNL     1       6.746  -5.998   1.441  0.00  0.00    +0.133 C 
ATOM     30  C   UNL     1       7.897  -6.921   1.025  0.00  0.00    +0.178 C 
ATOM     31  O   UNL     1       7.379  -7.990   0.229  0.00  0.00    -0.377 OA
ATOM     32  C   UNL     1       6.451  -8.834   0.915  0.00  0.00    +0.178 C 
ATOM     33  C   UNL     1       5.230  -8.012   1.328  0.00  0.00    +0.133 C 
ENDBRANCH  27  28
ENDBRANCH  20  22
ENDBRANCH   5  20
TORSDOF 5
