REMARK  Name = ZINC67119337
REMARK  9 active torsions:
REMARK  status: ('A' for Active; 'I' for Inactive)
REMARK    1  A    between atoms: C_1  and  C_2
REMARK    2  A    between atoms: C_2  and  N_3
REMARK    3  A    between atoms: N_3  and  C_4
REMARK    4  A    between atoms: C_4  and  C_5
REMARK    5  A    between atoms: C_6  and  C_8
REMARK    6  A    between atoms: N_11  and  C_14
REMARK    7  A    between atoms: C_14  and  C_16
REMARK    8  A    between atoms: C_14  and  C_17
REMARK    9  A    between atoms: C_23  and  C_26
REMARK                            x       y       z     vdW  Elec       q    Type
REMARK                         _______ _______ _______ _____ _____    ______ ____
ROOT
ATOM      1  C   UNL     1       0.323  -1.697   6.239  0.00  0.00    +0.016 C 
ATOM      2  C   UNL     1       0.205  -0.354   6.963  0.00  0.00    -0.004 C 
ENDROOT
BRANCH   1   3
ATOM      3  C   UNL     1      -0.351  -2.769   7.056  0.00  0.00    +0.202 C 
ATOM      4  O   UNL     1      -1.524  -3.020   6.877  0.00  0.00    -0.277 OA
ATOM      5  N   UNL     1       0.349  -3.448   7.986  0.00  0.00    -0.302 N 
ATOM      6  C   UNL     1       1.742  -3.087   8.286  0.00  0.00    +0.108 C 
ATOM      7  C   UNL     1       1.876  -2.852   9.794  0.00  0.00    +0.020 C 
ATOM      8  C   UNL     1       1.370  -4.086  10.546  0.00  0.00    +0.016 C 
ATOM      9  C   UNL     1      -0.108  -4.312  10.222  0.00  0.00    +0.092 C 
ATOM     10  C   UNL     1      -0.267  -4.559   8.723  0.00  0.00    +0.120 C 
BRANCH   9  11
ATOM     11  C   UNL     1      -0.614  -5.507  10.988  0.00  0.00    +0.215 C 
ATOM     12  O   UNL     1      -1.059  -6.465  10.393  0.00  0.00    -0.276 OA
ATOM     13  N   UNL     1      -0.572  -5.511  12.335  0.00  0.00    -0.329 N 
ATOM     14  H   UNL     1      -0.216  -4.745  12.812  0.00  0.00    +0.145 HD
ATOM     15  H   UNL     1      -0.897  -6.280  12.828  0.00  0.00    +0.145 HD
ENDBRANCH   9  11
ENDBRANCH   1   3
BRANCH   1  19
ATOM     16  C   UNL     1      -0.319  -1.622   2.027  0.00  0.00    +0.072 C 
ATOM     17  C   UNL     1      -0.471  -0.330   2.836  0.00  0.00    -0.006 C 
ATOM     18  C   UNL     1       0.256  -0.483   4.173  0.00  0.00    -0.077 C 
ATOM     19  N   UNL     1      -0.325  -1.603   4.924  0.00  0.00    +0.387 N 
ATOM     20  C   UNL     1      -0.118  -2.856   4.188  0.00  0.00    -0.077 C 
ATOM     21  C   UNL     1      -0.860  -2.795   2.851  0.00  0.00    -0.006 C 
ATOM     22  H   UNL     1      -1.313  -1.446   5.049  0.00  0.00    -0.081 HD
BRANCH  16  24
ATOM     23  N   UNL     1      -0.550  -0.893  -0.325  0.00  0.00    -0.302 N 
ATOM     24  C   UNL     1      -1.097  -1.507   0.742  0.00  0.00    +0.219 C 
ATOM     25  O   UNL     1      -2.217  -1.968   0.668  0.00  0.00    -0.275 OA
BRANCH  23  27
ATOM     26  C   UNL     1      -0.931  -2.175  -2.373  0.00  0.00    +0.024 C 
ATOM     27  C   UNL     1      -1.254  -0.889  -1.609  0.00  0.00    +0.104 C 
ENDBRANCH  23  27
BRANCH  23  28
ATOM     28  C   UNL     1       0.750  -0.229  -0.201  0.00  0.00    +0.104 C 
ATOM     29  C   UNL     1       0.540   1.275  -0.015  0.00  0.00    +0.024 C 
ENDBRANCH  23  28
ENDBRANCH  16  24
ENDBRANCH   1  19
TORSDOF 6
