REMARK  Name = ZINC01921656
REMARK  3 active torsions:
REMARK  status: ('A' for Active; 'I' for Inactive)
REMARK    1  A    between atoms: C_1  and  N_2
REMARK    2  A    between atoms: C_6  and  N_20
REMARK    3  A    between atoms: N_7  and  C_10
REMARK                            x       y       z     vdW  Elec       q    Type
REMARK                         _______ _______ _______ _____ _____    ______ ____
ROOT
ATOM      1  C   UNL     1      -0.144   5.564   0.031  0.00  0.00    +0.157 C 
ATOM      2  N   UNL     1      -0.090   4.101   0.024  0.00  0.00    -0.264 N 
ATOM      3  C   UNL     1       1.105   3.476   0.010  0.00  0.00    +0.258 A 
ATOM      4  O   UNL     1       2.136   4.126   0.004  0.00  0.00    -0.267 OA
ATOM      5  C   UNL     1       1.154   2.073   0.002  0.00  0.00    +0.112 A 
ATOM      6  C   UNL     1      -0.017   1.368   0.010  0.00  0.00    +0.110 A 
ATOM      7  N   UNL     1      -1.214   2.046   0.019  0.00  0.00    -0.250 N 
ATOM      8  C   UNL     1      -1.233   3.391   0.031  0.00  0.00    +0.338 A 
ATOM      9  O   UNL     1      -2.300   3.974   0.044  0.00  0.00    -0.246 OA
ENDROOT
BRANCH   7  10
ATOM     10  C   UNL     1      -2.416   1.333   0.021  0.00  0.00    +0.060 A 
ATOM     11  C   UNL     1      -3.006   0.967   1.211  0.00  0.00    +0.027 A 
ATOM     12  C   UNL     1      -4.206   0.262   1.224  0.00  0.00    +0.003 A 
ATOM     13  C   UNL     1      -4.824  -0.095   0.065  0.00  0.00    +0.008 A 
ATOM     14  C   UNL     1      -4.253   0.254  -1.171  0.00  0.00    -0.016 A 
ATOM     15  C   UNL     1      -3.034   0.977  -1.196  0.00  0.00    +0.006 A 
ATOM     16  C   UNL     1      -2.465   1.325  -2.432  0.00  0.00    +0.010 A 
ATOM     17  C   UNL     1      -3.089   0.964  -3.587  0.00  0.00    +0.001 A 
ATOM     18  C   UNL     1      -4.288   0.253  -3.563  0.00  0.00    +0.001 A 
ATOM     19  C   UNL     1      -4.868  -0.101  -2.384  0.00  0.00    +0.008 A 
ENDBRANCH   7  10
BRANCH   6  20
ATOM     20  N   UNL     1       0.002  -0.004   0.002  0.00  0.00    -0.344 N 
ATOM     21  H   UNL     1       0.849  -0.478  -0.009  0.00  0.00    +0.144 HD
ATOM     22  H   UNL     1      -0.831  -0.500   0.007  0.00  0.00    +0.144 HD
ENDBRANCH   6  20
TORSDOF 2
