REMARK  Name = ZINC65322866
REMARK  7 active torsions:
REMARK  status: ('A' for Active; 'I' for Inactive)
REMARK    1  A    between atoms: C_1  and  C_2
REMARK    2  A    between atoms: C_6  and  C_29
REMARK    3  A    between atoms: C_7  and  N_8
REMARK    4  A    between atoms: N_8  and  C_9
REMARK    5  A    between atoms: C_9  and  C_10
REMARK    6  A    between atoms: N_20  and  C_21
REMARK    7  A    between atoms: C_21  and  C_22
REMARK                            x       y       z     vdW  Elec       q    Type
REMARK                         _______ _______ _______ _____ _____    ______ ____
ROOT
ATOM      1  C   UNL     1       1.938  -0.470   4.578  0.00  0.00    +0.067 A 
ATOM      2  C   UNL     1       1.929  -0.949   5.886  0.00  0.00    +0.097 A 
ATOM      3  C   UNL     1       2.596  -0.250   6.857  0.00  0.00    +0.276 A 
ATOM      4  O   UNL     1       2.606  -0.690   8.136  0.00  0.00    -0.266 OA
ATOM      5  N   UNL     1       3.249   0.894   6.513  0.00  0.00    -0.158 N 
ATOM      6  C   UNL     1       3.235   1.331   5.218  0.00  0.00    +0.258 A 
ATOM      7  N   UNL     1       2.585   0.637   4.278  0.00  0.00    -0.214 NA
ATOM      8  N   UNL     1       3.942   2.456   5.173  0.00  0.00    -0.176 NA
ATOM      9  C   UNL     1       4.403   2.746   6.388  0.00  0.00    +0.237 A 
ATOM     10  N   UNL     1       4.006   1.823   7.239  0.00  0.00    -0.125 NA
ATOM     11  N   UNL     1       5.183   3.854   6.710  0.00  0.00    -0.308 N 
ATOM     12  H   UNL     1       5.478   3.991   7.623  0.00  0.00    +0.149 HD
ENDROOT
BRANCH   1  13
ATOM     13  C   UNL     1       1.210  -1.228   3.498  0.00  0.00    +0.157 C 
BRANCH  13  14
ATOM     14  N   UNL     1       1.372  -0.533   2.219  0.00  0.00    -0.338 N 
ATOM     15  H   UNL     1       1.999   0.204   2.143  0.00  0.00    +0.146 HD
BRANCH  14  22
ATOM     16  C   UNL     1       0.797   1.412   0.223  0.00  0.00    +0.045 C 
ATOM     17  C   UNL     1       0.320  -0.013   0.110  0.00  0.00    -0.029 A 
ATOM     18  C   UNL     1      -0.415  -0.410  -0.990  0.00  0.00    +0.005 A 
ATOM     19  C   UNL     1      -0.854  -1.718  -1.095  0.00  0.00    +0.001 A 
ATOM     20  C   UNL     1      -0.557  -2.632  -0.100  0.00  0.00    +0.005 A 
ATOM     21  C   UNL     1       0.178  -2.241   1.002  0.00  0.00    -0.029 A 
ATOM     22  C   UNL     1       0.624  -0.930   1.108  0.00  0.00    +0.033 A 
ATOM     23  C   UNL     1       0.500  -3.238   2.086  0.00  0.00    +0.045 C 
ENDBRANCH  14  22
ENDBRANCH  13  14
ENDBRANCH   1  13
BRANCH  11  24
ATOM     24  C   UNL     1       5.559   4.812   5.667  0.00  0.00    +0.139 C 
BRANCH  24  25
ATOM     25  C   UNL     1       6.396   5.909   6.272  0.00  0.00    -0.030 A 
ATOM     26  C   UNL     1       5.788   7.043   6.779  0.00  0.00    +0.006 A 
ATOM     27  C   UNL     1       6.556   8.050   7.334  0.00  0.00    +0.020 A 
ATOM     28  C   UNL     1       7.933   7.923   7.381  0.00  0.00    +0.041 A 
ATOM     29  C   UNL     1       8.541   6.788   6.874  0.00  0.00    +0.020 A 
ATOM     30  C   UNL     1       7.771   5.779   6.324  0.00  0.00    +0.006 A 
ATOM     31 CL   UNL     1       8.898   9.187   8.077  0.00  0.00    -0.084 Cl
ENDBRANCH  24  25
ENDBRANCH  11  24
TORSDOF 5
