REMARK  Name = ZINC65118423
REMARK  9 active torsions:
REMARK  status: ('A' for Active; 'I' for Inactive)
REMARK    1  A    between atoms: C_1  and  C_2
REMARK    2  A    between atoms: C_2  and  C_3
REMARK    3  A    between atoms: C_2  and  N_4
REMARK    4  A    between atoms: C_5  and  C_7
REMARK    5  A    between atoms: C_8  and  N_23
REMARK    6  A    between atoms: C_9  and  C_12
REMARK    7  A    between atoms: N_17  and  C_20
REMARK    8  A    between atoms: C_20  and  C_21
REMARK    9  A    between atoms: C_20  and  C_22
REMARK                            x       y       z     vdW  Elec       q    Type
REMARK                         _______ _______ _______ _____ _____    ______ ____
ROOT
ATOM      1  C   UNL     1      -3.622  -1.016  -0.939  0.00  0.00    +0.156 A 
ATOM      2  C   UNL     1      -4.514  -0.802  -1.988  0.00  0.00    +0.076 A 
ATOM      3  C   UNL     1      -5.420  -1.848  -2.168  0.00  0.00    +0.115 A 
ATOM      4  S   UNL     1      -4.922  -2.971  -0.878  0.00  0.00    +0.019 S 
ATOM      5  N   UNL     1      -3.697  -2.130  -0.241  0.00  0.00    -0.203 NA
ENDROOT
BRANCH   3   6
ATOM      6  C   UNL     1      -6.494  -1.986  -3.154  0.00  0.00    +0.257 C 
ATOM      7  O   UNL     1      -6.291  -1.698  -4.319  0.00  0.00    -0.269 OA
ATOM      8  N   UNL     1      -7.707  -2.431  -2.771  0.00  0.00    -0.295 N 
ATOM      9  C   UNL     1      -7.976  -2.778  -1.368  0.00  0.00    +0.123 C 
ATOM     10  C   UNL     1      -9.248  -2.050  -0.921  0.00  0.00    +0.103 C 
ATOM     11  N   UNL     1     -10.338  -2.357  -1.856  0.00  0.00    -0.297 NA
ATOM     12  C   UNL     1     -10.038  -1.861  -3.206  0.00  0.00    +0.103 C 
ATOM     13  C   UNL     1      -8.800  -2.576  -3.745  0.00  0.00    +0.123 C 
BRANCH  11  14
ATOM     14  C   UNL     1     -11.616  -1.819  -1.370  0.00  0.00    +0.051 C 
ATOM     15  C   UNL     1     -12.725  -2.158  -2.368  0.00  0.00    +0.024 C 
ATOM     16  C   UNL     1     -11.946  -2.438  -0.011  0.00  0.00    +0.024 C 
ENDBRANCH  11  14
ENDBRANCH   3   6
BRANCH   1  18
ATOM     17  N   UNL     1      -1.816  -0.160   0.470  0.00  0.00    -0.308 N 
ATOM     18  C   UNL     1      -2.599  -0.004  -0.616  0.00  0.00    +0.265 C 
ATOM     19  O   UNL     1      -2.462   0.971  -1.329  0.00  0.00    -0.268 OA
ATOM     20  H   UNL     1      -1.925  -0.938   1.039  0.00  0.00    +0.149 HD
BRANCH  17  22
ATOM     21  C   UNL     1      -1.439   1.978   1.595  0.00  0.00    +0.027 C 
ATOM     22  C   UNL     1      -0.800   0.845   0.790  0.00  0.00    +0.067 C 
ATOM     23  C   UNL     1       0.315   0.199   1.615  0.00  0.00    +0.027 C 
ENDBRANCH  17  22
ENDBRANCH   1  18
BRANCH   2  24
ATOM     24  N   UNL     1      -4.503   0.340  -2.777  0.00  0.00    -0.355 N 
ATOM     25  H   UNL     1      -3.792   0.993  -2.675  0.00  0.00    +0.142 HD
ATOM     26  H   UNL     1      -5.205   0.486  -3.429  0.00  0.00    +0.142 HD
ENDBRANCH   2  24
TORSDOF 5
