REMARK  Name = ZINC61389527
REMARK  4 active torsions:
REMARK  status: ('A' for Active; 'I' for Inactive)
REMARK    1  A    between atoms: C_1  and  C_2
REMARK    2  A    between atoms: C_22  and  C_24
REMARK    3  A    between atoms: C_22  and  O_26
REMARK    4  A    between atoms: C_24  and  O_25
REMARK                            x       y       z     vdW  Elec       q    Type
REMARK                         _______ _______ _______ _____ _____    ______ ____
ROOT
ATOM      1  C   UNL     1      -0.019   1.537   0.011  0.00  0.00    +0.012 C 
ATOM      2  C   UNL     1       0.002  -0.004   0.002  0.00  0.00    -0.021 C 
ATOM      3  C   UNL     1      -1.433  -0.510   0.048  0.00  0.00    +0.015 C 
ATOM      4  C   UNL     1      -2.227   0.200   1.155  0.00  0.00    +0.075 C 
ATOM      5  C   UNL     1      -1.419   0.142   2.429  0.00  0.00    +0.108 A 
ATOM      6  C   UNL     1      -0.101  -0.138   2.469  0.00  0.00    -0.003 A 
ATOM      7  C   UNL     1       0.290  -0.091   3.820  0.00  0.00    +0.045 A 
ATOM      8  C   UNL     1      -0.814   0.212   4.532  0.00  0.00    +0.195 A 
ATOM      9  O   UNL     1      -1.845   0.348   3.681  0.00  0.00    -0.468 OA
ATOM     10  C   UNL     1       0.755  -0.439   1.266  0.00  0.00    +0.029 C 
ATOM     11  C   UNL     1       1.049  -1.939   1.225  0.00  0.00    +0.009 C 
ATOM     12  C   UNL     1       1.955  -2.239   0.027  0.00  0.00    +0.008 C 
ATOM     13  C   UNL     1       1.221  -1.874  -1.249  0.00  0.00    -0.023 C 
ATOM     14  C   UNL     1       0.740  -0.431  -1.248  0.00  0.00    +0.002 C 
ATOM     15  C   UNL     1       0.034  -0.088  -2.546  0.00  0.00    +0.005 C 
ATOM     16  C   UNL     1      -0.815  -1.196  -3.138  0.00  0.00    +0.007 C 
ATOM     17  C   UNL     1      -0.207  -2.588  -3.015  0.00  0.00    +0.024 C 
ATOM     18  C   UNL     1       0.032  -2.825  -1.493  0.00  0.00    +0.013 C 
ATOM     19  C   UNL     1       1.225  -2.651  -3.582  0.00  0.00    +0.092 C 
ATOM     20  C   UNL     1       2.131  -2.058  -2.484  0.00  0.00    +0.044 C 
ENDROOT
BRANCH  19  21
ATOM     21  O   UNL     1       1.589  -4.024  -3.801  0.00  0.00    -0.386 OA
ATOM     22  H   UNL     1       2.479  -4.142  -4.158  0.00  0.00    +0.210 HD
ENDBRANCH  19  21
BRANCH  19  23
ATOM     23  C   UNL     1       1.363  -1.880  -4.890  0.00  0.00    +0.190 C 
BRANCH  23  24
ATOM     24  O   UNL     1       2.708  -1.978  -5.361  0.00  0.00    -0.392 OA
ATOM     25  H   UNL     1       2.869  -1.510  -6.192  0.00  0.00    +0.210 HD
ENDBRANCH  23  24
ENDBRANCH  19  23
TORSDOF 3
