REMARK  Name = ZINC53069584
REMARK  9 active torsions:
REMARK  status: ('A' for Active; 'I' for Inactive)
REMARK    1  A    between atoms: C_4  and  O_8
REMARK    2  A    between atoms: O_8  and  C_9
REMARK    3  A    between atoms: C_9  and  C_10
REMARK    4  A    between atoms: C_10  and  C_12
REMARK    5  A    between atoms: C_10  and  O_21
REMARK    6  A    between atoms: C_12  and  N_13
REMARK    7  A    between atoms: N_13  and  C_14
REMARK    8  A    between atoms: C_14  and  C_19
REMARK    9  A    between atoms: C_19  and  O_20
REMARK                            x       y       z     vdW  Elec       q    Type
REMARK                         _______ _______ _______ _____ _____    ______ ____
ROOT
ATOM      1  C   UNL     1       5.489  -1.693   1.012  0.00  0.00    +0.135 C 
ENDROOT
BRANCH   1   2
ATOM      2  O   UNL     1       5.235  -2.950   0.381  0.00  0.00    -0.390 OA
ATOM      3  H   UNL     1       4.661  -3.538   0.891  0.00  0.00    +0.210 HD
ENDBRANCH   1   2
BRANCH   1   4
ATOM      4  C   UNL     1       4.167  -0.955   1.230  0.00  0.00    +0.258 C 
BRANCH   4   5
ATOM      5  O   UNL     1       3.587  -0.632  -0.036  0.00  0.00    -0.487 OA
BRANCH   5   9
ATOM      6  C   UNL     1      -0.017   1.378   0.010  0.00  0.00    +0.003 A 
ATOM      7  C   UNL     1       1.170   2.088   0.002  0.00  0.00    +0.024 A 
ATOM      8  C   UNL     1       2.378   1.418  -0.013  0.00  0.00    +0.084 A 
ATOM      9  C   UNL     1       2.400   0.030  -0.021  0.00  0.00    +0.157 A 
ATOM     10  C   UNL     1       1.208  -0.680  -0.013  0.00  0.00    +0.084 A 
ATOM     11  C   UNL     1       0.002  -0.004   0.002  0.00  0.00    +0.024 A 
ATOM     12 CL   UNL     1       1.230  -2.416  -0.023  0.00  0.00    -0.080 Cl
ATOM     13 CL   UNL     1       3.867   2.310  -0.023  0.00  0.00    -0.080 Cl
ENDBRANCH   5   9
ENDBRANCH   4   5
ENDBRANCH   1   4
BRANCH   1  14
ATOM     14  C   UNL     1       6.170  -1.929   2.362  0.00  0.00    -0.047 C 
BRANCH  14  15
ATOM     15  N   UNL     1       7.493  -2.529   2.145  0.00  0.00    +0.386 N 
ATOM     16  H   UNL     1       7.388  -3.409   1.663  0.00  0.00    -0.085 HD
ATOM     17  H   UNL     1       8.058  -1.906   1.588  0.00  0.00    -0.085 HD
BRANCH  15  18
ATOM     18  C   UNL     1       8.146  -2.755   3.441  0.00  0.00    -0.045 C 
ATOM     19  C   UNL     1       8.377  -1.413   4.157  0.00  0.00    -0.010 C 
ATOM     20  C   UNL     1       9.901  -1.274   4.354  0.00  0.00    -0.001 C 
ATOM     21  C   UNL     1      10.510  -2.180   3.254  0.00  0.00    -0.001 C 
ATOM     22  C   UNL     1       9.538  -3.386   3.228  0.00  0.00    -0.010 C 
BRANCH  18  23
ATOM     23  C   UNL     1       7.283  -3.672   4.310  0.00  0.00    +0.143 C 
BRANCH  23  24
ATOM     24  O   UNL     1       7.929  -3.884   5.567  0.00  0.00    -0.396 OA
ATOM     25  H   UNL     1       7.437  -4.457   6.170  0.00  0.00    +0.209 HD
ENDBRANCH  23  24
ENDBRANCH  18  23
ENDBRANCH  15  18
ENDBRANCH  14  15
ENDBRANCH   1  14
TORSDOF 9
