REMARK  Name = ZINC67543152
REMARK  7 active torsions:
REMARK  status: ('A' for Active; 'I' for Inactive)
REMARK    1  A    between atoms: C_1  and  C_2
REMARK    2  A    between atoms: C_2  and  C_4
REMARK    3  A    between atoms: C_2  and  N_12
REMARK    4  A    between atoms: N_15  and  C_16
REMARK    5  A    between atoms: N_21  and  C_25
REMARK    6  A    between atoms: C_25  and  C_26
REMARK    7  A    between atoms: C_25  and  C_27
REMARK                            x       y       z     vdW  Elec       q    Type
REMARK                         _______ _______ _______ _____ _____    ______ ____
ROOT
ATOM      1  N   UNL     1       0.348  -0.486  -1.120  0.00  0.00    -0.288 N 
ATOM      2  C   UNL     1      -0.296  -0.793  -2.264  0.00  0.00    +0.304 C 
ATOM      3  O   UNL     1      -1.476  -0.527  -2.387  0.00  0.00    -0.252 OA
ATOM      4  N   UNL     1       0.368  -1.395  -3.271  0.00  0.00    -0.268 N 
ATOM      5  H   UNL     1       1.290  -0.699  -1.022  0.00  0.00    +0.151 HD
ATOM      6  H   UNL     1       1.323  -1.548  -3.198  0.00  0.00    +0.156 HD
ENDROOT
BRANCH   4   7
ATOM      7  C   UNL     1      -0.322  -1.799  -4.422  0.00  0.00    +0.054 A 
ATOM      8  C   UNL     1      -1.379  -1.044  -4.906  0.00  0.00    +0.038 A 
ATOM      9  C   UNL     1      -2.033  -1.492  -6.059  0.00  0.00    +0.040 A 
ATOM     10  C   UNL     1      -3.152  -0.994  -6.851  0.00  0.00    +0.144 A 
ATOM     11  N   UNL     1      -3.340  -1.825  -7.837  0.00  0.00    -0.177 NA
ATOM     12  N   UNL     1      -2.412  -2.868  -7.769  0.00  0.00    -0.244 N 
ATOM     13  C   UNL     1      -1.600  -2.680  -6.682  0.00  0.00    +0.159 A 
ATOM     14  N   UNL     1      -0.581  -3.363  -6.175  0.00  0.00    -0.234 NA
ATOM     15  C   UNL     1       0.053  -2.960  -5.096  0.00  0.00    +0.136 A 
BRANCH  12  16
ATOM     16  C   UNL     1      -2.322  -3.987  -8.711  0.00  0.00    +0.103 C 
ATOM     17  C   UNL     1      -3.639  -4.765  -8.705  0.00  0.00    +0.032 C 
ATOM     18  C   UNL     1      -2.054  -3.449 -10.118  0.00  0.00    +0.032 C 
ENDBRANCH  12  16
ENDBRANCH   4   7
BRANCH   1  20
ATOM     19  C   UNL     1      -0.383   1.681  -0.254  0.00  0.00    +0.038 C 
ATOM     20  C   UNL     1      -0.373   0.168  -0.026  0.00  0.00    +0.157 C 
BRANCH  20  21
ATOM     21  C   UNL     1       0.311  -0.139   1.281  0.00  0.00    +0.236 C 
ATOM     22  O   UNL     1       1.489  -0.430   1.296  0.00  0.00    -0.274 OA
ATOM     23  N   UNL     1      -0.385  -0.090   2.434  0.00  0.00    -0.298 N 
ATOM     24  C   UNL     1      -1.827   0.157   2.398  0.00  0.00    +0.118 C 
ATOM     25  C   UNL     1      -2.570  -1.087   2.899  0.00  0.00    +0.088 C 
ATOM     26  S   UNL     1      -1.981  -1.482   4.573  0.00  0.00    -0.158 S 
ATOM     27  C   UNL     1      -0.178  -1.580   4.364  0.00  0.00    +0.088 C 
ATOM     28  C   UNL     1       0.310  -0.289   3.707  0.00  0.00    +0.118 C 
ENDBRANCH  20  21
ENDBRANCH   1  20
TORSDOF 4
