REMARK  Name = ZINC51036325
REMARK  7 active torsions:
REMARK  status: ('A' for Active; 'I' for Inactive)
REMARK    1  A    between atoms: C_1  and  C_2
REMARK    2  A    between atoms: C_2  and  C_3
REMARK    3  A    between atoms: C_3  and  C_5
REMARK    4  A    between atoms: C_3  and  N_24
REMARK    5  A    between atoms: C_5  and  C_7
REMARK    6  A    between atoms: C_5  and  S_13
REMARK    7  A    between atoms: S_13  and  C_14
REMARK                            x       y       z     vdW  Elec       q    Type
REMARK                         _______ _______ _______ _____ _____    ______ ____
ROOT
ATOM      1  C   UNL     1      -1.404  -2.113  -0.158  0.00  0.00    +0.087 C 
ENDROOT
BRANCH   1   2
ATOM      2  C   UNL     1      -0.796  -2.502  -1.481  0.00  0.00    +0.053 A 
ATOM      3  C   UNL     1       0.300  -3.344  -1.509  0.00  0.00    +0.024 A 
ATOM      4  C   UNL     1       0.851  -3.695  -2.731  0.00  0.00    +0.003 A 
ATOM      5  C   UNL     1       0.277  -3.184  -3.886  0.00  0.00    +0.020 A 
ATOM      6  C   UNL     1      -0.818  -2.348  -3.780  0.00  0.00    +0.111 A 
ATOM      7  N   UNL     1      -1.320  -2.039  -2.599  0.00  0.00    -0.259 NA
ENDBRANCH   1   2
BRANCH   1   8
ATOM      8  C   UNL     1      -1.461  -0.588  -0.051  0.00  0.00    -0.056 C 
BRANCH   8   9
ATOM      9  N   UNL     1      -2.146  -0.209   1.192  0.00  0.00    +0.381 N 
ATOM     10  H   UNL     1      -2.251   0.793   1.226  0.00  0.00    -0.090 HD
ATOM     11  H   UNL     1      -3.056  -0.644   1.220  0.00  0.00    -0.090 HD
ATOM     12  H   UNL     1      -1.601  -0.518   1.984  0.00  0.00    -0.090 HD
ENDBRANCH   8   9
BRANCH   8  14
ATOM     13  C   UNL     1      -0.096   1.505  -0.060  0.00  0.00    +0.002 C 
ATOM     14  C   UNL     1      -0.038  -0.024  -0.041  0.00  0.00    -0.018 C 
ENDBRANCH   8  14
ENDBRANCH   1   8
BRANCH   1  15
ATOM     15  S   UNL     1      -3.082  -2.791  -0.041  0.00  0.00    -0.096 S 
BRANCH  15  16
ATOM     16  C   UNL     1      -2.832  -4.531   0.074  0.00  0.00    +0.126 A 
ATOM     17  C   UNL     1      -3.912  -5.397   0.264  0.00  0.00    +0.117 A 
ATOM     18  C   UNL     1      -3.662  -6.776   0.349  0.00  0.00    +0.182 A 
ATOM     19  N   UNL     1      -4.853  -7.378   0.529  0.00  0.00    -0.216 NA
ATOM     20  H   UNL     1      -5.767  -4.410   0.388  0.00  0.00    +0.167 HD
ATOM     21  C   UNL     1      -5.800  -6.482   0.561  0.00  0.00    +0.199 A 
ATOM     22  N   UNL     1      -5.276  -5.246   0.402  0.00  0.00    -0.341 N 
ATOM     23  N   UNL     1      -2.401  -7.207   0.245  0.00  0.00    -0.214 NA
ATOM     24  C   UNL     1      -1.415  -6.354   0.066  0.00  0.00    +0.224 A 
ATOM     25  N   UNL     1      -1.611  -5.051  -0.023  0.00  0.00    -0.227 NA
ENDBRANCH  15  16
ENDBRANCH   1  15
TORSDOF 6
