REMARK  Name = ZINC32105928
REMARK  5 active torsions:
REMARK  status: ('A' for Active; 'I' for Inactive)
REMARK    1  A    between atoms: C_1  and  C_2
REMARK    2  A    between atoms: C_4  and  C_17
REMARK    3  A    between atoms: C_6  and  C_16
REMARK    4  A    between atoms: C_9  and  C_12
REMARK    5  A    between atoms: N_14  and  O_15
REMARK                            x       y       z     vdW  Elec       q    Type
REMARK                         _______ _______ _______ _____ _____    ______ ____
ROOT
ATOM      1  C   UNL     1      -1.433  -0.534   0.013  0.00  0.00    +0.011 C 
ATOM      2  C   UNL     1       0.002  -0.004   0.002  0.00  0.00    -0.030 C 
ATOM      3  C   UNL     1      -0.019   1.526   0.010  0.00  0.00    +0.013 C 
ATOM      4  C   UNL     1       1.417   2.055  -0.000  0.00  0.00    -0.030 C 
ATOM      5  C   UNL     1       2.133   1.562  -1.259  0.00  0.00    +0.013 C 
ATOM      6  C   UNL     1       2.154   0.032  -1.268  0.00  0.00    -0.030 C 
ATOM      7  C   UNL     1       0.718  -0.497  -1.257  0.00  0.00    +0.013 C 
ATOM      8  C   UNL     1       2.894  -0.475  -0.028  0.00  0.00    +0.023 C 
ATOM      9  C   UNL     1       2.178   0.019   1.231  0.00  0.00    +0.050 C 
ATOM     10  C   UNL     1       0.742  -0.511   1.242  0.00  0.00    +0.023 C 
ATOM     11  C   UNL     1       2.157   1.548   1.239  0.00  0.00    +0.023 C 
ATOM     12  C   UNL     1       2.870  -0.461  -2.526  0.00  0.00    +0.011 C 
ATOM     13  C   UNL     1       1.396   3.585   0.008  0.00  0.00    +0.011 C 
ENDROOT
BRANCH   9  14
ATOM     14  C   UNL     1       2.906  -0.480   2.452  0.00  0.00    +0.242 C 
ATOM     15  O   UNL     1       3.364   0.309   3.250  0.00  0.00    -0.273 OA
ATOM     16  N   UNL     1       3.049  -1.805   2.656  0.00  0.00    -0.197 N 
ATOM     17  H   UNL     1       2.634  -2.521   1.932  0.00  0.00    +0.182 HD
BRANCH  16  18
ATOM     18  O   UNL     1       3.734  -2.274   3.804  0.00  0.00    -0.295 OA
ATOM     19  H   UNL     1       3.851  -3.355   3.971  0.00  0.00    +0.241 HD
ENDBRANCH  16  18
ENDBRANCH   9  14
TORSDOF 2
