REMARK  Name = ZINC40301535
REMARK  3 active torsions:
REMARK  status: ('A' for Active; 'I' for Inactive)
REMARK    1  A    between atoms: C_1  and  C_2
REMARK    2  A    between atoms: C_12  and  C_14
REMARK    3  A    between atoms: C_15  and  N_19
REMARK                            x       y       z     vdW  Elec       q    Type
REMARK                         _______ _______ _______ _____ _____    ______ ____
ROOT
ATOM      1  C   UNL     1      -0.078   1.471   0.178  0.00  0.00    +0.044 C 
ATOM      2  C   UNL     1      -0.125  -0.035   0.139  0.00  0.00    -0.050 A 
ATOM      3  C   UNL     1       0.192  -0.705  -1.030  0.00  0.00    +0.005 A 
ATOM      4  C   UNL     1       0.147  -2.083  -1.067  0.00  0.00    +0.024 A 
ATOM      5  C   UNL     1      -0.215  -2.799   0.070  0.00  0.00    +0.040 A 
ATOM      6  C   UNL     1      -0.529  -2.127   1.241  0.00  0.00    -0.026 A 
ATOM      7  C   UNL     1      -0.478  -0.744   1.270  0.00  0.00    +0.008 A 
ATOM      8  C   UNL     1      -0.915  -2.869   2.494  0.00  0.00    +0.038 C 
ATOM      9  C   UNL     1      -1.393  -4.281   2.154  0.00  0.00    +0.024 C 
ATOM     10  C   UNL     1      -0.344  -4.959   1.264  0.00  0.00    +0.114 C 
ATOM     11  N   UNL     1      -0.259  -4.197   0.010  0.00  0.00    -0.267 N 
ATOM     12  C   UNL     1      -0.225  -4.834  -1.177  0.00  0.00    +0.259 C 
ATOM     13  O   UNL     1      -0.295  -4.196  -2.213  0.00  0.00    -0.269 OA
ENDROOT
BRANCH  12  14
ATOM     14  C   UNL     1      -0.106  -6.243  -1.222  0.00  0.00    +0.095 A 
ATOM     15  C   UNL     1      -0.241  -7.104  -2.311  0.00  0.00    +0.044 A 
ATOM     16  C   UNL     1      -0.065  -8.445  -2.033  0.00  0.00    +0.031 A 
ATOM     17  C   UNL     1       0.217  -8.822  -0.764  0.00  0.00    +0.048 A 
ATOM     18  S   UNL     1       0.263  -7.382   0.100  0.00  0.00    -0.090 S 
BRANCH  15  19
ATOM     19  N   UNL     1      -0.534  -6.642  -3.592  0.00  0.00    -0.357 N 
ATOM     20  H   UNL     1      -0.651  -5.692  -3.750  0.00  0.00    +0.142 HD
ATOM     21  H   UNL     1      -0.621  -7.270  -4.326  0.00  0.00    +0.142 HD
ENDBRANCH  15  19
ENDBRANCH  12  14
TORSDOF 2
