REMARK  Name = ZINC06161694
REMARK  5 active torsions:
REMARK  status: ('A' for Active; 'I' for Inactive)
REMARK    1  A    between atoms: C_9  and  S_11
REMARK    2  A    between atoms: S_11  and  C_12
REMARK    3  A    between atoms: C_18  and  N_20
REMARK    4  A    between atoms: N_20  and  S_21
REMARK    5  A    between atoms: S_21  and  C_24
REMARK                            x       y       z     vdW  Elec       q    Type
REMARK                         _______ _______ _______ _____ _____    ______ ____
ROOT
ATOM      1  C   UNL     1      -0.784   6.187  -3.821  0.00  0.00    +0.073 C 
ATOM      2  C   UNL     1      -1.990   5.867  -4.707  0.00  0.00    +0.016 C 
ATOM      3  C   UNL     1      -2.957   7.053  -4.701  0.00  0.00    +0.001 C 
ATOM      4  C   UNL     1      -3.431   7.316  -3.270  0.00  0.00    +0.002 C 
ATOM      5  C   UNL     1      -2.226   7.636  -2.384  0.00  0.00    +0.021 C 
ATOM      6  C   UNL     1      -1.259   6.451  -2.390  0.00  0.00    +0.090 C 
ENDROOT
BRANCH   6   7
ATOM      7  N   UNL     1      -0.105   6.757  -1.541  0.00  0.00    -0.186 NA
ATOM      8  H   UNL     1       0.646   7.252  -1.904  0.00  0.00    +0.148 HD
BRANCH   7   9
ATOM      9  S   UNL     1      -0.083   6.258   0.038  0.00  0.00    +0.059 S 
ATOM     10  O   UNL     1      -1.328   6.644   0.603  0.00  0.00    -0.153 OA
ATOM     11  O   UNL     1       1.162   6.678   0.579  0.00  0.00    -0.153 OA
BRANCH   9  12
ATOM     12  C   UNL     1      -0.059   4.497   0.027  0.00  0.00    +0.105 A 
ATOM     13  C   UNL     1       1.148   3.822   0.012  0.00  0.00    +0.030 A 
ATOM     14  C   UNL     1       1.167   2.440   0.004  0.00  0.00    +0.022 A 
ATOM     15  C   UNL     1      -0.021   1.732   0.012  0.00  0.00    +0.041 A 
ATOM     16  C   UNL     1      -1.229   2.407   0.021  0.00  0.00    +0.022 A 
ATOM     17  C   UNL     1      -1.247   3.789   0.035  0.00  0.00    +0.030 A 
ATOM     18 CL   UNL     1       0.002  -0.004   0.002  0.00  0.00    -0.084 Cl
ENDBRANCH   9  12
ENDBRANCH   7   9
ENDBRANCH   6   7
BRANCH   1  19
ATOM     19  S   UNL     1       0.359   4.785  -3.828  0.00  0.00    -0.083 S 
BRANCH  19  28
ATOM     20  C   UNL     1       2.475   4.349  -9.735  0.00  0.00    +0.002 A 
ATOM     21  C   UNL     1       1.645   5.442  -9.930  0.00  0.00    +0.002 A 
ATOM     22  C   UNL     1       0.913   5.959  -8.885  0.00  0.00    +0.030 A 
ATOM     23  C   UNL     1       1.007   5.378  -7.618  0.00  0.00    +0.090 A 
ATOM     24  C   UNL     1       1.850   4.271  -7.426  0.00  0.00    +0.067 A 
ATOM     25  C   UNL     1       2.579   3.764  -8.490  0.00  0.00    +0.028 A 
ATOM     26  N   UNL     1       1.737   3.929  -6.088  0.00  0.00    -0.333 N 
ATOM     27  H   UNL     1       2.215   3.182  -5.625  0.00  0.00    +0.168 HD
ATOM     28  C   UNL     1       0.852   4.800  -5.520  0.00  0.00    +0.168 A 
ATOM     29  N   UNL     1       0.427   5.653  -6.420  0.00  0.00    -0.222 NA
ENDBRANCH  19  28
ENDBRANCH   1  19
TORSDOF 5
