REMARK  Name = ZINC64683760
REMARK  9 active torsions:
REMARK  status: ('A' for Active; 'I' for Inactive)
REMARK    1  A    between atoms: C_1  and  C_2
REMARK    2  A    between atoms: C_4  and  C_25
REMARK    3  A    between atoms: C_6  and  S_9
REMARK    4  A    between atoms: C_7  and  C_8
REMARK    5  A    between atoms: S_9  and  N_12
REMARK    6  A    between atoms: N_12  and  C_13
REMARK    7  A    between atoms: C_13  and  C_14
REMARK    8  A    between atoms: C_14  and  C_15
REMARK    9  A    between atoms: C_15  and  C_16
REMARK                            x       y       z     vdW  Elec       q    Type
REMARK                         _______ _______ _______ _____ _____    ______ ____
ROOT
ATOM      1  N   UNL     1       1.483  -2.652   3.254  0.00  0.00    -0.190 NA
ATOM      2  H   UNL     1       2.074  -3.407   3.400  0.00  0.00    +0.148 HD
ENDROOT
BRANCH   1   3
ATOM      3  S   UNL     1       0.047  -2.866   2.458  0.00  0.00    +0.059 S 
ATOM      4  O   UNL     1      -0.951  -2.228   3.244  0.00  0.00    -0.153 OA
ATOM      5  O   UNL     1      -0.023  -4.241   2.108  0.00  0.00    -0.153 OA
BRANCH   3  11
ATOM      6  C   UNL     1       2.209  -2.006  -2.222  0.00  0.00    +0.044 C 
ATOM      7  C   UNL     1       1.179  -1.616  -1.193  0.00  0.00    -0.045 A 
ATOM      8  C   UNL     1       0.326  -0.560  -1.440  0.00  0.00    +0.018 A 
ATOM      9  C   UNL     1      -0.628  -0.200  -0.485  0.00  0.00    +0.065 A 
ATOM     10  C   UNL     1      -0.711  -0.913   0.714  0.00  0.00    +0.044 A 
ATOM     11  C   UNL     1       0.149  -1.966   0.947  0.00  0.00    +0.109 A 
ATOM     12  C   UNL     1       1.088  -2.320  -0.006  0.00  0.00    -0.021 A 
ATOM     13  C   UNL     1       2.020  -3.476   0.254  0.00  0.00    +0.046 C 
BRANCH   9  14
ATOM     14  C   UNL     1      -1.544   0.928  -0.742  0.00  0.00    +0.387 C 
ATOM     15  O   UNL     1      -1.469   1.550  -1.792  0.00  0.00    -0.241 OA
ATOM     16  O   UNL     1      -2.378   1.241   0.096  0.00  0.00    -0.241 OA
ENDBRANCH   9  14
ENDBRANCH   3  11
ENDBRANCH   1   3
BRANCH   1  17
ATOM     17  C   UNL     1       1.862  -1.322   3.737  0.00  0.00    +0.106 C 
BRANCH  17  18
ATOM     18  C   UNL     1       3.004  -1.452   4.747  0.00  0.00    +0.021 C 
BRANCH  18  19
ATOM     19  C   UNL     1       3.399  -0.063   5.252  0.00  0.00    +0.048 C 
BRANCH  19  20
ATOM     20  C   UNL     1       4.541  -0.194   6.263  0.00  0.00    +0.174 C 
ATOM     21  N   UNL     1       4.092  -0.956   7.434  0.00  0.00    -0.363 N 
ATOM     22  C   UNL     1       4.205  -0.179   8.473  0.00  0.00    +0.060 A 
ATOM     23  C   UNL     1       3.917  -0.371   9.901  0.00  0.00    +0.027 A 
ATOM     24  C   UNL     1       4.139   0.639  10.766  0.00  0.00    +0.002 A 
ATOM     25  C   UNL     1       4.640   1.888  10.360  0.00  0.00    +0.002 A 
ATOM     26  C   UNL     1       4.937   2.170   9.075  0.00  0.00    +0.027 A 
ATOM     27  C   UNL     1       4.737   1.144   8.043  0.00  0.00    +0.060 A 
ATOM     28  N   UNL     1       4.931   1.133   6.756  0.00  0.00    -0.363 N 
ATOM     29  H   UNL     1       3.770  -1.871   7.435  0.00  0.00    +0.162 HD
ATOM     30  H   UNL     1       5.272   1.867   6.221  0.00  0.00    +0.162 HD
ENDBRANCH  19  20
ENDBRANCH  18  19
ENDBRANCH  17  18
ENDBRANCH   1  17
TORSDOF 7
