REMARK  Name = ZINC49716122
REMARK  5 active torsions:
REMARK  status: ('A' for Active; 'I' for Inactive)
REMARK    1  A    between atoms: C_1  and  N_2
REMARK    2  A    between atoms: N_2  and  S_3
REMARK    3  A    between atoms: S_3  and  C_6
REMARK    4  A    between atoms: C_9  and  N_13
REMARK    5  A    between atoms: C_10  and  N_12
REMARK                            x       y       z     vdW  Elec       q    Type
REMARK                         _______ _______ _______ _____ _____    ______ ____
ROOT
ATOM      1  C   UNL     1       2.438  -0.437  -1.202  0.00  0.00    +0.107 A 
ATOM      2  C   UNL     1       2.924   0.657  -1.894  0.00  0.00    +0.030 A 
ATOM      3  C   UNL     1       4.272   0.959  -1.860  0.00  0.00    +0.027 A 
ATOM      4  C   UNL     1       5.143   0.165  -1.128  0.00  0.00    +0.051 A 
ATOM      5  C   UNL     1       4.653  -0.938  -0.429  0.00  0.00    +0.048 A 
ATOM      6  C   UNL     1       3.298  -1.231  -0.465  0.00  0.00    +0.053 A 
ENDROOT
BRANCH   4   7
ATOM      7  N   UNL     1       6.509   0.470  -1.092  0.00  0.00    -0.325 N 
ATOM      8  C   UNL     1       7.546  -0.017  -2.025  0.00  0.00    +0.109 C 
ATOM      9  C   UNL     1       8.883   0.606  -1.514  0.00  0.00    +0.008 C 
ATOM     10  C   UNL     1       8.752   2.121  -1.870  0.00  0.00    +0.007 C 
ATOM     11  C   UNL     1       7.615   2.627  -0.952  0.00  0.00    +0.023 C 
ATOM     12  C   UNL     1       7.199   1.353  -0.107  0.00  0.00    +0.074 C 
ATOM     13  C   UNL     1       8.586   0.624   0.029  0.00  0.00    +0.027 C 
ENDBRANCH   4   7
BRANCH   1  14
ATOM     14  S   UNL     1       0.718  -0.816  -1.251  0.00  0.00    +0.058 S 
ATOM     15  O   UNL     1       0.599  -2.201  -0.959  0.00  0.00    -0.153 OA
ATOM     16  O   UNL     1       0.211  -0.243  -2.449  0.00  0.00    -0.153 OA
BRANCH  14  18
ATOM     17  C   UNL     1      -0.018   1.461   0.010  0.00  0.00    +0.127 C 
ATOM     18  N   UNL     1       0.002  -0.004   0.002  0.00  0.00    -0.193 NA
ATOM     19  H   UNL     1      -0.404  -0.499   0.731  0.00  0.00    +0.148 HD
ENDBRANCH  14  18
ENDBRANCH   1  14
BRANCH   5  20
ATOM     20  N   UNL     1       5.526  -1.744   0.311  0.00  0.00    -0.356 N 
ATOM     21  H   UNL     1       6.473  -1.536   0.338  0.00  0.00    +0.142 HD
ATOM     22  H   UNL     1       5.184  -2.511   0.797  0.00  0.00    +0.142 HD
ENDBRANCH   5  20
TORSDOF 4
