REMARK  Name = ZINC28048749
REMARK  7 active torsions:
REMARK  status: ('A' for Active; 'I' for Inactive)
REMARK    1  A    between atoms: C_1  and  C_2
REMARK    2  A    between atoms: C_2  and  N_3
REMARK    3  A    between atoms: C_12  and  O_13
REMARK    4  A    between atoms: C_14  and  N_15
REMARK    5  A    between atoms: N_18  and  C_19
REMARK    6  A    between atoms: C_24  and  O_25
REMARK    7  A    between atoms: O_25  and  C_26
REMARK                            x       y       z     vdW  Elec       q    Type
REMARK                         _______ _______ _______ _____ _____    ______ ____
ROOT
ATOM      1  N   UNL     1       3.563   3.570  -1.220  0.00  0.00    -0.383 N 
ATOM      2  C   UNL     1       2.377   4.051  -0.697  0.00  0.00    +0.075 A 
ATOM      3  C   UNL     1       1.146   3.246  -0.741  0.00  0.00    +0.042 A 
ATOM      4  C   UNL     1       1.141   1.971  -1.312  0.00  0.00    +0.013 A 
ATOM      5  C   UNL     1      -0.027   1.242  -1.337  0.00  0.00    +0.001 A 
ATOM      6  C   UNL     1      -1.193   1.769  -0.804  0.00  0.00    +0.004 A 
ATOM      7  C   UNL     1      -1.200   3.025  -0.233  0.00  0.00    +0.047 A 
ATOM      8  C   UNL     1      -0.033   3.777  -0.196  0.00  0.00    +0.141 A 
ATOM      9  O   UNL     1      -0.027   5.010   0.356  0.00  0.00    -0.424 OA
ATOM     10  C   UNL     1       1.085   5.760   0.406  0.00  0.00    +0.309 A 
ATOM     11  C   UNL     1       2.309   5.305  -0.116  0.00  0.00    +0.140 A 
ATOM     12  H   UNL     1       4.005   2.646  -0.820  0.00  0.00    +0.160 HD
ENDROOT
BRANCH  11  13
ATOM     13  N   UNL     1       3.455   6.118  -0.048  0.00  0.00    -0.262 N 
ATOM     14  C   UNL     1       3.394   7.404  -0.445  0.00  0.00    +0.308 C 
ATOM     15  O   UNL     1       2.325   7.893  -0.759  0.00  0.00    -0.252 OA
ATOM     16  N   UNL     1       4.516   8.149  -0.493  0.00  0.00    -0.266 N 
ATOM     17  H   UNL     1       4.402   5.704   0.330  0.00  0.00    +0.157 HD
ATOM     18  H   UNL     1       5.493   7.685  -0.293  0.00  0.00    +0.156 HD
BRANCH  16  19
ATOM     19  C   UNL     1       4.438   9.515  -0.798  0.00  0.00    +0.078 A 
ATOM     20  C   UNL     1       3.453   9.980  -1.657  0.00  0.00    +0.047 A 
ATOM     21  C   UNL     1       3.375  11.329  -1.952  0.00  0.00    +0.043 A 
ATOM     22  C   UNL     1       4.284  12.215  -1.401  0.00  0.00    +0.024 A 
ATOM     23  C   UNL     1       5.271  11.756  -0.548  0.00  0.00    +0.049 A 
ATOM     24  C   UNL     1       5.352  10.407  -0.243  0.00  0.00    +0.141 A 
ATOM     25 CL   UNL     1       2.138  11.911  -3.023  0.00  0.00    -0.083 Cl
BRANCH  24  26
ATOM     26  O   UNL     1       6.322   9.956   0.596  0.00  0.00    -0.493 OA
ATOM     27  C   UNL     1       7.225  10.928   1.127  0.00  0.00    +0.277 C 
ENDBRANCH  24  26
ENDBRANCH  16  19
ENDBRANCH  11  13
BRANCH   1  29
ATOM     28  C   UNL     1       5.368   3.879  -2.846  0.00  0.00    +0.026 C 
ATOM     29  C   UNL     1       4.057   4.443  -2.293  0.00  0.00    +0.109 C 
ENDBRANCH   1  29
BRANCH  10  30
ATOM     30  O   UNL     1       1.032   6.865   0.917  0.00  0.00    -0.479 OA
ATOM     31  H   UNL     1       1.935   7.492   0.965  0.00  0.00    +0.295 HD
ENDBRANCH  10  30
TORSDOF 5
