REMARK  Name = ZINC07386334
REMARK  8 active torsions:
REMARK  status: ('A' for Active; 'I' for Inactive)
REMARK    1  A    between atoms: C_1  and  C_2
REMARK    2  A    between atoms: N_4  and  C_5
REMARK    3  A    between atoms: C_7  and  S_13
REMARK    4  A    between atoms: C_10  and  O_11
REMARK    5  A    between atoms: O_11  and  C_12
REMARK    6  A    between atoms: S_13  and  N_16
REMARK    7  A    between atoms: N_16  and  N_17
REMARK    8  A    between atoms: C_18  and  C_20
REMARK                            x       y       z     vdW  Elec       q    Type
REMARK                         _______ _______ _______ _____ _____    ______ ____
ROOT
ATOM      1  S   UNL     1      -2.784   4.004   0.014  0.00  0.00    +0.074 S 
ATOM      2  O   UNL     1      -3.744   3.109   0.560  0.00  0.00    -0.152 OA
ATOM      3  O   UNL     1      -2.531   5.285   0.574  0.00  0.00    -0.152 OA
ENDROOT
BRANCH   1   6
ATOM      4  C   UNL     1       1.153   3.182  -0.003  0.00  0.00    +0.077 A 
ATOM      5  C   UNL     1      -0.060   3.856   0.006  0.00  0.00    +0.055 A 
ATOM      6  C   UNL     1      -1.245   3.145   0.003  0.00  0.00    +0.109 A 
ATOM      7  C   UNL     1      -1.226   1.763  -0.013  0.00  0.00    +0.032 A 
ATOM      8  C   UNL     1      -0.022   1.084  -0.016  0.00  0.00    +0.049 A 
ATOM      9  C   UNL     1       1.171   1.789  -0.013  0.00  0.00    +0.141 A 
BRANCH   4  13
ATOM     10  C   UNL     1       3.654   5.969   0.388  0.00  0.00    +0.109 C 
ATOM     11  C   UNL     1       2.393   5.151   0.498  0.00  0.00    +0.214 C 
ATOM     12  O   UNL     1       1.411   5.619   1.036  0.00  0.00    -0.276 OA
ATOM     13  N   UNL     1       2.356   3.900  -0.000  0.00  0.00    -0.283 N 
ATOM     14  H   UNL     1       3.162   3.496  -0.358  0.00  0.00    +0.155 HD
ENDBRANCH   4  13
BRANCH   9  15
ATOM     15  O   UNL     1       2.356   1.123  -0.022  0.00  0.00    -0.493 OA
ATOM     16  C   UNL     1       2.297  -0.305  -0.033  0.00  0.00    +0.277 C 
ENDBRANCH   9  15
ENDBRANCH   1   6
BRANCH   1  17
ATOM     17  N   UNL     1      -3.216   4.255  -1.565  0.00  0.00    -0.108 NA
ATOM     18  H   UNL     1      -3.338   5.158  -1.896  0.00  0.00    +0.172 HD
BRANCH  17  19
ATOM     19  N   UNL     1      -3.405   3.163  -2.422  0.00  0.00    -0.228 N 
ATOM     20  C   UNL     1      -4.568   3.022  -3.087  0.00  0.00    +0.260 C 
ATOM     21  O   UNL     1      -5.453   3.842  -2.945  0.00  0.00    -0.269 OA
ATOM     22  H   UNL     1      -2.698   2.508  -2.536  0.00  0.00    +0.171 HD
BRANCH  20  23
ATOM     23  C   UNL     1      -4.767   1.870  -3.991  0.00  0.00    +0.056 A 
ATOM     24  C   UNL     1      -3.750   0.928  -4.162  0.00  0.00    +0.014 A 
ATOM     25  C   UNL     1      -3.944  -0.147  -5.003  0.00  0.00    +0.001 A 
ATOM     26  C   UNL     1      -5.140  -0.290  -5.686  0.00  0.00    +0.001 A 
ATOM     27  C   UNL     1      -6.150   0.640  -5.526  0.00  0.00    +0.021 A 
ATOM     28  C   UNL     1      -5.971   1.720  -4.683  0.00  0.00    +0.053 A 
ATOM     29 CL   UNL     1      -7.240   2.889  -4.484  0.00  0.00    -0.083 Cl
ENDBRANCH  20  23
ENDBRANCH  17  19
ENDBRANCH   1  17
TORSDOF 6
