REMARK  Name = ZINC40472818
REMARK  4 active torsions:
REMARK  status: ('A' for Active; 'I' for Inactive)
REMARK    1  A    between atoms: C_4  and  N_10
REMARK    2  A    between atoms: C_5  and  C_7
REMARK    3  A    between atoms: C_11  and  C_13
REMARK    4  A    between atoms: C_16  and  O_20
REMARK                            x       y       z     vdW  Elec       q    Type
REMARK                         _______ _______ _______ _____ _____    ______ ____
ROOT
ATOM      1  N   UNL     1       3.504  -0.531  -0.054  0.00  0.00    -0.286 N 
ATOM      2  C   UNL     1       4.617   0.215  -0.201  0.00  0.00    +0.203 C 
ATOM      3  O   UNL     1       4.537   1.425  -0.217  0.00  0.00    -0.277 OA
ATOM      4  H   UNL     1       3.576  -1.494   0.040  0.00  0.00    +0.155 HD
ENDROOT
BRANCH   2   5
ATOM      5  C   UNL     1       5.960  -0.453  -0.344  0.00  0.00    +0.019 C 
ATOM      6  C   UNL     1       6.487  -0.874   1.043  0.00  0.00    +0.023 C 
ATOM      7  C   UNL     1       8.008  -0.581   0.942  0.00  0.00    +0.097 C 
ATOM      8  C   UNL     1       8.023   0.697   0.067  0.00  0.00    -0.050 C 
ATOM      9  N   UNL     1       6.933   0.495  -0.917  0.00  0.00    +0.388 N 
ATOM     10  H   UNL     1       7.311   0.118  -1.773  0.00  0.00    -0.085 HD
ATOM     11  H   UNL     1       6.478   1.375  -1.107  0.00  0.00    -0.085 HD
BRANCH   7  12
ATOM     12  O   UNL     1       8.566  -0.326   2.232  0.00  0.00    -0.394 OA
ATOM     13  H   UNL     1       9.515  -0.137   2.220  0.00  0.00    +0.210 HD
ENDBRANCH   7  12
ENDBRANCH   2   5
BRANCH   1  17
ATOM     14  C   UNL     1      -0.243   1.298  -0.009  0.00  0.00    +0.001 A 
ATOM     15  C   UNL     1       0.825   1.905  -0.651  0.00  0.00    +0.002 A 
ATOM     16  C   UNL     1       2.066   1.302  -0.667  0.00  0.00    +0.024 A 
ATOM     17  C   UNL     1       2.254   0.079  -0.038  0.00  0.00    +0.048 A 
ATOM     18  C   UNL     1       1.175  -0.540   0.614  0.00  0.00    +0.084 A 
ATOM     19  C   UNL     1      -0.077   0.084   0.621  0.00  0.00    +0.017 A 
BRANCH  18  20
ATOM     20  C   UNL     1       1.359  -1.837   1.284  0.00  0.00    +0.388 C 
ATOM     21  O   UNL     1       0.398  -2.418   1.767  0.00  0.00    -0.241 OA
ATOM     22  O   UNL     1       2.475  -2.333   1.358  0.00  0.00    -0.241 OA
ENDBRANCH  18  20
ENDBRANCH   1  17
TORSDOF 4
