REMARK  Name = ZINC39678108
REMARK  6 active torsions:
REMARK  status: ('A' for Active; 'I' for Inactive)
REMARK    1  A    between atoms: C_1  and  C_2
REMARK    2  A    between atoms: C_6  and  C_9
REMARK    3  A    between atoms: C_13  and  C_22
REMARK    4  A    between atoms: N_24  and  C_25
REMARK    5  A    between atoms: C_25  and  C_26
REMARK    6  A    between atoms: C_29  and  N_32
REMARK                            x       y       z     vdW  Elec       q    Type
REMARK                         _______ _______ _______ _____ _____    ______ ____
ROOT
ATOM      1  C   UNL     1       0.039  -2.815   2.416  0.00  0.00    +0.251 C 
ATOM      2  O   UNL     1       1.103  -3.117   2.921  0.00  0.00    -0.270 OA
ATOM      3  N   UNL     1      -1.115  -3.185   3.005  0.00  0.00    -0.296 N 
ATOM      4  C   UNL     1      -2.497  -2.919   2.542  0.00  0.00    +0.121 C 
ATOM      5  C   UNL     1      -3.270  -4.221   2.848  0.00  0.00    +0.100 C 
ATOM      6  C   UNL     1      -2.473  -4.893   3.980  0.00  0.00    -0.004 C 
ATOM      7  C   UNL     1      -1.289  -3.956   4.260  0.00  0.00    +0.115 C 
ATOM      8  C   UNL     1      -3.342  -5.035   5.226  0.00  0.00    -0.010 C 
ATOM      9  C   UNL     1      -2.547  -5.757   6.317  0.00  0.00    -0.082 C 
ATOM     10  N   UNL     1      -2.134  -7.079   5.831  0.00  0.00    +0.379 N 
ATOM     11  C   UNL     1      -1.224  -6.931   4.689  0.00  0.00    -0.082 C 
ATOM     12  C   UNL     1      -1.963  -6.258   3.529  0.00  0.00    -0.010 C 
ATOM     13  H   UNL     1      -1.664  -7.576   6.572  0.00  0.00    -0.086 HD
ATOM     14  H   UNL     1      -2.949  -7.600   5.544  0.00  0.00    -0.086 HD
ENDROOT
BRANCH   1  20
ATOM     15  C   UNL     1      -0.060   1.576   0.040  0.00  0.00    +0.047 C 
ATOM     16  C   UNL     1      -0.036   0.070   0.008  0.00  0.00    -0.014 A 
ATOM     17  C   UNL     1      -0.041  -0.595  -1.205  0.00  0.00    +0.007 A 
ATOM     18  C   UNL     1      -0.020  -1.978  -1.245  0.00  0.00    +0.021 A 
ATOM     19  C   UNL     1       0.006  -2.706  -0.072  0.00  0.00    +0.056 A 
ATOM     20  C   UNL     1       0.012  -2.043   1.158  0.00  0.00    +0.091 A 
ATOM     21  C   UNL     1      -0.004  -0.645   1.191  0.00  0.00    +0.140 A 
ATOM     22  F   UNL     1       0.005   0.005   2.375  0.00  0.00    -0.204 F 
ATOM     23 CL   UNL     1       0.032  -4.441  -0.126  0.00  0.00    -0.083 Cl
ENDBRANCH   1  20
BRANCH   5  24
ATOM     24  C   UNL     1      -4.670  -3.906   3.305  0.00  0.00    +0.218 C 
ATOM     25  O   UNL     1      -4.883  -2.913   3.969  0.00  0.00    -0.275 OA
ATOM     26  N   UNL     1      -5.688  -4.727   2.978  0.00  0.00    -0.311 N 
ATOM     27  H   UNL     1      -5.518  -5.521   2.447  0.00  0.00    +0.149 HD
BRANCH  26  28
ATOM     28  C   UNL     1      -7.049  -4.420   3.422  0.00  0.00    +0.139 C 
BRANCH  28  29
ATOM     29  C   UNL     1      -7.992  -5.487   2.926  0.00  0.00    -0.030 A 
ATOM     30  C   UNL     1      -8.604  -5.348   1.694  0.00  0.00    +0.007 A 
ATOM     31  C   UNL     1      -9.468  -6.323   1.237  0.00  0.00    +0.023 A 
ATOM     32  C   UNL     1      -9.722  -7.445   2.016  0.00  0.00    +0.030 A 
ATOM     33  C   UNL     1      -9.105  -7.581   3.253  0.00  0.00    +0.023 A 
ATOM     34  C   UNL     1      -8.238  -6.605   3.702  0.00  0.00    +0.007 A 
BRANCH  32  35
ATOM     35  N   UNL     1     -10.596  -8.433   1.557  0.00  0.00    -0.326 N 
ATOM     36  C   UNL     1     -10.982  -9.562   2.418  0.00  0.00    +0.133 C 
ATOM     37  C   UNL     1     -12.511  -9.677   2.408  0.00  0.00    +0.178 C 
ATOM     38  O   UNL     1     -12.970  -9.724   1.054  0.00  0.00    -0.377 OA
ATOM     39  C   UNL     1     -12.678  -8.548   0.296  0.00  0.00    +0.178 C 
ATOM     40  C   UNL     1     -11.162  -8.372   0.200  0.00  0.00    +0.133 C 
ENDBRANCH  32  35
ENDBRANCH  28  29
ENDBRANCH  26  28
ENDBRANCH   5  24
TORSDOF 5
