REMARK  Name = ZINC35296202
REMARK  7 active torsions:
REMARK  status: ('A' for Active; 'I' for Inactive)
REMARK    1  A    between atoms: C_6  and  C_7
REMARK    2  A    between atoms: C_9  and  C_12
REMARK    3  A    between atoms: C_12  and  S_13
REMARK    4  A    between atoms: S_13  and  C_14
REMARK    5  A    between atoms: C_14  and  C_15
REMARK    6  A    between atoms: C_15  and  C_17
REMARK    7  A    between atoms: C_15  and  N_20
REMARK                            x       y       z     vdW  Elec       q    Type
REMARK                         _______ _______ _______ _____ _____    ______ ____
ROOT
ATOM      1  C   UNK     1      -1.266  -0.763   0.011  0.00  0.00    +0.258 A 
ATOM      2  N   UNK     1      -1.382  -2.072   0.010  0.00  0.00    -0.191 NA
ATOM      3  C   UNK     1      -2.672  -2.415   0.020  0.00  0.00    +0.182 A 
ATOM      4  N   UNK     1      -3.401  -1.335   0.026  0.00  0.00    -0.060 NA
ATOM      5  O   UNK     1      -2.502  -0.236   0.026  0.00  0.00    -0.333 OA
ENDROOT
BRANCH   1  11
ATOM      6  C   UNK     1      -0.017   1.392   0.010  0.00  0.00    +0.015 A 
ATOM      7  C   UNK     1       1.170   2.095   0.002  0.00  0.00    +0.021 A 
ATOM      8  C   UNK     1       2.378   1.419  -0.013  0.00  0.00    +0.041 A 
ATOM      9  C   UNK     1       2.403   0.034  -0.021  0.00  0.00    +0.021 A 
ATOM     10  C   UNK     1       1.224  -0.680  -0.014  0.00  0.00    +0.015 A 
ATOM     11  C   UNK     1       0.002  -0.004   0.002  0.00  0.00    +0.040 A 
ATOM     12 CL   UNK     1       3.868   2.311  -0.024  0.00  0.00    -0.084 Cl
ENDBRANCH   1  11
BRANCH   3  13
ATOM     13  C   UNK     1      -3.201  -3.826   0.021  0.00  0.00    +0.148 C 
BRANCH  13  14
ATOM     14  S   UNK     1      -3.400  -4.396   1.732  0.00  0.00    -0.154 S 
BRANCH  14  15
ATOM     15  C   UNK     1      -4.035  -6.086   1.561  0.00  0.00    +0.064 C 
BRANCH  15  16
ATOM     16  C   UNK     1      -4.251  -6.693   2.949  0.00  0.00    +0.050 C 
BRANCH  16  17
ATOM     17  N   UNK     1      -2.974  -6.720   3.675  0.00  0.00    +0.388 N 
ATOM     18  H   UNK     1      -3.116  -7.120   4.591  0.00  0.00    -0.089 HD
ATOM     19  H   UNK     1      -2.308  -7.280   3.163  0.00  0.00    -0.089 HD
ATOM     20  H   UNK     1      -2.621  -5.780   3.770  0.00  0.00    -0.089 HD
ENDBRANCH  16  17
BRANCH  16  21
ATOM     21  C   UNK     1      -4.779  -8.097   2.807  0.00  0.00    +0.343 C 
ATOM     22  O   UNK     1      -4.003  -9.036   2.742  0.00  0.00    -0.248 OA
ATOM     23  O   UNK     1      -5.981  -8.295   2.759  0.00  0.00    -0.248 OA
ENDBRANCH  16  21
ENDBRANCH  15  16
ENDBRANCH  14  15
ENDBRANCH  13  14
ENDBRANCH   3  13
TORSDOF 7
