REMARK  Name = ZINC08382933
REMARK  5 active torsions:
REMARK  status: ('A' for Active; 'I' for Inactive)
REMARK    1  A    between atoms: C_1  and  N_2
REMARK    2  A    between atoms: C_3  and  C_8
REMARK    3  A    between atoms: C_9  and  N_29
REMARK    4  A    between atoms: C_11  and  C_23
REMARK    5  A    between atoms: C_12  and  C_17
REMARK                            x       y       z     vdW  Elec       q    Type
REMARK                         _______ _______ _______ _____ _____    ______ ____
ROOT
ATOM      1  C   UNL     1       1.472   2.489  -2.624  0.00  0.00    +0.080 A 
ATOM      2  C   UNL     1       1.930   2.417  -3.908  0.00  0.00    +0.053 A 
ATOM      3  C   UNL     1       3.219   1.804  -4.153  0.00  0.00    +0.041 A 
ATOM      4  C   UNL     1       3.913   1.607  -5.384  0.00  0.00    +0.021 A 
ATOM      5  C   UNL     1       5.162   0.978  -5.339  0.00  0.00    +0.102 A 
ATOM      6  N   UNL     1       5.680   0.578  -4.183  0.00  0.00    -0.148 NA
ATOM      7  N   UNL     1       5.066   0.749  -3.066  0.00  0.00    -0.141 NA
ATOM      8  C   UNL     1       3.889   1.329  -2.998  0.00  0.00    +0.134 A 
ATOM      9  S   UNL     1       2.777   1.731  -1.675  0.00  0.00    -0.062 S 
ENDROOT
BRANCH   1  12
ATOM     10  C   UNL     1       0.494   2.629   0.354  0.00  0.00    +0.153 C 
ATOM     11  N   UNL     1      -0.215   3.120  -0.830  0.00  0.00    -0.304 N 
ATOM     12  C   UNL     1       0.209   3.061  -2.140  0.00  0.00    +0.173 A 
ATOM     13  N   UNL     1      -0.732   3.616  -2.874  0.00  0.00    -0.128 NA
ATOM     14  N   UNL     1      -1.698   4.010  -2.124  0.00  0.00    -0.121 NA
ATOM     15  C   UNL     1      -1.440   3.728  -0.867  0.00  0.00    +0.202 A 
ATOM     16  S   UNL     1      -2.477   4.073   0.515  0.00  0.00    -0.009 SA
ENDBRANCH   1  12
BRANCH   5  17
ATOM     17  C   UNL     1       5.915   0.753  -6.596  0.00  0.00    +0.003 A 
ATOM     18  C   UNL     1       5.234   0.464  -7.778  0.00  0.00    +0.010 A 
ATOM     19  C   UNL     1       5.941   0.257  -8.945  0.00  0.00    +0.001 A 
ATOM     20  C   UNL     1       7.322   0.335  -8.943  0.00  0.00    +0.000 A 
ATOM     21  C   UNL     1       8.003   0.622  -7.774  0.00  0.00    +0.001 A 
ATOM     22  C   UNL     1       7.307   0.837  -6.602  0.00  0.00    +0.010 A 
ENDBRANCH   5  17
BRANCH   4  23
ATOM     23  C   UNL     1       3.330   2.053  -6.669  0.00  0.00    -0.015 A 
ATOM     24  C   UNL     1       3.899   3.122  -7.363  0.00  0.00    +0.008 A 
ATOM     25  C   UNL     1       3.350   3.533  -8.560  0.00  0.00    +0.001 A 
ATOM     26  C   UNL     1       2.237   2.890  -9.072  0.00  0.00    +0.000 A 
ATOM     27  C   UNL     1       1.668   1.830  -8.389  0.00  0.00    +0.001 A 
ATOM     28  C   UNL     1       2.211   1.404  -7.194  0.00  0.00    +0.008 A 
ENDBRANCH   4  23
BRANCH   2  29
ATOM     29  N   UNL     1       1.168   2.925  -4.968  0.00  0.00    -0.356 N 
ATOM     30  H   UNL     1       0.229   3.129  -4.837  0.00  0.00    +0.142 HD
ATOM     31  H   UNL     1       1.580   3.074  -5.834  0.00  0.00    +0.142 HD
ENDBRANCH   2  29
TORSDOF 4
