REMARK  Name = ZINC07991043
REMARK  3 active torsions:
REMARK  status: ('A' for Active; 'I' for Inactive)
REMARK    1  A    between atoms: C_1  and  N_2
REMARK    2  A    between atoms: C_3  and  C_22
REMARK    3  A    between atoms: C_10  and  C_16
REMARK                            x       y       z     vdW  Elec       q    Type
REMARK                         _______ _______ _______ _____ _____    ______ ____
ROOT
ATOM      1  C   UNL     1      -0.013   1.086   0.008  0.00  0.00    +0.134 C 
ATOM      2  N   UNL     1      -0.698   1.558   1.213  0.00  0.00    -0.278 N 
ATOM      3  C   UNL     1       0.069   1.805   2.438  0.00  0.00    +0.193 C 
ATOM      4  N   UNL     1      -0.791   1.544   3.600  0.00  0.00    -0.310 N 
ATOM      5  C   UNL     1      -2.092   1.992   3.566  0.00  0.00    +0.101 C 
ATOM      6  C   UNL     1      -2.727   2.089   2.365  0.00  0.00    +0.074 C 
ATOM      7  C   UNL     1      -2.027   1.768   1.187  0.00  0.00    +0.249 C 
ATOM      8  O   UNL     1      -2.631   1.675   0.132  0.00  0.00    -0.270 OA
ATOM      9  C   UNL     1      -4.154   2.549   2.275  0.00  0.00    +0.141 C 
ATOM     10  N   UNL     1      -4.702   2.872   3.584  0.00  0.00    -0.315 N 
ATOM     11  C   UNL     1      -4.002   2.762   4.720  0.00  0.00    +0.136 C 
ATOM     12  S   UNL     1      -4.753   3.179   6.201  0.00  0.00    -0.019 S 
ATOM     13  N   UNL     1      -2.730   2.334   4.732  0.00  0.00    -0.285 N 
ATOM     14  H   UNL     1      -0.450   1.066   4.372  0.00  0.00    +0.149 HD
ATOM     15  H   UNL     1      -5.620   3.182   3.636  0.00  0.00    +0.149 HD
ATOM     16  H   UNL     1      -2.255   2.267   5.576  0.00  0.00    +0.155 HD
ENDROOT
BRANCH   9  17
ATOM     17  C   UNL     1      -4.984   1.457   1.651  0.00  0.00    -0.023 A 
ATOM     18  C   UNL     1      -5.403   0.384   2.417  0.00  0.00    +0.006 A 
ATOM     19  C   UNL     1      -6.168  -0.615   1.845  0.00  0.00    +0.000 A 
ATOM     20  C   UNL     1      -6.506  -0.547   0.507  0.00  0.00    +0.000 A 
ATOM     21  C   UNL     1      -6.083   0.522  -0.260  0.00  0.00    +0.000 A 
ATOM     22  C   UNL     1      -5.322   1.524   0.313  0.00  0.00    +0.006 A 
ENDBRANCH   9  17
BRANCH   3  23
ATOM     23  C   UNL     1       0.533   3.238   2.463  0.00  0.00    -0.009 A 
ATOM     24  C   UNL     1       0.792   3.901   1.278  0.00  0.00    +0.007 A 
ATOM     25  C   UNL     1       1.214   5.217   1.300  0.00  0.00    +0.000 A 
ATOM     26  C   UNL     1       1.386   5.868   2.508  0.00  0.00    +0.000 A 
ATOM     27  C   UNL     1       1.132   5.203   3.693  0.00  0.00    +0.000 A 
ATOM     28  C   UNL     1       0.706   3.888   3.670  0.00  0.00    +0.007 A 
ENDBRANCH   3  23
TORSDOF 2
