REMARK  Name = ZINC16886459
REMARK  8 active torsions:
REMARK  status: ('A' for Active; 'I' for Inactive)
REMARK    1  A    between atoms: C_1  and  C_2
REMARK    2  A    between atoms: C_5  and  C_22
REMARK    3  A    between atoms: C_6  and  C_8
REMARK    4  A    between atoms: C_8  and  N_9
REMARK    5  A    between atoms: C_10  and  C_21
REMARK    6  A    between atoms: C_12  and  O_20
REMARK    7  A    between atoms: C_13  and  N_16
REMARK    8  A    between atoms: C_17  and  C_19
REMARK                            x       y       z     vdW  Elec       q    Type
REMARK                         _______ _______ _______ _____ _____    ______ ____
ROOT
ATOM      1  N   UNL     1      -4.534   3.937   2.396  0.00  0.00    -0.291 N 
ATOM      2  C   UNL     1      -4.485   4.622   3.556  0.00  0.00    +0.113 A 
ATOM      3  N   UNL     1      -4.704   5.907   3.605  0.00  0.00    -0.198 NA
ATOM      4  C   UNL     1      -4.999   6.608   2.501  0.00  0.00    +0.241 A 
ATOM      5  C   UNL     1      -5.070   5.960   1.279  0.00  0.00    +0.161 A 
ATOM      6  C   UNL     1      -4.826   4.573   1.242  0.00  0.00    +0.279 A 
ATOM      7  O   UNL     1      -4.877   3.959   0.188  0.00  0.00    -0.265 OA
ATOM      8  C   UNL     1      -4.163   3.884   4.830  0.00  0.00    +0.086 C 
ENDROOT
BRANCH   5   9
ATOM      9  N   UNL     1      -5.378   6.668   0.105  0.00  0.00    -0.277 N 
ATOM     10  C   UNL     1      -4.503   6.686  -0.920  0.00  0.00    +0.214 C 
ATOM     11  O   UNL     1      -3.490   6.020  -0.866  0.00  0.00    -0.276 OA
ATOM     12  C   UNL     1      -4.782   7.534  -2.135  0.00  0.00    +0.109 C 
ATOM     13  H   UNL     1      -6.220   7.145   0.032  0.00  0.00    +0.155 HD
ENDBRANCH   5   9
BRANCH   4  14
ATOM     14  O   UNL     1      -5.228   7.941   2.581  0.00  0.00    -0.491 OA
ATOM     15  H   UNL     1      -5.155   8.300   3.476  0.00  0.00    +0.294 HD
ENDBRANCH   4  14
BRANCH   1  16
ATOM     16  C   UNL     1      -4.276   2.494   2.389  0.00  0.00    +0.162 C 
BRANCH  16  22
ATOM     17  C   UNL     1      -7.620   0.325   5.414  0.00  0.00    +0.044 C 
ATOM     18  C   UNL     1      -7.172   0.713   4.028  0.00  0.00    -0.050 A 
ATOM     19  C   UNL     1      -7.951   0.386   2.933  0.00  0.00    +0.003 A 
ATOM     20  C   UNL     1      -7.540   0.742   1.663  0.00  0.00    +0.004 A 
ATOM     21  C   UNL     1      -6.350   1.424   1.486  0.00  0.00    -0.046 A 
ATOM     22  C   UNL     1      -5.572   1.751   2.581  0.00  0.00    -0.024 A 
ATOM     23  C   UNL     1      -5.986   1.399   3.852  0.00  0.00    +0.009 A 
ATOM     24  C   UNL     1      -5.902   1.812   0.101  0.00  0.00    +0.044 C 
ENDBRANCH  16  22
ENDBRANCH   1  16
TORSDOF 4
