REMARK  Name = ZINC65992431
REMARK  6 active torsions:
REMARK  status: ('A' for Active; 'I' for Inactive)
REMARK    1  A    between atoms: C_1  and  C_2
REMARK    2  A    between atoms: C_2  and  C_3
REMARK    3  A    between atoms: C_2  and  N_15
REMARK    4  A    between atoms: C_6  and  N_9
REMARK    5  A    between atoms: C_16  and  C_18
REMARK    6  A    between atoms: C_18  and  N_19
REMARK                            x       y       z     vdW  Elec       q    Type
REMARK                         _______ _______ _______ _____ _____    ______ ____
ROOT
ATOM      1  C   UNL     1      -0.019   1.526  -0.007  0.00  0.00    +0.033 C 
ATOM      2  C   UNL     1       0.002  -0.004   0.002  0.00  0.00    +0.100 C 
ENDROOT
BRANCH   2   3
ATOM      3  C   UNL     1      -1.412  -0.526   0.013  0.00  0.00    -0.027 A 
ATOM      4  C   UNL     1      -2.127  -0.557   1.196  0.00  0.00    +0.007 A 
ATOM      5  C   UNL     1      -3.423  -1.034   1.209  0.00  0.00    +0.024 A 
ATOM      6  C   UNL     1      -4.008  -1.483   0.032  0.00  0.00    +0.036 A 
ATOM      7  C   UNL     1      -3.287  -1.450  -1.154  0.00  0.00    +0.024 A 
ATOM      8  C   UNL     1      -1.993  -0.967  -1.162  0.00  0.00    +0.007 A 
BRANCH   6   9
ATOM      9  N   UNL     1      -5.320  -1.968   0.042  0.00  0.00    -0.271 N 
ATOM     10  C   UNL     1      -6.068  -2.358  -1.159  0.00  0.00    +0.114 C 
ATOM     11  C   UNL     1      -7.249  -3.213  -0.649  0.00  0.00    +0.029 C 
ATOM     12  C   UNL     1      -7.421  -2.685   0.794  0.00  0.00    +0.098 C 
ATOM     13  C   UNL     1      -6.056  -2.141   1.154  0.00  0.00    +0.220 C 
ATOM     14  O   UNL     1      -5.681  -1.895   2.281  0.00  0.00    -0.275 OA
ENDBRANCH   6   9
ENDBRANCH   2   3
BRANCH   2  15
ATOM     15  N   UNL     1       0.706  -0.475   1.198  0.00  0.00    -0.307 N 
ATOM     16  C   UNL     1       2.049  -0.586   1.189  0.00  0.00    +0.231 C 
ATOM     17  O   UNL     1       2.675  -0.295   0.192  0.00  0.00    -0.274 OA
ATOM     18  H   UNL     1       0.205  -0.708   1.995  0.00  0.00    +0.149 HD
BRANCH  16  19
ATOM     19  C   UNL     1       2.772  -1.071   2.419  0.00  0.00    +0.201 C 
BRANCH  19  20
ATOM     20  N   UNL     1       4.213  -1.102   2.157  0.00  0.00    -0.291 N 
ATOM     21  C   UNL     1       5.065  -1.506   3.121  0.00  0.00    +0.297 C 
ATOM     22  O   UNL     1       4.637  -1.845   4.207  0.00  0.00    -0.253 OA
ATOM     23  N   UNL     1       6.391  -1.535   2.880  0.00  0.00    -0.313 N 
ATOM     24  H   UNL     1       4.555  -0.832   1.290  0.00  0.00    +0.151 HD
ATOM     25  H   UNL     1       6.732  -1.265   2.013  0.00  0.00    +0.146 HD
ATOM     26  H   UNL     1       7.003  -1.825   3.573  0.00  0.00    +0.146 HD
ENDBRANCH  19  20
ENDBRANCH  16  19
ENDBRANCH   2  15
TORSDOF 5
