REMARK  Name = ZINC44714268
REMARK  9 active torsions:
REMARK  status: ('A' for Active; 'I' for Inactive)
REMARK    1  A    between atoms: C_1  and  C_2
REMARK    2  A    between atoms: C_3  and  C_9
REMARK    3  A    between atoms: C_4  and  C_8
REMARK    4  A    between atoms: C_9  and  C_11
REMARK    5  A    between atoms: C_9  and  N_12
REMARK    6  A    between atoms: C_13  and  C_15
REMARK    7  A    between atoms: C_26  and  C_28
REMARK    8  A    between atoms: C_29  and  C_39
REMARK    9  A    between atoms: C_32  and  C_33
REMARK                            x       y       z     vdW  Elec       q    Type
REMARK                         _______ _______ _______ _____ _____    ______ ____
ROOT
ATOM      1  C   UNL     1      -2.512  -1.270  -5.499  0.00  0.00    +0.100 C 
ATOM      2  C   UNL     1      -3.792  -1.634  -4.713  0.00  0.00    +0.121 C 
ATOM      3  N   UNL     1      -4.746  -0.544  -5.026  0.00  0.00    -0.296 N 
ATOM      4  C   UNL     1      -4.523  -0.261  -6.464  0.00  0.00    +0.115 C 
ATOM      5  C   UNL     1      -2.997  -0.372  -6.649  0.00  0.00    -0.004 C 
ATOM      6  C   UNL     1      -2.673  -1.015  -7.994  0.00  0.00    -0.010 C 
ATOM      7  C   UNL     1      -3.112  -0.077  -9.122  0.00  0.00    -0.082 C 
ATOM      8  N   UNL     1      -2.415   1.209  -8.991  0.00  0.00    +0.379 N 
ATOM      9  C   UNL     1      -2.804   1.864  -7.737  0.00  0.00    -0.082 C 
ATOM     10  C   UNL     1      -2.353   1.008  -6.550  0.00  0.00    -0.010 C 
ATOM     11  C   UNL     1      -5.619   0.054  -4.192  0.00  0.00    +0.252 C 
ATOM     12  O   UNL     1      -6.343   0.941  -4.603  0.00  0.00    -0.270 OA
ATOM     13  H   UNL     1      -1.418   1.051  -8.992  0.00  0.00    -0.086 HD
ATOM     14  H   UNL     1      -2.659   1.803  -9.769  0.00  0.00    -0.086 HD
ENDROOT
BRANCH  11  15
ATOM     15  C   UNL     1      -5.698  -0.367  -2.783  0.00  0.00    +0.106 A 
ATOM     16  C   UNL     1      -4.985   0.147  -1.739  0.00  0.00    +0.147 A 
ATOM     17  O   UNL     1      -5.343  -0.502  -0.628  0.00  0.00    -0.359 OA
ATOM     18  N   UNL     1      -6.321  -1.473  -0.943  0.00  0.00    -0.077 NA
ATOM     19  C   UNL     1      -6.564  -1.418  -2.228  0.00  0.00    +0.126 A 
ATOM     20  C   UNL     1      -3.968   1.255  -1.826  0.00  0.00    +0.090 C 
BRANCH  19  21
ATOM     21  C   UNL     1      -7.528  -2.257  -2.981  0.00  0.00    +0.004 A 
ATOM     22  C   UNL     1      -8.225  -1.723  -4.063  0.00  0.00    +0.010 A 
ATOM     23  C   UNL     1      -9.119  -2.509  -4.761  0.00  0.00    +0.001 A 
ATOM     24  C   UNL     1      -9.325  -3.825  -4.388  0.00  0.00    +0.000 A 
ATOM     25  C   UNL     1      -8.636  -4.361  -3.314  0.00  0.00    +0.001 A 
ATOM     26  C   UNL     1      -7.735  -3.586  -2.613  0.00  0.00    +0.010 A 
ENDBRANCH  19  21
ENDBRANCH  11  15
BRANCH   1  28
ATOM     27  N   UNL     1      -0.226  -0.572  -4.861  0.00  0.00    -0.308 N 
ATOM     28  C   UNL     1      -1.550  -0.517  -4.615  0.00  0.00    +0.219 C 
ATOM     29  O   UNL     1      -1.968   0.137  -3.683  0.00  0.00    -0.275 OA
ATOM     30  H   UNL     1       0.108  -1.095  -5.606  0.00  0.00    +0.149 HD
BRANCH  27  31
ATOM     31  C   UNL     1       0.708   0.160  -4.002  0.00  0.00    +0.104 C 
ATOM     32  C   UNL     1       0.798   1.614  -4.468  0.00  0.00    +0.033 C 
BRANCH  31  35
ATOM     33  C   UNL     1       2.175  -0.720  -6.622  0.00  0.00    +0.065 C 
ATOM     34  C   UNL     1       2.705  -0.859  -5.218  0.00  0.00    +0.038 A 
ATOM     35  C   UNL     1       2.071  -0.479  -4.084  0.00  0.00    +0.015 A 
ATOM     36  C   UNL     1       2.904  -0.783  -3.002  0.00  0.00    +0.065 A 
ATOM     37  N   UNL     1       3.998  -1.327  -3.470  0.00  0.00    -0.179 NA
ATOM     38  N   UNL     1       3.894  -1.390  -4.865  0.00  0.00    -0.281 N 
ATOM     39  H   UNL     1       4.561  -1.750  -5.471  0.00  0.00    +0.189 HD
ATOM     40  C   UNL     1       2.594  -0.529  -1.550  0.00  0.00    +0.068 C 
ENDBRANCH  31  35
ENDBRANCH  27  31
ENDBRANCH   1  28
TORSDOF 5
