REMARK  Name = ZINC01061526
REMARK  6 active torsions:
REMARK  status: ('A' for Active; 'I' for Inactive)
REMARK    1  A    between atoms: C_1  and  O_2
REMARK    2  A    between atoms: O_2  and  C_3
REMARK    3  A    between atoms: C_3  and  C_5
REMARK    4  A    between atoms: C_6  and  C_18
REMARK    5  A    between atoms: N_10  and  C_11
REMARK    6  A    between atoms: C_18  and  C_20
REMARK                            x       y       z     vdW  Elec       q    Type
REMARK                         _______ _______ _______ _____ _____    ______ ____
ROOT
ATOM      1  C   UNL     1       0.711  -2.244   1.140  0.00  0.00    +0.307 C 
ATOM      2  C   UNL     1       1.323  -2.663  -0.176  0.00  0.00    +0.116 C 
ATOM      3  C   UNL     1       0.369  -3.345  -0.852  0.00  0.00    +0.253 C 
ATOM      4  C   UNL     1      -0.861  -3.397  -0.035  0.00  0.00    +0.294 C 
ATOM      5  O   UNL     1      -1.896  -3.941  -0.366  0.00  0.00    -0.266 OA
ATOM      6  N   UNL     1      -0.665  -2.755   1.131  0.00  0.00    -0.220 N 
ATOM      7  O   UNL     1       0.517  -3.892  -2.080  0.00  0.00    -0.282 OA
ATOM      8  O   UNL     1       1.440  -2.817   2.227  0.00  0.00    -0.188 OA
ENDROOT
BRANCH   6   9
ATOM      9  C   UNL     1      -1.606  -2.601   2.153  0.00  0.00    +0.040 A 
ATOM     10  C   UNL     1      -1.272  -1.906   3.308  0.00  0.00    +0.023 A 
ATOM     11  C   UNL     1      -2.204  -1.756   4.316  0.00  0.00    +0.002 A 
ATOM     12  C   UNL     1      -3.469  -2.296   4.176  0.00  0.00    +0.000 A 
ATOM     13  C   UNL     1      -3.805  -2.988   3.027  0.00  0.00    +0.002 A 
ATOM     14  C   UNL     1      -2.880  -3.138   2.013  0.00  0.00    +0.023 A 
ENDBRANCH   6   9
BRANCH   1  15
ATOM     15  C   UNL     1       0.705  -0.742   1.254  0.00  0.00    +0.367 C 
ATOM     16  O   UNL     1       1.336  -0.200   2.131  0.00  0.00    -0.245 OA
BRANCH  15  18
ATOM     17  C   UNL     1       0.040   1.414   0.549  0.00  0.00    +0.280 C 
ATOM     18  O   UNL     1      -0.000  -0.005   0.381  0.00  0.00    -0.464 OA
ENDBRANCH  15  18
ENDBRANCH   1  15
BRANCH   2  19
ATOM     19  C   UNL     1       2.688  -2.384  -0.633  0.00  0.00    +0.198 C 
ATOM     20  O   UNL     1       2.978  -1.276  -1.042  0.00  0.00    -0.287 OA
BRANCH  19  21
ATOM     21  C   UNL     1       3.712  -3.450  -0.597  0.00  0.00    +0.022 A 
ATOM     22  C   UNL     1       3.360  -4.748  -0.220  0.00  0.00    +0.013 A 
ATOM     23  C   UNL     1       4.319  -5.738  -0.189  0.00  0.00    +0.016 A 
ATOM     24  C   UNL     1       5.630  -5.447  -0.530  0.00  0.00    +0.018 A 
ATOM     25  C   UNL     1       5.985  -4.161  -0.904  0.00  0.00    +0.016 A 
ATOM     26  C   UNL     1       5.034  -3.164  -0.945  0.00  0.00    +0.013 A 
ATOM     27 BR   UNL     1       6.940  -6.810  -0.484  0.00  0.00    -0.050 Br
ENDBRANCH  19  21
ENDBRANCH   2  19
TORSDOF 5
