REMARK  Name = ZINC51641964
REMARK  4 active torsions:
REMARK  status: ('A' for Active; 'I' for Inactive)
REMARK    1  A    between atoms: C_1  and  O_2
REMARK    2  A    between atoms: O_2  and  C_3
REMARK    3  A    between atoms: C_8  and  N_9
REMARK    4  A    between atoms: C_16  and  C_19
REMARK                            x       y       z     vdW  Elec       q    Type
REMARK                         _______ _______ _______ _____ _____    ______ ____
ROOT
ATOM      1  N   UNL     1       0.096  -2.777  -0.111  0.00  0.00    -0.266 N 
ATOM      2  C   UNL     1       0.060  -4.119  -0.231  0.00  0.00    +0.307 C 
ATOM      3  O   UNL     1       0.600  -4.659  -1.178  0.00  0.00    -0.252 OA
ATOM      4  N   UNL     1      -0.573  -4.862   0.698  0.00  0.00    -0.280 N 
ATOM      5  C   UNL     1      -1.330  -4.228   1.788  0.00  0.00    +0.137 C 
ATOM      6  C   UNL     1      -0.875  -4.845   3.116  0.00  0.00    +0.180 C 
ATOM      7  O   UNL     1      -0.963  -6.269   3.027  0.00  0.00    -0.364 OA
ATOM      8  C   UNL     1      -0.112  -6.847   2.035  0.00  0.00    +0.221 C 
ATOM      9  C   UNL     1      -0.532  -6.332   0.649  0.00  0.00    +0.150 C 
ATOM     10  H   UNL     1      -0.296  -2.349   0.666  0.00  0.00    +0.156 HD
ENDROOT
BRANCH   1  16
ATOM     11  C   UNL     1       0.292  -0.684  -1.311  0.00  0.00    +0.141 A 
ATOM     12  C   UNL     1       0.897   0.082  -2.295  0.00  0.00    +0.048 A 
ATOM     13  C   UNL     1       1.898  -0.462  -3.078  0.00  0.00    +0.019 A 
ATOM     14  C   UNL     1       2.299  -1.771  -2.882  0.00  0.00    +0.020 A 
ATOM     15  C   UNL     1       1.701  -2.542  -1.902  0.00  0.00    +0.042 A 
ATOM     16  C   UNL     1       0.700  -2.000  -1.109  0.00  0.00    +0.078 A 
ATOM     17 BR   UNL     1       3.668  -2.509  -3.957  0.00  0.00    -0.050 Br
BRANCH  11  19
ATOM     18  C   UNL     1      -1.059   1.207  -0.804  0.00  0.00    +0.277 C 
ATOM     19  O   UNL     1      -0.693  -0.149  -0.540  0.00  0.00    -0.493 OA
ENDBRANCH  11  19
ENDBRANCH   1  16
BRANCH   8  20
ATOM     20  C   UNL     1      -0.240  -8.348   2.074  0.00  0.00    +0.241 C 
ATOM     21  O   UNL     1      -1.052  -8.868   2.809  0.00  0.00    -0.273 OA
ATOM     22  N   UNL     1       0.548  -9.113   1.292  0.00  0.00    -0.327 N 
ATOM     23  H   UNL     1       1.197  -8.696   0.704  0.00  0.00    +0.145 HD
ATOM     24  H   UNL     1       0.465 -10.079   1.317  0.00  0.00    +0.145 HD
ENDBRANCH   8  20
TORSDOF 3
