REMARK  Name = ZINC39543024
REMARK  6 active torsions:
REMARK  status: ('A' for Active; 'I' for Inactive)
REMARK    1  A    between atoms: C_1  and  N_2
REMARK    2  A    between atoms: N_2  and  C_3
REMARK    3  A    between atoms: C_8  and  O_9
REMARK    4  A    between atoms: C_10  and  C_12
REMARK    5  A    between atoms: C_15  and  O_26
REMARK    6  A    between atoms: O_26  and  C_27
REMARK                            x       y       z     vdW  Elec       q    Type
REMARK                         _______ _______ _______ _____ _____    ______ ____
ROOT
ATOM      1  C   UNL     1      -0.106   0.212  -2.561  0.00  0.00    +0.152 C 
ATOM      2  C   UNL     1       1.179   1.063  -2.579  0.00  0.00    +0.107 C 
ATOM      3  C   UNL     1       1.924   0.580  -3.803  0.00  0.00    +0.134 C 
ATOM      4  C   UNL     1       1.224  -0.356  -4.397  0.00  0.00    +0.113 C 
ATOM      5  N   UNL     1       1.609  -1.079  -5.553  0.00  0.00    -0.301 N 
ATOM      6  C   UNL     1       1.221  -2.429  -5.559  0.00  0.00    +0.037 A 
ATOM      7  C   UNL     1       1.641  -3.262  -6.587  0.00  0.00    +0.023 A 
ATOM      8  C   UNL     1       1.252  -4.588  -6.599  0.00  0.00    +0.002 A 
ATOM      9  C   UNL     1       0.445  -5.076  -5.588  0.00  0.00    +0.000 A 
ATOM     10  C   UNL     1       0.030  -4.248  -4.563  0.00  0.00    +0.007 A 
ATOM     11  C   UNL     1       0.420  -2.919  -4.538  0.00  0.00    -0.010 A 
ATOM     12  C   UNL     1      -0.027  -2.050  -3.392  0.00  0.00    +0.124 C 
ATOM     13  N   UNL     1       0.001  -0.631  -3.762  0.00  0.00    -0.367 NA
ATOM     14  H   UNL     1       2.102  -0.673  -6.283  0.00  0.00    +0.153 HD
ATOM     15  H   UNL     1      -0.762  -0.427  -4.390  0.00  0.00    +0.129 HD
ENDROOT
BRANCH   1  18
ATOM     16  C   UNL     1      -2.461   0.076  -0.991  0.00  0.00    +0.138 C 
ATOM     17  N   UNL     1      -1.284  -0.695  -0.584  0.00  0.00    -0.270 N 
ATOM     18  C   UNL     1      -0.156  -0.641  -1.320  0.00  0.00    +0.239 C 
ATOM     19  O   UNL     1       0.819  -1.280  -0.983  0.00  0.00    -0.273 OA
BRANCH  17  20
ATOM     20  C   UNL     1      -1.331  -1.489   0.570  0.00  0.00    +0.078 A 
ATOM     21  C   UNL     1      -1.732  -2.814   0.486  0.00  0.00    +0.027 A 
ATOM     22  C   UNL     1      -1.777  -3.595   1.626  0.00  0.00    +0.002 A 
ATOM     23  C   UNL     1      -1.424  -3.059   2.850  0.00  0.00    +0.004 A 
ATOM     24  C   UNL     1      -1.024  -1.739   2.941  0.00  0.00    +0.047 A 
ATOM     25  C   UNL     1      -0.969  -0.951   1.803  0.00  0.00    +0.138 A 
BRANCH  25  26
ATOM     26  O   UNL     1      -0.570   0.346   1.889  0.00  0.00    -0.505 OA
ATOM     27  H   UNL     1      -1.291   0.970   2.051  0.00  0.00    +0.292 HD
ENDBRANCH  25  26
ENDBRANCH  17  20
ENDBRANCH   1  18
BRANCH   3  28
ATOM     28  O   UNL     1       3.132   1.044  -4.222  0.00  0.00    -0.496 OA
ATOM     29  C   UNL     1       3.657   0.489  -5.430  0.00  0.00    +0.276 C 
ENDBRANCH   3  28
TORSDOF 4
