REMARK  Name = ZINC39941772
REMARK  6 active torsions:
REMARK  status: ('A' for Active; 'I' for Inactive)
REMARK    1  A    between atoms: C_4  and  S_7
REMARK    2  A    between atoms: S_7  and  N_10
REMARK    3  A    between atoms: N_10  and  C_11
REMARK    4  A    between atoms: C_14  and  C_17
REMARK    5  A    between atoms: N_19  and  N_20
REMARK    6  A    between atoms: C_21  and  C_22
REMARK                            x       y       z     vdW  Elec       q    Type
REMARK                         _______ _______ _______ _____ _____    ______ ____
ROOT
ATOM      1  C   UNL     1       3.442  -1.978   2.288  0.00  0.00    +0.048 A 
ATOM      2  C   UNL     1       2.065  -1.989   2.082  0.00  0.00    +0.025 A 
ATOM      3  C   UNL     1       1.271  -2.850   2.795  0.00  0.00    +0.015 A 
ATOM      4  C   UNL     1       1.845  -3.716   3.731  0.00  0.00    +0.038 A 
ATOM      5  C   UNL     1       3.229  -3.702   3.935  0.00  0.00    +0.015 A 
ATOM      6  C   UNL     1       4.018  -2.843   3.215  0.00  0.00    +0.025 A 
ENDROOT
BRANCH   4   7
ATOM      7  C   UNL     1       0.994  -4.642   4.500  0.00  0.00    +0.263 C 
ATOM      8  O   UNL     1      -0.208  -4.653   4.321  0.00  0.00    -0.268 OA
ATOM      9  N   UNL     1       1.550  -5.477   5.401  0.00  0.00    -0.203 N 
ATOM     10  H   UNL     1       2.509  -5.468   5.543  0.00  0.00    +0.178 HD
BRANCH   9  11
ATOM     11  N   UNL     1       0.741  -6.357   6.132  0.00  0.00    -0.188 NA
ATOM     12  C   UNL     1       1.280  -7.168   7.008  0.00  0.00    +0.136 C 
BRANCH  12  13
ATOM     13  C   UNL     1       0.471  -8.048   7.739  0.00  0.00    +0.000 C 
ATOM     14  C   UNL     1       0.882  -8.964   8.705  0.00  0.00    +0.004 A 
ATOM     15  C   UNL     1       2.151  -9.291   9.232  0.00  0.00    +0.010 A 
ATOM     16  C   UNL     1       2.256 -10.248  10.188  0.00  0.00    +0.001 A 
ATOM     17  C   UNL     1       1.134 -10.928  10.671  0.00  0.00    +0.002 A 
ATOM     18  C   UNL     1      -0.113 -10.667  10.211  0.00  0.00    +0.026 A 
ATOM     19  C   UNL     1      -0.304  -9.677   9.210  0.00  0.00    +0.043 A 
ATOM     20  N   UNL     1      -1.392  -9.245   8.609  0.00  0.00    -0.380 N 
ATOM     21  C   UNL     1      -1.032  -8.197   7.649  0.00  0.00    +0.150 C 
ATOM     22  H   UNL     1      -2.292  -9.567   8.777  0.00  0.00    +0.160 HD
ENDBRANCH  12  13
ENDBRANCH   9  11
ENDBRANCH   4   7
BRANCH   1  23
ATOM     23  N   UNL     1       4.245  -1.104   1.563  0.00  0.00    -0.216 N 
ATOM     24  H   UNL     1       4.613  -0.316   1.991  0.00  0.00    +0.174 HD
BRANCH  23  25
ATOM     25  S   UNL     1       4.571  -1.410  -0.032  0.00  0.00    +0.072 S 
ATOM     26  O   UNL     1       5.416  -0.359  -0.482  0.00  0.00    -0.150 OA
ATOM     27  O   UNL     1       3.327  -1.706  -0.651  0.00  0.00    -0.150 OA
BRANCH  25  31
ATOM     28  C   UNL     1       7.031  -5.206  -0.192  0.00  0.00    +0.000 A 
ATOM     29  C   UNL     1       5.660  -5.263  -0.360  0.00  0.00    +0.002 A 
ATOM     30  C   UNL     1       4.909  -4.104  -0.310  0.00  0.00    +0.029 A 
ATOM     31  C   UNL     1       5.529  -2.888  -0.093  0.00  0.00    +0.108 A 
ATOM     32  C   UNL     1       6.900  -2.831   0.075  0.00  0.00    +0.029 A 
ATOM     33  C   UNL     1       7.651  -3.990   0.024  0.00  0.00    +0.002 A 
ENDBRANCH  25  31
ENDBRANCH  23  25
ENDBRANCH   1  23
TORSDOF 6
