REMARK  Name = ZINC16886308
REMARK  9 active torsions:
REMARK  status: ('A' for Active; 'I' for Inactive)
REMARK    1  A    between atoms: C_1  and  C_2
REMARK    2  A    between atoms: C_4  and  C_26
REMARK    3  A    between atoms: C_5  and  C_9
REMARK    4  A    between atoms: C_6  and  C_8
REMARK    5  A    between atoms: C_9  and  C_10
REMARK    6  A    between atoms: C_11  and  C_25
REMARK    7  A    between atoms: C_15  and  O_16
REMARK    8  A    between atoms: N_17  and  C_18
REMARK    9  A    between atoms: C_23  and  N_24
REMARK                            x       y       z     vdW  Elec       q    Type
REMARK                         _______ _______ _______ _____ _____    ______ ____
ROOT
ATOM      1  C   UNL     1      -1.825   1.239   2.694  0.00  0.00    +0.039 A 
ATOM      2  C   UNL     1      -3.199   1.382   2.749  0.00  0.00    +0.050 A 
ATOM      3  N   UNL     1      -3.846   1.007   3.842  0.00  0.00    -0.219 NA
ATOM      4  C   UNL     1      -3.193   0.508   4.881  0.00  0.00    +0.223 A 
ATOM      5  N   UNL     1      -1.877   0.360   4.869  0.00  0.00    -0.179 NA
ATOM      6  C   UNL     1      -1.166   0.711   3.804  0.00  0.00    +0.221 A 
ATOM      7  N   UNL     1      -3.904   0.132   6.008  0.00  0.00    -0.282 N 
ATOM      8  C   UNL     1      -3.952   1.954   1.576  0.00  0.00    +0.066 C 
ATOM      9  H   UNL     1      -4.874   0.145   5.997  0.00  0.00    +0.155 HD
ENDROOT
BRANCH   7  10
ATOM     10  C   UNL     1      -3.223  -0.267   7.166  0.00  0.00    +0.054 A 
ATOM     11  C   UNL     1      -1.974   0.261   7.454  0.00  0.00    +0.025 A 
ATOM     12  C   UNL     1      -1.306  -0.130   8.600  0.00  0.00    +0.002 A 
ATOM     13  C   UNL     1      -1.875  -1.056   9.455  0.00  0.00    +0.002 A 
ATOM     14  C   UNL     1      -3.118  -1.591   9.172  0.00  0.00    +0.024 A 
ATOM     15  C   UNL     1      -3.797  -1.201   8.028  0.00  0.00    +0.046 A 
BRANCH  15  16
ATOM     16  N   UNL     1      -5.055  -1.742   7.740  0.00  0.00    -0.357 N 
ATOM     17  H   UNL     1      -5.529  -1.468   6.939  0.00  0.00    +0.142 HD
ATOM     18  H   UNL     1      -5.453  -2.391   8.341  0.00  0.00    +0.142 HD
ENDBRANCH  15  16
ENDBRANCH   7  10
BRANCH   6  19
ATOM     19  O   UNL     1       0.180   0.557   3.795  0.00  0.00    -0.492 OA
ATOM     20  H   UNL     1       0.666   1.326   4.123  0.00  0.00    +0.294 HD
ENDBRANCH   6  19
BRANCH   1  21
ATOM     21  C   UNL     1      -1.056   1.650   1.465  0.00  0.00    +0.078 C 
BRANCH  21  26
ATOM     22  C   UNL     1       0.614  -3.065  -1.429  0.00  0.00    +0.044 C 
ATOM     23  C   UNL     1       0.179  -1.835  -0.675  0.00  0.00    -0.050 A 
ATOM     24  C   UNL     1      -1.117  -1.369  -0.801  0.00  0.00    +0.007 A 
ATOM     25  C   UNL     1      -1.516  -0.241  -0.108  0.00  0.00    -0.046 A 
ATOM     26  C   UNL     1      -0.620   0.420   0.711  0.00  0.00    -0.037 A 
ATOM     27  C   UNL     1       0.677  -0.042   0.833  0.00  0.00    -0.046 A 
ATOM     28  C   UNL     1       1.075  -1.173   0.144  0.00  0.00    +0.007 A 
ATOM     29  C   UNL     1       1.655   0.682   1.720  0.00  0.00    +0.044 C 
ATOM     30  C   UNL     1      -2.928   0.267  -0.246  0.00  0.00    +0.044 C 
ENDBRANCH  21  26
ENDBRANCH   1  21
TORSDOF 5
