REMARK  Name = ZINC13126069
REMARK  2 active torsions:
REMARK  status: ('A' for Active; 'I' for Inactive)
REMARK    1  A    between atoms: C_7  and  N_12
REMARK    2  A    between atoms: C_8  and  O_11
REMARK                            x       y       z     vdW  Elec       q    Type
REMARK                         _______ _______ _______ _____ _____    ______ ____
ROOT
ATOM      1  C   UNL     1      -0.017   1.387   0.010  0.00  0.00    +0.027 A 
ATOM      2  C   UNL     1       1.173   2.087   0.002  0.00  0.00    +0.020 A 
ATOM      3  C   UNL     1       2.382   1.409  -0.013  0.00  0.00    +0.032 A 
ATOM      4  C   UNL     1       2.412   0.029  -0.021  0.00  0.00    +0.043 A 
ATOM      5  C   UNL     1       1.224  -0.693  -0.013  0.00  0.00    +0.066 A 
ATOM      6  C   UNL     1       0.002  -0.004   0.002  0.00  0.00    +0.033 A 
ATOM      7  C   UNL     1      -1.052  -1.039   0.006  0.00  0.00    +0.150 A 
ATOM      8  C   UNL     1      -0.388  -2.269  -0.006  0.00  0.00    +0.219 A 
ATOM      9  N   UNL     1       0.950  -2.051  -0.018  0.00  0.00    -0.323 N 
ATOM     10  H   UNL     1       1.622  -2.750  -0.029  0.00  0.00    +0.169 HD
ATOM     11 BR   UNL     1       4.070  -0.880  -0.042  0.00  0.00    -0.048 Br
ATOM     12 BR   UNL     1       1.153   3.978   0.012  0.00  0.00    -0.050 Br
ENDROOT
BRANCH   7  13
ATOM     13  N   UNL     1      -2.374  -0.840   0.021  0.00  0.00    -0.173 NA
ATOM     14  N   UNL     1      -3.178  -1.848   0.023  0.00  0.00    -0.190 N 
ATOM     15  C   UNL     1      -4.513  -1.647   0.037  0.00  0.00    +0.317 C 
ATOM     16  O   UNL     1      -5.271  -2.599   0.040  0.00  0.00    -0.251 OA
ATOM     17  N   UNL     1      -5.005  -0.393   0.050  0.00  0.00    -0.312 N 
ATOM     18  H   UNL     1      -4.400   0.366   0.048  0.00  0.00    +0.147 HD
ATOM     19  H   UNL     1      -5.964  -0.248   0.060  0.00  0.00    +0.147 HD
ATOM     20  H   UNL     1      -2.824  -2.751   0.014  0.00  0.00    +0.179 HD
ENDBRANCH   7  13
BRANCH   8  21
ATOM     21  O   UNL     1      -0.983  -3.480  -0.007  0.00  0.00    -0.492 OA
ATOM     22  H   UNL     1      -1.165  -3.828  -0.890  0.00  0.00    +0.294 HD
ENDBRANCH   8  21
TORSDOF 2
