REMARK  Name = ZINC22873364
REMARK  9 active torsions:
REMARK  status: ('A' for Active; 'I' for Inactive)
REMARK    1  A    between atoms: C_1  and  C_2
REMARK    2  A    between atoms: C_3  and  N_15
REMARK    3  A    between atoms: N_6  and  C_9
REMARK    4  A    between atoms: N_7  and  C_8
REMARK    5  A    between atoms: C_16  and  C_18
REMARK    6  A    between atoms: C_18  and  N_19
REMARK    7  A    between atoms: N_22  and  C_25
REMARK    8  A    between atoms: C_25  and  C_26
REMARK    9  A    between atoms: C_26  and  O_27
REMARK                            x       y       z     vdW  Elec       q    Type
REMARK                         _______ _______ _______ _____ _____    ______ ____
ROOT
ATOM      1  N   UNL     1       0.123  -0.219  -2.458  0.00  0.00    -0.281 N 
ATOM      2  C   UNL     1       0.644  -0.894  -3.501  0.00  0.00    +0.201 C 
ATOM      3  O   UNL     1       1.159  -1.978  -3.326  0.00  0.00    -0.278 OA
ATOM      4  H   UNL     1      -0.224   0.678  -2.585  0.00  0.00    +0.155 HD
ENDROOT
BRANCH   1   7
ATOM      5  C   UNL     1      -2.433  -0.669  -0.821  0.00  0.00    +0.067 C 
ATOM      6  C   UNL     1      -1.022  -1.031  -0.432  0.00  0.00    +0.059 A 
ATOM      7  C   UNL     1       0.082  -0.816  -1.182  0.00  0.00    +0.121 A 
ATOM      8  C   UNL     1       1.227  -1.319  -0.422  0.00  0.00    +0.293 A 
ATOM      9  O   UNL     1       2.393  -1.300  -0.771  0.00  0.00    -0.264 OA
ATOM     10  N   UNL     1       0.744  -1.806   0.740  0.00  0.00    -0.216 N 
ATOM     11  N   UNL     1      -0.644  -1.626   0.742  0.00  0.00    -0.282 N 
ATOM     12  C   UNL     1      -1.549  -2.016   1.826  0.00  0.00    +0.171 C 
BRANCH  10  13
ATOM     13  C   UNL     1       1.498  -2.385   1.765  0.00  0.00    +0.067 A 
ATOM     14  C   UNL     1       1.100  -3.591   2.326  0.00  0.00    +0.028 A 
ATOM     15  C   UNL     1       1.848  -4.160   3.338  0.00  0.00    +0.002 A 
ATOM     16  C   UNL     1       2.992  -3.531   3.793  0.00  0.00    +0.000 A 
ATOM     17  C   UNL     1       3.391  -2.329   3.236  0.00  0.00    +0.002 A 
ATOM     18  C   UNL     1       2.651  -1.758   2.220  0.00  0.00    +0.028 A 
ENDBRANCH  10  13
ENDBRANCH   1   7
BRANCH   2  19
ATOM     19  C   UNL     1       0.588  -0.302  -4.886  0.00  0.00    +0.019 C 
BRANCH  19  20
ATOM     20  N   UNL     1       1.218  -1.224  -5.839  0.00  0.00    +0.387 N 
ATOM     21  C   UNL     1       2.647  -1.350  -5.527  0.00  0.00    -0.063 C 
ATOM     22  C   UNL     1       3.300  -2.326  -6.508  0.00  0.00    +0.066 C 
ATOM     23  N   UNL     1       3.123  -1.829  -7.880  0.00  0.00    -0.304 NA
ATOM     24  C   UNL     1       1.696  -1.674  -8.199  0.00  0.00    +0.066 C 
ATOM     25  C   UNL     1       1.057  -0.704  -7.203  0.00  0.00    -0.063 C 
ATOM     26  H   UNL     1       0.778  -2.130  -5.771  0.00  0.00    -0.081 HD
BRANCH  23  27
ATOM     27  C   UNL     1       3.786  -2.711  -8.849  0.00  0.00    +0.112 C 
BRANCH  27  28
ATOM     28  C   UNL     1       3.797  -2.041 -10.224  0.00  0.00    +0.171 C 
BRANCH  28  29
ATOM     29  O   UNL     1       4.603  -0.862 -10.173  0.00  0.00    -0.394 OA
ATOM     30  H   UNL     1       4.655  -0.384 -11.013  0.00  0.00    +0.209 HD
ENDBRANCH  28  29
ENDBRANCH  27  28
ENDBRANCH  23  27
ENDBRANCH  19  20
ENDBRANCH   2  19
TORSDOF 7
