REMARK  Name = ZINC37029736
REMARK  5 active torsions:
REMARK  status: ('A' for Active; 'I' for Inactive)
REMARK    1  A    between atoms: C_4  and  C_7
REMARK    2  A    between atoms: C_7  and  C_9
REMARK    3  A    between atoms: C_7  and  N_22
REMARK    4  A    between atoms: N_11  and  C_12
REMARK    5  A    between atoms: C_14  and  N_19
REMARK                            x       y       z     vdW  Elec       q    Type
REMARK                         _______ _______ _______ _____ _____    ______ ____
ROOT
ATOM      1  C   UNL     1       4.009  -1.159  -1.444  0.00  0.00    +0.207 C 
ATOM      2  O   UNL     1       3.795  -2.308  -1.771  0.00  0.00    -0.277 OA
ATOM      3  N   UNL     1       4.527  -0.291  -2.335  0.00  0.00    -0.285 N 
ATOM      4  H   UNL     1       4.638   0.642  -2.095  0.00  0.00    +0.155 HD
ENDROOT
BRANCH   3   5
ATOM      5  C   UNL     1       4.907  -0.736  -3.607  0.00  0.00    +0.054 A 
ATOM      6  C   UNL     1       4.183  -1.739  -4.238  0.00  0.00    +0.057 A 
ATOM      7  C   UNL     1       4.559  -2.176  -5.493  0.00  0.00    +0.128 A 
ATOM      8  C   UNL     1       5.656  -1.615  -6.122  0.00  0.00    +0.034 A 
ATOM      9  C   UNL     1       6.380  -0.617  -5.497  0.00  0.00    +0.024 A 
ATOM     10  C   UNL     1       6.005  -0.171  -4.243  0.00  0.00    +0.062 A 
ATOM     11 CL   UNL     1       6.910   1.088  -3.462  0.00  0.00    -0.082 Cl
BRANCH   7  12
ATOM     12  N   UNL     1       3.788  -3.245  -6.166  0.00  0.00    +0.056 N 
ATOM     13  O   UNL     1       2.829  -3.735  -5.617  0.00  0.00    -0.126 OA
ATOM     14  O   UNL     1       4.116  -3.628  -7.264  0.00  0.00    -0.126 OA
ENDBRANCH   7  12
ENDBRANCH   3   5
BRANCH   1  15
ATOM     15  C   UNL     1       3.694  -0.703  -0.043  0.00  0.00    +0.044 C 
BRANCH  15  19
ATOM     16  C   UNL     1      -0.036   1.378  -0.028  0.00  0.00    +0.000 A 
ATOM     17  C   UNL     1       1.151   2.087  -0.028  0.00  0.00    +0.000 A 
ATOM     18  C   UNL     1       2.358   1.413  -0.033  0.00  0.00    +0.002 A 
ATOM     19  C   UNL     1       2.378   0.031  -0.037  0.00  0.00    -0.053 A 
ATOM     20  C   UNL     1       1.191  -0.678  -0.036  0.00  0.00    +0.002 A 
ATOM     21  C   UNL     1      -0.016  -0.004  -0.033  0.00  0.00    +0.000 A 
ENDBRANCH  15  19
BRANCH  15  22
ATOM     22  N   UNL     1       3.607  -1.871   0.844  0.00  0.00    +0.388 N 
ATOM     23  H   UNL     1       2.877  -2.487   0.519  0.00  0.00    -0.088 HD
ATOM     24  H   UNL     1       4.489  -2.363   0.840  0.00  0.00    -0.088 HD
ATOM     25  H   UNL     1       3.397  -1.566   1.782  0.00  0.00    -0.088 HD
ENDBRANCH  15  22
ENDBRANCH   1  15
TORSDOF 5
