REMARK  Name = ZINC44545433
REMARK  7 active torsions:
REMARK  status: ('A' for Active; 'I' for Inactive)
REMARK    1  A    between atoms: C_1  and  C_2
REMARK    2  A    between atoms: C_2  and  C_3
REMARK    3  A    between atoms: C_2  and  C_4
REMARK    4  A    between atoms: C_2  and  C_5
REMARK    5  A    between atoms: C_7  and  C_16
REMARK    6  A    between atoms: C_8  and  O_15
REMARK    7  A    between atoms: C_11  and  O_13
REMARK                            x       y       z     vdW  Elec       q    Type
REMARK                         _______ _______ _______ _____ _____    ______ ____
ROOT
ATOM      1  C   UNL     1       0.460  -0.467  -1.335  0.00  0.00    -0.034 C 
ATOM      2  C   UNL     1       0.940   0.422  -2.194  0.00  0.00    +0.014 C 
ATOM      3  C   UNL     1       1.831  -0.016  -3.285  0.00  0.00    +0.026 C 
ATOM      4  C   UNL     1       1.880  -1.339  -3.621  0.00  0.00    +0.122 C 
ATOM      5  C   UNL     1       0.993  -2.325  -2.904  0.00  0.00    +0.178 C 
ATOM      6  C   UNL     1       0.843  -1.919  -1.436  0.00  0.00    +0.166 C 
ATOM      7 CL   UNL     1       1.730  -3.968  -2.993  0.00  0.00    -0.110 Cl
ENDROOT
BRANCH   3   8
ATOM      8  C   UNL     1       2.658   0.962  -4.003  0.00  0.00    +0.055 C 
ATOM      9  C   UNL     1       2.412   1.222  -5.330  0.00  0.00    +0.100 C 
ATOM     10  C   UNL     1       3.188   2.156  -6.052  0.00  0.00    +0.206 C 
ATOM     11  O   UNL     1       2.944   2.363  -7.227  0.00  0.00    -0.286 OA
ATOM     12  C   UNL     1       4.293   2.885  -5.394  0.00  0.00    +0.034 A 
ATOM     13  C   UNL     1       5.058   3.806  -6.102  0.00  0.00    +0.012 A 
ATOM     14  C   UNL     1       6.088   4.479  -5.466  0.00  0.00    +0.001 A 
ATOM     15  C   UNL     1       6.364   4.243  -4.133  0.00  0.00    +0.001 A 
ATOM     16  C   UNL     1       5.613   3.329  -3.413  0.00  0.00    +0.012 A 
ATOM     17  C   UNL     1       4.575   2.646  -4.037  0.00  0.00    +0.033 A 
ATOM     18  C   UNL     1       3.752   1.669  -3.293  0.00  0.00    +0.196 C 
ATOM     19  O   UNL     1       3.970   1.446  -2.119  0.00  0.00    -0.287 OA
ATOM     20 CL   UNL     1       1.122   0.385  -6.136  0.00  0.00    -0.079 Cl
ENDBRANCH   3   8
BRANCH   1  22
ATOM     21  C   UNL     1      -0.705   1.491  -0.356  0.00  0.00    +0.015 C 
ATOM     22  C   UNL     1      -0.475  -0.017  -0.242  0.00  0.00    -0.014 C 
ATOM     23  C   UNL     1       0.143  -0.337   1.121  0.00  0.00    +0.015 C 
ATOM     24  C   UNL     1      -1.812  -0.748  -0.381  0.00  0.00    +0.015 C 
ENDBRANCH   1  22
BRANCH   6  25
ATOM     25  O   UNL     1       2.080  -2.130  -0.754  0.00  0.00    -0.386 OA
ATOM     26  H   UNL     1       2.391  -3.045  -0.777  0.00  0.00    +0.210 HD
ENDBRANCH   6  25
BRANCH   4  27
ATOM     27  O   UNL     1       2.716  -1.761  -4.588  0.00  0.00    -0.509 OA
ATOM     28  H   UNL     1       3.300  -1.071  -4.933  0.00  0.00    +0.292 HD
ENDBRANCH   4  27
TORSDOF 4
