REMARK  Name = ZINC39693327
REMARK  7 active torsions:
REMARK  status: ('A' for Active; 'I' for Inactive)
REMARK    1  A    between atoms: C_10  and  C_11
REMARK    2  A    between atoms: C_11  and  C_12
REMARK    3  A    between atoms: N_14  and  C_15
REMARK    4  A    between atoms: C_15  and  C_16
REMARK    5  A    between atoms: C_16  and  N_17
REMARK    6  A    between atoms: C_18  and  C_20
REMARK    7  A    between atoms: C_31  and  C_33
REMARK                            x       y       z     vdW  Elec       q    Type
REMARK                         _______ _______ _______ _____ _____    ______ ____
ROOT
ATOM      1  N   UNL     1       8.946   4.271   3.832  0.00  0.00    -0.314 N 
ATOM      2  C   UNL     1       9.650   3.399   4.581  0.00  0.00    +0.218 C 
ATOM      3  O   UNL     1       9.976   2.327   4.118  0.00  0.00    -0.275 OA
ATOM      4  H   UNL     1       8.684   5.128   4.202  0.00  0.00    +0.149 HD
ENDROOT
BRANCH   2   5
ATOM      5  C   UNL     1      10.031   3.757   5.995  0.00  0.00    +0.100 C 
ATOM      6  C   UNL     1      10.167   2.481   6.855  0.00  0.00    +0.121 C 
ATOM      7  N   UNL     1      11.612   2.154   6.813  0.00  0.00    -0.300 N 
ATOM      8  C   UNL     1      12.290   3.470   6.894  0.00  0.00    +0.115 C 
ATOM      9  C   UNL     1      11.425   4.405   6.025  0.00  0.00    -0.004 C 
ATOM     10  C   UNL     1      11.999   4.493   4.614  0.00  0.00    -0.010 C 
ATOM     11  C   UNL     1      13.360   5.191   4.664  0.00  0.00    -0.082 C 
ATOM     12  N   UNL     1      13.203   6.535   5.234  0.00  0.00    +0.379 N 
ATOM     13  C   UNL     1      12.739   6.438   6.624  0.00  0.00    -0.082 C 
ATOM     14  C   UNL     1      11.351   5.792   6.657  0.00  0.00    -0.010 C 
ATOM     15  C   UNL     1      12.180   0.935   6.723  0.00  0.00    +0.219 C 
ATOM     16  O   UNL     1      13.388   0.830   6.700  0.00  0.00    -0.275 OA
ATOM     17  H   UNL     1      14.089   7.015   5.210  0.00  0.00    -0.086 HD
ATOM     18  H   UNL     1      12.528   7.052   4.691  0.00  0.00    -0.086 HD
BRANCH  15  19
ATOM     19  C   UNL     1      11.315  -0.296   6.650  0.00  0.00    +0.079 C 
ATOM     20  C   UNL     1      12.202  -1.545   6.564  0.00  0.00    +0.017 C 
ATOM     21  C   UNL     1      11.306  -2.759   6.312  0.00  0.00    +0.027 C 
ATOM     22  C   UNL     1      10.164  -2.770   7.287  0.00  0.00    -0.031 C 
ATOM     23  C   UNL     1       9.793  -1.742   7.980  0.00  0.00    -0.030 C 
ATOM     24  C   UNL     1      10.454  -0.395   7.911  0.00  0.00    +0.039 C 
ENDBRANCH  15  19
ENDBRANCH   2   5
BRANCH   1  25
ATOM     25  C   UNL     1       8.575   3.923   2.458  0.00  0.00    +0.123 C 
BRANCH  25  26
ATOM     26  C   UNL     1       7.787   5.077   1.834  0.00  0.00    +0.123 C 
BRANCH  26  29
ATOM     27  C   UNL     1       6.713   5.600  -0.289  0.00  0.00    +0.217 C 
ATOM     28  O   UNL     1       6.386   6.672   0.174  0.00  0.00    -0.275 OA
ATOM     29  N   UNL     1       7.417   4.729   0.460  0.00  0.00    -0.314 N 
ATOM     30  H   UNL     1       7.678   3.871   0.090  0.00  0.00    +0.149 HD
BRANCH  27  31
ATOM     31  C   UNL     1       6.331   5.242  -1.702  0.00  0.00    +0.131 C 
BRANCH  31  41
ATOM     32  C   UNL     1       7.522   9.599  -4.111  0.00  0.00    +0.001 A 
ATOM     33  C   UNL     1       8.258   8.557  -3.547  0.00  0.00    +0.001 A 
ATOM     34  C   UNL     1       7.636   7.500  -2.958  0.00  0.00    +0.009 A 
ATOM     35  C   UNL     1       6.232   7.454  -2.916  0.00  0.00    -0.014 A 
ATOM     36  C   UNL     1       5.484   8.513  -3.489  0.00  0.00    -0.018 A 
ATOM     37  C   UNL     1       6.162   9.589  -4.088  0.00  0.00    +0.008 A 
ATOM     38  C   UNL     1       4.081   8.467  -3.446  0.00  0.00    +0.008 A 
ATOM     39  C   UNL     1       3.459   7.409  -2.857  0.00  0.00    +0.001 A 
ATOM     40  C   UNL     1       4.194   6.368  -2.293  0.00  0.00    +0.005 A 
ATOM     41  C   UNL     1       5.555   6.378  -2.317  0.00  0.00    -0.031 A 
ENDBRANCH  31  41
ENDBRANCH  27  31
ENDBRANCH  26  29
ENDBRANCH  25  26
ENDBRANCH   1  25
TORSDOF 7
