REMARK  Name = ZINC42139305
REMARK  4 active torsions:
REMARK  status: ('A' for Active; 'I' for Inactive)
REMARK    1  A    between atoms: C_1  and  C_2
REMARK    2  A    between atoms: C_2  and  C_18
REMARK    3  A    between atoms: C_9  and  C_15
REMARK    4  A    between atoms: C_11  and  N_14
REMARK                            x       y       z     vdW  Elec       q    Type
REMARK                         _______ _______ _______ _____ _____    ______ ____
ROOT
ATOM      1  C   UNL     1      -0.052   1.549  -0.028  0.00  0.00    +0.043 C 
ATOM      2  C   UNL     1      -0.021   0.019  -0.025  0.00  0.00    +0.080 C 
ATOM      3  C   UNL     1       0.705  -0.481  -1.280  0.00  0.00    +0.141 C 
ATOM      4  N   UNL     1       0.886  -1.936  -1.162  0.00  0.00    -0.310 N 
ATOM      5  C   UNL     1       1.477  -2.461   0.079  0.00  0.00    +0.134 C 
ATOM      6  C   UNL     1       0.714  -1.865   1.268  0.00  0.00    +0.179 C 
ATOM      7  O   UNL     1       0.675  -0.442   1.136  0.00  0.00    -0.371 OA
ATOM      8  C   UNL     1       0.512  -2.787  -2.189  0.00  0.00    +0.134 A 
ATOM      9  C   UNL     1       1.405  -3.041  -3.244  0.00  0.00    +0.078 A 
ATOM     10  C   UNL     1       1.007  -3.904  -4.272  0.00  0.00    +0.040 A 
ATOM     11  C   UNL     1      -0.258  -4.473  -4.202  0.00  0.00    +0.044 A 
ATOM     12  C   UNL     1      -1.082  -4.171  -3.125  0.00  0.00    +0.135 A 
ATOM     13  N   UNL     1      -0.681  -3.359  -2.167  0.00  0.00    -0.238 NA
ATOM     14  C   UNL     1      -1.452  -0.521  -0.012  0.00  0.00    +0.043 C 
ENDROOT
BRANCH   9  15
ATOM     15  C   UNL     1       2.737  -2.410  -3.268  0.00  0.00    +0.245 C 
ATOM     16  O   UNL     1       3.111  -1.744  -2.322  0.00  0.00    -0.270 OA
ATOM     17  N   UNL     1       3.539  -2.570  -4.339  0.00  0.00    -0.325 N 
ATOM     18  H   UNL     1       3.241  -3.101  -5.094  0.00  0.00    +0.145 HD
ATOM     19  H   UNL     1       4.416  -2.155  -4.354  0.00  0.00    +0.145 HD
ENDBRANCH   9  15
BRANCH  11  20
ATOM     20  N   UNL     1      -0.700  -5.341  -5.208  0.00  0.00    -0.357 N 
ATOM     21  H   UNL     1      -0.121  -5.549  -5.958  0.00  0.00    +0.142 HD
ATOM     22  H   UNL     1      -1.584  -5.736  -5.155  0.00  0.00    +0.142 HD
ENDBRANCH  11  20
TORSDOF 2
