REMARK  Name = ZINC05736580
REMARK  6 active torsions:
REMARK  status: ('A' for Active; 'I' for Inactive)
REMARK    1  A    between atoms: C_1  and  C_2
REMARK    2  A    between atoms: C_2  and  N_3
REMARK    3  A    between atoms: N_3  and  C_4
REMARK    4  A    between atoms: N_3  and  C_6
REMARK    5  A    between atoms: C_4  and  C_5
REMARK    6  A    between atoms: C_15  and  N_24
REMARK                            x       y       z     vdW  Elec       q    Type
REMARK                         _______ _______ _______ _____ _____    ______ ____
ROOT
ATOM      1  C   UNL     1       2.374  -6.859   0.869  0.00  0.00    +0.033 A 
ATOM      2  C   UNL     1       3.589  -6.189   0.864  0.00  0.00    +0.025 A 
ATOM      3  C   UNL     1       3.633  -4.839   0.565  0.00  0.00    +0.029 A 
ATOM      4  C   UNL     1       2.464  -4.159   0.272  0.00  0.00    +0.074 A 
ATOM      5  C   UNL     1       1.241  -4.827   0.272  0.00  0.00    +0.151 A 
ATOM      6  C   UNL     1       1.199  -6.178   0.573  0.00  0.00    +0.071 A 
ATOM      7  O   UNL     1       0.096  -4.161  -0.026  0.00  0.00    -0.452 OA
ATOM      8  C   UNL     1       0.082  -2.801  -0.014  0.00  0.00    +0.152 A 
ATOM      9  C   UNL     1      -1.142  -2.128   0.003  0.00  0.00    +0.071 A 
ATOM     10  C   UNL     1      -1.194  -0.751   0.011  0.00  0.00    +0.036 A 
ATOM     11  C   UNL     1       0.002  -0.004   0.002  0.00  0.00    +0.005 A 
ATOM     12  C   UNL     1      -0.017   1.400   0.010  0.00  0.00    +0.010 A 
ATOM     13  C   UNL     1       1.156   2.090   0.002  0.00  0.00    +0.001 A 
ATOM     14  C   UNL     1       2.381   1.423  -0.014  0.00  0.00    +0.001 A 
ATOM     15  C   UNL     1       2.438   0.064  -0.023  0.00  0.00    +0.010 A 
ATOM     16  C   UNL     1       1.247  -0.683  -0.014  0.00  0.00    +0.009 A 
ATOM     17  C   UNL     1       1.267  -2.089  -0.021  0.00  0.00    +0.082 A 
ATOM     18  N   UNL     1       2.490  -2.784  -0.030  0.00  0.00    -0.308 N 
ATOM     19  H   UNL     1       3.323  -2.332  -0.237  0.00  0.00    +0.152 HD
ENDROOT
BRANCH  10  20
ATOM     20  N   UNL     1      -2.428  -0.097   0.027  0.00  0.00    -0.357 N 
ATOM     21  H   UNL     1      -2.463   0.872   0.033  0.00  0.00    +0.142 HD
ATOM     22  H   UNL     1      -3.250  -0.612   0.033  0.00  0.00    +0.142 HD
ENDBRANCH  10  20
BRANCH   1  23
ATOM     23  N   UNL     1       2.330  -8.224   1.174  0.00  0.00    -0.330 N 
BRANCH  23  25
ATOM     24  C   UNL     1       3.829  -8.878   2.992  0.00  0.00    +0.024 C 
ATOM     25  C   UNL     1       3.567  -8.944   1.486  0.00  0.00    +0.102 C 
ENDBRANCH  23  25
BRANCH  23  26
ATOM     26  C   UNL     1       1.048  -8.933   1.180  0.00  0.00    +0.102 C 
ATOM     27  C   UNL     1       0.770  -9.497  -0.215  0.00  0.00    +0.024 C 
ENDBRANCH  23  26
ENDBRANCH   1  23
TORSDOF 4
