REMARK  Name = ZINC40218734
REMARK  5 active torsions:
REMARK  status: ('A' for Active; 'I' for Inactive)
REMARK    1  A    between atoms: C_8  and  C_11
REMARK    2  A    between atoms: N_13  and  C_14
REMARK    3  A    between atoms: C_14  and  C_15
REMARK    4  A    between atoms: C_15  and  S_16
REMARK    5  A    between atoms: S_16  and  N_19
REMARK                            x       y       z     vdW  Elec       q    Type
REMARK                         _______ _______ _______ _____ _____    ______ ____
ROOT
ATOM      1  C   UNL     1       2.859  -0.454  -2.507  0.00  0.00    +0.219 C 
ATOM      2  O   UNL     1       2.272  -1.155  -3.304  0.00  0.00    -0.275 OA
ATOM      3  N   UNL     1       4.143  -0.110  -2.731  0.00  0.00    -0.313 N 
ATOM      4  H   UNL     1       4.613   0.451  -2.094  0.00  0.00    +0.149 HD
ENDROOT
BRANCH   1  12
ATOM      5  C   UNL     1      -0.019   1.526   0.010  0.00  0.00    +0.007 C 
ATOM      6  C   UNL     1       1.417   2.055  -0.000  0.00  0.00    -0.009 C 
ATOM      7  C   UNL     1       2.157   1.548   1.239  0.00  0.00    +0.007 C 
ATOM      8  C   UNL     1       2.178   0.019   1.231  0.00  0.00    -0.009 C 
ATOM      9  C   UNL     1       0.742  -0.511   1.242  0.00  0.00    +0.007 C 
ATOM     10  C   UNL     1       0.002  -0.004   0.002  0.00  0.00    -0.009 C 
ATOM     11  C   UNL     1       0.718  -0.497  -1.257  0.00  0.00    +0.019 C 
ATOM     12  C   UNL     1       2.154   0.032  -1.268  0.00  0.00    +0.048 C 
ATOM     13  C   UNL     1       2.133   1.562  -1.259  0.00  0.00    +0.019 C 
ATOM     14  C   UNL     1       2.894  -0.475  -0.028  0.00  0.00    +0.019 C 
ENDBRANCH   1  12
BRANCH   3  15
ATOM     15  C   UNL     1       4.828  -0.582  -3.937  0.00  0.00    +0.128 C 
BRANCH  15  16
ATOM     16  C   UNL     1       6.264  -0.052  -3.947  0.00  0.00    +0.203 C 
BRANCH  16  17
ATOM     17  S   UNL     1       7.113  -0.637  -5.440  0.00  0.00    +0.028 S 
ATOM     18  O   UNL     1       7.299  -2.045  -5.377  0.00  0.00    -0.158 OA
ATOM     19  O   UNL     1       6.547  -0.032  -6.594  0.00  0.00    -0.158 OA
BRANCH  17  20
ATOM     20  N   UNL     1       8.640  -0.005  -5.337  0.00  0.00    -0.208 NA
ATOM     21  H   UNL     1       9.389  -0.478  -5.731  0.00  0.00    +0.144 HD
ATOM     22  H   UNL     1       8.785   0.840  -4.882  0.00  0.00    +0.144 HD
ENDBRANCH  17  20
ENDBRANCH  16  17
ENDBRANCH  15  16
ENDBRANCH   3  15
TORSDOF 5
