REMARK  Name = ZINC22062283
REMARK  5 active torsions:
REMARK  status: ('A' for Active; 'I' for Inactive)
REMARK    1  A    between atoms: C_1  and  C_2
REMARK    2  A    between atoms: C_10  and  O_26
REMARK    3  A    between atoms: C_11  and  O_24
REMARK    4  A    between atoms: C_21  and  O_23
REMARK    5  A    between atoms: O_24  and  C_25
REMARK                            x       y       z     vdW  Elec       q    Type
REMARK                         _______ _______ _______ _____ _____    ______ ____
ROOT
ATOM      1  C   UNL     1       3.657   1.323   3.521  0.00  0.00    +0.014 C 
ATOM      2  C   UNL     1       2.253   0.714   3.525  0.00  0.00    -0.003 C 
ATOM      3  C   UNL     1       2.331  -0.763   3.188  0.00  0.00    +0.010 C 
ATOM      4  C   UNL     1       3.079  -0.875   1.868  0.00  0.00    +0.009 C 
ATOM      5  C   UNL     1       2.416  -0.082   0.749  0.00  0.00    +0.023 C 
ATOM      6  C   UNL     1       1.120  -0.731   0.348  0.00  0.00    -0.037 A 
ATOM      7  C   UNL     1       1.072  -2.120   0.326  0.00  0.00    +0.008 A 
ATOM      8  C   UNL     1      -0.082  -2.780  -0.043  0.00  0.00    +0.049 A 
ATOM      9  C   UNL     1      -1.208  -2.054  -0.396  0.00  0.00    +0.159 A 
ATOM     10  C   UNL     1      -1.164  -0.666  -0.372  0.00  0.00    +0.165 A 
ATOM     11  C   UNL     1       0.002  -0.004   0.002  0.00  0.00    +0.001 A 
ATOM     12  C   UNL     1      -0.018   1.502   0.010  0.00  0.00    +0.039 C 
ATOM     13  C   UNL     1       1.404   2.058  -0.000  0.00  0.00    +0.009 C 
ATOM     14  C   UNL     1       2.192   1.380   1.146  0.00  0.00    +0.000 C 
ATOM     15  C   UNL     1       1.383   1.389   2.431  0.00  0.00    +0.001 C 
ATOM     16  C   UNL     1       1.128   2.770   3.047  0.00  0.00    +0.007 C 
ATOM     17  C   UNL     1       0.849   2.439   4.539  0.00  0.00    +0.032 C 
ATOM     18  C   UNL     1       1.535   1.079   4.820  0.00  0.00    +0.121 C 
ENDROOT
BRANCH  18  19
ATOM     19  O   UNL     1       2.476   1.210   5.888  0.00  0.00    -0.391 OA
ATOM     20  H   UNL     1       2.128   1.471   6.898  0.00  0.00    +0.210 HD
ENDBRANCH  18  19
BRANCH  10  21
ATOM     21  O   UNL     1      -2.267   0.051  -0.716  0.00  0.00    -0.491 OA
ATOM     22  C   UNL     1      -2.409   0.402  -2.094  0.00  0.00    +0.277 C 
ENDBRANCH  10  21
BRANCH   9  23
ATOM     23  O   UNL     1      -2.349  -2.696  -0.762  0.00  0.00    -0.503 OA
ATOM     24  H   UNL     1      -3.241  -2.116  -1.042  0.00  0.00    +0.292 HD
ENDBRANCH   9  23
TORSDOF 3
