REMARK  Name = ZINC39841306
REMARK  12 active torsions:
REMARK  status: ('A' for Active; 'I' for Inactive)
REMARK    1  A    between atoms: C_1  and  C_2
REMARK    2  A    between atoms: C_2  and  C_3
REMARK    3  A    between atoms: C_3  and  C_4
REMARK    4  A    between atoms: C_4  and  C_5
REMARK    5  A    between atoms: C_5  and  C_6
REMARK    6  A    between atoms: C_6  and  N_7
REMARK    7  A    between atoms: C_8  and  C_10
REMARK    8  A    between atoms: C_16  and  C_23
REMARK    9  A    between atoms: N_24  and  C_27
REMARK   10  A    between atoms: C_25  and  N_26
REMARK   11  A    between atoms: C_27  and  C_28
REMARK   12  A    between atoms: C_28  and  C_29
REMARK                            x       y       z     vdW  Elec       q    Type
REMARK                         _______ _______ _______ _____ _____    ______ ____
ROOT
ATOM      1  C   UNL     1      -5.904  -6.510  -0.497  0.00  0.00    +0.075 A 
ATOM      2  C   UNL     1      -6.983  -5.631  -0.382  0.00  0.00    +0.033 A 
ATOM      3  C   UNL     1      -8.175  -6.125   0.143  0.00  0.00    +0.083 A 
ATOM      4  C   UNL     1      -8.261  -7.487   0.540  0.00  0.00    +0.150 A 
ATOM      5  N   UNL     1      -9.415  -7.940   1.042  0.00  0.00    -0.211 NA
ATOM      6  C   UNL     1     -10.481  -7.161   1.182  0.00  0.00    +0.145 A 
ATOM      7  C   UNL     1     -11.659  -7.723   1.721  0.00  0.00    -0.007 A 
ATOM      8  C   UNL     1     -12.765  -6.946   1.874  0.00  0.00    +0.008 A 
ATOM      9  C   UNL     1     -12.724  -5.596   1.495  0.00  0.00    +0.019 A 
ATOM     10  C   UNL     1     -11.590  -5.072   0.980  0.00  0.00    +0.096 A 
ATOM     11  N   UNL     1     -10.474  -5.840   0.822  0.00  0.00    -0.267 N 
ATOM     12  C   UNL     1      -9.357  -5.277   0.302  0.00  0.00    +0.268 A 
ATOM     13  O   UNL     1      -9.338  -4.104  -0.022  0.00  0.00    -0.267 OA
ATOM     14  C   UNL     1     -11.690  -9.175   2.123  0.00  0.00    +0.047 C 
ATOM     15  N   UNL     1      -7.203  -8.289   0.410  0.00  0.00    -0.313 N 
ATOM     16  C   UNL     1      -6.062  -7.853  -0.088  0.00  0.00    +0.110 A 
ENDROOT
BRANCH   1  18
ATOM     17  N   UNL     1      -4.510  -4.795  -1.538  0.00  0.00    -0.311 N 
ATOM     18  C   UNL     1      -4.620  -6.045  -1.045  0.00  0.00    +0.247 C 
ATOM     19  O   UNL     1      -3.657  -6.788  -1.052  0.00  0.00    -0.270 OA
ATOM     20  H   UNL     1      -5.278  -4.203  -1.532  0.00  0.00    +0.149 HD
BRANCH  17  21
ATOM     21  C   UNL     1      -3.232  -4.332  -2.082  0.00  0.00    +0.104 C 
BRANCH  21  22
ATOM     22  C   UNL     1      -3.379  -2.890  -2.571  0.00  0.00    +0.019 C 
BRANCH  22  23
ATOM     23  C   UNL     1      -2.043  -2.406  -3.140  0.00  0.00    +0.002 C 
BRANCH  23  24
ATOM     24  C   UNL     1      -2.190  -0.963  -3.630  0.00  0.00    -0.000 C 
BRANCH  24  26
ATOM     25  C   UNL     1      -1.002   0.963  -4.688  0.00  0.00    +0.004 C 
ATOM     26  C   UNL     1      -0.855  -0.479  -4.199  0.00  0.00    -0.003 C 
ENDBRANCH  24  26
ENDBRANCH  23  24
ENDBRANCH  22  23
ENDBRANCH  21  22
ENDBRANCH  17  21
ENDBRANCH   1  18
BRANCH  16  27
ATOM     27  N   UNL     1      -5.000  -8.725  -0.208  0.00  0.00    -0.344 N 
ATOM     28  H   UNL     1      -4.091  -8.394  -0.142  0.00  0.00    +0.144 HD
ATOM     29  H   UNL     1      -5.162  -9.670  -0.357  0.00  0.00    +0.144 HD
ENDBRANCH  16  27
BRANCH  15  30
ATOM     30  C   UNL     1      -7.313  -9.690   0.826  0.00  0.00    +0.125 C 
BRANCH  30  31
ATOM     31  C   UNL     1      -7.787 -10.537  -0.356  0.00  0.00    +0.018 C 
ATOM     32  C   UNL     1      -7.902 -11.999   0.078  0.00  0.00    +0.005 C 
ENDBRANCH  30  31
ENDBRANCH  15  30
TORSDOF 9
