REMARK  Name = ZINC39635908
REMARK  6 active torsions:
REMARK  status: ('A' for Active; 'I' for Inactive)
REMARK    1  A    between atoms: C_1  and  C_2
REMARK    2  A    between atoms: C_3  and  C_15
REMARK    3  A    between atoms: C_4  and  C_7
REMARK    4  A    between atoms: C_19  and  C_28
REMARK    5  A    between atoms: N_30  and  C_31
REMARK    6  A    between atoms: C_37  and  C_39
REMARK                            x       y       z     vdW  Elec       q    Type
REMARK                         _______ _______ _______ _____ _____    ______ ____
ROOT
ATOM      1  C   UNL     1      -2.779   0.166   1.128  0.00  0.00    +0.252 C 
ATOM      2  O   UNL     1      -3.615   0.394   0.274  0.00  0.00    -0.270 OA
ATOM      3  N   UNL     1      -3.077   0.350   2.429  0.00  0.00    -0.296 N 
ATOM      4  C   UNL     1      -2.233   0.040   3.607  0.00  0.00    +0.121 C 
ATOM      5  C   UNL     1      -2.473   1.216   4.580  0.00  0.00    +0.100 C 
ATOM      6  C   UNL     1      -3.846   1.782   4.181  0.00  0.00    -0.004 C 
ATOM      7  C   UNL     1      -4.321   0.916   3.005  0.00  0.00    +0.115 C 
ATOM      8  C   UNL     1      -3.711   3.235   3.737  0.00  0.00    -0.010 C 
ATOM      9  C   UNL     1      -5.098   3.792   3.401  0.00  0.00    -0.082 C 
ATOM     10  N   UNL     1      -5.964   3.699   4.582  0.00  0.00    +0.379 N 
ATOM     11  C   UNL     1      -6.164   2.291   4.947  0.00  0.00    -0.082 C 
ATOM     12  C   UNL     1      -4.823   1.670   5.348  0.00  0.00    -0.010 C 
ATOM     13  H   UNL     1      -5.534   4.187   5.353  0.00  0.00    -0.086 HD
ATOM     14  H   UNL     1      -6.857   4.121   4.376  0.00  0.00    -0.086 HD
ENDROOT
BRANCH   1  17
ATOM     15  C   UNL     1      -0.399   1.954   0.177  0.00  0.00    +0.090 C 
ATOM     16  C   UNL     1      -0.393   0.454   0.322  0.00  0.00    +0.147 A 
ATOM     17  C   UNL     1      -1.442  -0.312   0.739  0.00  0.00    +0.106 A 
ATOM     18  C   UNL     1      -0.978  -1.708   0.726  0.00  0.00    +0.128 A 
ATOM     19  N   UNL     1       0.266  -1.692   0.319  0.00  0.00    -0.077 NA
ATOM     20  O   UNL     1       0.638  -0.353   0.060  0.00  0.00    -0.359 OA
BRANCH  18  21
ATOM     21  C   UNL     1      -1.769  -2.905   1.101  0.00  0.00    +0.041 A 
ATOM     22  C   UNL     1      -2.943  -3.212   0.413  0.00  0.00    +0.052 A 
ATOM     23  C   UNL     1      -3.675  -4.329   0.767  0.00  0.00    +0.021 A 
ATOM     24  C   UNL     1      -3.247  -5.141   1.802  0.00  0.00    +0.003 A 
ATOM     25  C   UNL     1      -2.085  -4.840   2.489  0.00  0.00    +0.021 A 
ATOM     26  C   UNL     1      -1.340  -3.730   2.140  0.00  0.00    +0.052 A 
ATOM     27 CL   UNL     1       0.122  -3.359   2.999  0.00  0.00    -0.083 Cl
ATOM     28 CL   UNL     1      -3.482  -2.194  -0.886  0.00  0.00    -0.083 Cl
ENDBRANCH  18  21
ENDBRANCH   1  17
BRANCH   5  29
ATOM     29  C   UNL     1      -1.403   2.264   4.410  0.00  0.00    +0.218 C 
ATOM     30  O   UNL     1      -0.931   2.477   3.313  0.00  0.00    -0.275 OA
ATOM     31  N   UNL     1      -0.970   2.964   5.477  0.00  0.00    -0.312 N 
ATOM     32  H   UNL     1      -1.294   2.745   6.365  0.00  0.00    +0.149 HD
BRANCH  31  33
ATOM     33  C   UNL     1      -0.010   4.056   5.297  0.00  0.00    +0.076 C 
ATOM     34  C   UNL     1       1.403   3.480   5.182  0.00  0.00    +0.022 C 
ATOM     35  C   UNL     1       1.743   2.708   6.458  0.00  0.00    +0.002 C 
ATOM     36  C   UNL     1       1.673   3.652   7.660  0.00  0.00    +0.000 C 
ATOM     37  C   UNL     1       0.261   4.228   7.774  0.00  0.00    +0.005 C 
ATOM     38  C   UNL     1      -0.080   5.000   6.498  0.00  0.00    +0.006 C 
ATOM     39  C   UNL     1      -1.493   5.577   6.613  0.00  0.00    +0.009 C 
ENDBRANCH  31  33
ENDBRANCH   5  29
TORSDOF 4
