REMARK  Name = ZINC02650356
REMARK  5 active torsions:
REMARK  status: ('A' for Active; 'I' for Inactive)
REMARK    1  A    between atoms: C_6  and  S_7
REMARK    2  A    between atoms: S_7  and  N_10
REMARK    3  A    between atoms: C_16  and  C_18
REMARK    4  A    between atoms: C_18  and  S_19
REMARK    5  A    between atoms: S_19  and  C_20
REMARK                            x       y       z     vdW  Elec       q    Type
REMARK                         _______ _______ _______ _____ _____    ______ ____
ROOT
ATOM      1  N   UNL     1      -0.897   1.885  -1.312  0.00  0.00    -0.174 NA
ATOM      2  C   UNL     1      -1.885   0.978  -1.913  0.00  0.00    +0.128 C 
ATOM      3  C   UNL     1      -3.242   1.700  -1.960  0.00  0.00    +0.125 C 
ATOM      4  N   UNL     1      -3.046   3.028  -2.557  0.00  0.00    -0.298 N 
ATOM      5  C   UNL     1      -2.054   3.934  -1.959  0.00  0.00    +0.125 C 
ATOM      6  C   UNL     1      -0.701   3.214  -1.909  0.00  0.00    +0.128 C 
ATOM      7  C   UNL     1      -3.762   3.410  -3.633  0.00  0.00    +0.226 C 
ATOM      8  O   UNL     1      -3.591   4.509  -4.117  0.00  0.00    -0.275 OA
ENDROOT
BRANCH   1   9
ATOM      9  S   UNL     1      -0.017   1.417   0.010  0.00  0.00    +0.061 S 
ATOM     10  O   UNL     1       0.002  -0.004   0.002  0.00  0.00    -0.153 OA
ATOM     11  O   UNL     1       1.172   2.195   0.003  0.00  0.00    -0.153 OA
BRANCH   9  17
ATOM     12  C   UNL     1      -0.717   3.145   2.004  0.00  0.00    +0.030 A 
ATOM     13  C   UNL     1      -1.434   3.527   3.122  0.00  0.00    +0.022 A 
ATOM     14  C   UNL     1      -2.354   2.659   3.683  0.00  0.00    +0.041 A 
ATOM     15  C   UNL     1      -2.559   1.411   3.121  0.00  0.00    +0.022 A 
ATOM     16  C   UNL     1      -1.846   1.033   2.000  0.00  0.00    +0.030 A 
ATOM     17  C   UNL     1      -0.927   1.900   1.439  0.00  0.00    +0.106 A 
ATOM     18 CL   UNL     1      -3.251   3.135   5.091  0.00  0.00    -0.084 Cl
ENDBRANCH   9  17
ENDBRANCH   1   9
BRANCH   7  19
ATOM     19  C   UNL     1      -4.775   2.471  -4.235  0.00  0.00    +0.172 C 
BRANCH  19  20
ATOM     20  S   UNL     1      -5.568   3.268  -5.659  0.00  0.00    -0.088 S 
BRANCH  20  21
ATOM     21  C   UNL     1      -6.709   2.060  -6.244  0.00  0.00    +0.160 A 
ATOM     22  N   UNL     1      -6.956   0.850  -5.780  0.00  0.00    -0.133 NA
ATOM     23  N   UNL     1      -7.901   0.061  -6.395  0.00  0.00    -0.125 NA
ATOM     24  C   UNL     1      -8.555   0.518  -7.444  0.00  0.00    +0.180 A 
ATOM     25  S   UNL     1      -7.846   2.148  -7.618  0.00  0.00    -0.025 S 
ATOM     26  N   UNL     1      -9.537  -0.102  -8.208  0.00  0.00    -0.336 N 
ATOM     27  H   UNL     1      -9.827  -1.001  -7.989  0.00  0.00    +0.144 HD
ATOM     28  H   UNL     1      -9.933   0.365  -8.961  0.00  0.00    +0.144 HD
ENDBRANCH  20  21
ENDBRANCH  19  20
ENDBRANCH   7  19
TORSDOF 5
