REMARK  Name = ZINC42142549
REMARK  4 active torsions:
REMARK  status: ('A' for Active; 'I' for Inactive)
REMARK    1  A    between atoms: C_6  and  N_7
REMARK    2  A    between atoms: C_9  and  S_11
REMARK    3  A    between atoms: S_11  and  C_12
REMARK    4  A    between atoms: C_12  and  C_13
REMARK                            x       y       z     vdW  Elec       q    Type
REMARK                         _______ _______ _______ _____ _____    ______ ____
ROOT
ATOM      1  C   UNL     1      -0.017   1.388   0.010  0.00  0.00    +0.025 A 
ATOM      2  C   UNL     1       1.163   2.099   0.002  0.00  0.00    +0.033 A 
ATOM      3  C   UNL     1       2.382   1.421  -0.013  0.00  0.00    +0.111 A 
ATOM      4  C   UNL     1       2.400   0.018  -0.021  0.00  0.00    +0.158 A 
ATOM      5  C   UNL     1       1.208  -0.687  -0.013  0.00  0.00    +0.071 A 
ATOM      6  C   UNL     1       0.002  -0.004   0.002  0.00  0.00    +0.028 A 
ATOM      7  O   UNL     1       3.703  -0.347  -0.035  0.00  0.00    -0.431 OA
ATOM      8  C   UNL     1       4.453   0.770  -0.036  0.00  0.00    +0.258 A 
ATOM      9  N   UNL     1       3.683   1.828  -0.023  0.00  0.00    -0.203 NA
ENDROOT
BRANCH   6  10
ATOM     10  N   UNL     1      -1.202  -0.717   0.010  0.00  0.00    -0.358 N 
ATOM     11  H   UNL     1      -2.047  -0.241   0.021  0.00  0.00    +0.142 HD
ATOM     12  H   UNL     1      -1.191  -1.687   0.005  0.00  0.00    +0.142 HD
ENDBRANCH   6  10
BRANCH   8  13
ATOM     13  S   UNL     1       6.214   0.803  -0.053  0.00  0.00    -0.058 S 
BRANCH  13  14
ATOM     14  C   UNL     1       6.620   2.571  -0.047  0.00  0.00    +0.174 C 
BRANCH  14  15
ATOM     15  C   UNL     1       8.117   2.743  -0.061  0.00  0.00    +0.226 C 
ATOM     16  O   UNL     1       8.839   1.769  -0.073  0.00  0.00    -0.275 OA
ATOM     17  N   UNL     1       8.653   3.979  -0.059  0.00  0.00    -0.301 N 
ATOM     18  C   UNL     1       7.791   5.169  -0.038  0.00  0.00    +0.108 C 
ATOM     19  C   UNL     1       8.215   6.065   1.130  0.00  0.00    +0.019 C 
ATOM     20  C   UNL     1       9.710   6.373   1.015  0.00  0.00    +0.003 C 
ATOM     21  C   UNL     1      10.509   5.070   1.091  0.00  0.00    +0.019 C 
ATOM     22  C   UNL     1      10.111   4.163  -0.072  0.00  0.00    +0.108 C 
ENDBRANCH  14  15
ENDBRANCH  13  14
ENDBRANCH   8  13
TORSDOF 4
