REMARK  Name = ZINC08717936
REMARK  5 active torsions:
REMARK  status: ('A' for Active; 'I' for Inactive)
REMARK    1  A    between atoms: C_1  and  C_2
REMARK    2  A    between atoms: C_6  and  S_13
REMARK    3  A    between atoms: S_13  and  N_16
REMARK    4  A    between atoms: N_16  and  C_17
REMARK    5  A    between atoms: C_21  and  N_23
REMARK                            x       y       z     vdW  Elec       q    Type
REMARK                         _______ _______ _______ _____ _____    ______ ____
ROOT
ATOM      1  S   UNL     1      -5.837  -0.982  -1.935  0.00  0.00    +0.072 S 
ATOM      2  O   UNL     1      -5.475   0.153  -2.710  0.00  0.00    -0.150 OA
ATOM      3  O   UNL     1      -5.714  -1.007  -0.519  0.00  0.00    -0.150 OA
ENDROOT
BRANCH   1   8
ATOM      4  C   UNL     1     -11.074  -1.970   0.411  0.00  0.00    +0.022 C 
ATOM      5  C   UNL     1     -10.778  -2.803  -0.837  0.00  0.00    +0.104 C 
ATOM      6  C   UNL     1      -9.656  -2.181  -1.636  0.00  0.00    -0.013 A 
ATOM      7  C   UNL     1      -8.336  -1.916  -1.347  0.00  0.00    +0.035 A 
ATOM      8  C   UNL     1      -7.526  -1.323  -2.300  0.00  0.00    +0.109 A 
ATOM      9  C   UNL     1      -8.047  -1.000  -3.540  0.00  0.00    +0.030 A 
ATOM     10  C   UNL     1      -9.369  -1.265  -3.832  0.00  0.00    +0.025 A 
ATOM     11  C   UNL     1     -10.190  -1.861  -2.877  0.00  0.00    +0.037 A 
ATOM     12  N   UNL     1     -11.537  -2.223  -2.930  0.00  0.00    -0.285 N 
ATOM     13  C   UNL     1     -11.961  -2.783  -1.781  0.00  0.00    +0.224 C 
ATOM     14  O   UNL     1     -13.078  -3.192  -1.546  0.00  0.00    -0.275 OA
ATOM     15  H   UNL     1     -12.102  -2.089  -3.707  0.00  0.00    +0.155 HD
ENDBRANCH   1   8
BRANCH   1  16
ATOM     16  N   UNL     1      -4.945  -2.252  -2.511  0.00  0.00    -0.216 N 
ATOM     17  H   UNL     1      -4.295  -2.108  -3.217  0.00  0.00    +0.174 HD
BRANCH  16  18
ATOM     18  C   UNL     1      -5.127  -3.531  -1.980  0.00  0.00    +0.050 A 
ATOM     19  C   UNL     1      -4.618  -3.842  -0.725  0.00  0.00    +0.024 A 
ATOM     20  C   UNL     1      -4.798  -5.107  -0.199  0.00  0.00    +0.004 A 
ATOM     21  C   UNL     1      -5.484  -6.067  -0.918  0.00  0.00    +0.025 A 
ATOM     22  C   UNL     1      -5.996  -5.762  -2.174  0.00  0.00    +0.053 A 
ATOM     23  C   UNL     1      -5.822  -4.490  -2.702  0.00  0.00    +0.049 A 
BRANCH  22  24
ATOM     24  N   UNL     1      -6.689  -6.733  -2.901  0.00  0.00    -0.207 N 
ATOM     25  C   UNL     1      -6.845  -6.803  -4.365  0.00  0.00    +0.133 C 
ATOM     26  C   UNL     1      -6.998  -8.262  -4.830  0.00  0.00    +0.045 C 
ATOM     27  C   UNL     1      -8.023  -8.897  -3.842  0.00  0.00    +0.190 C 
ATOM     28  S   UNL     1      -7.506  -8.061  -2.288  0.00  0.00    +0.046 S 
ATOM     29  O   UNL     1      -6.525  -8.829  -1.604  0.00  0.00    -0.155 OA
ATOM     30  O   UNL     1      -8.634  -7.531  -1.605  0.00  0.00    -0.155 OA
ENDBRANCH  22  24
ENDBRANCH  16  18
ENDBRANCH   1  16
TORSDOF 4
