REMARK  Name = ZINC04331420
REMARK  9 active torsions:
REMARK  status: ('A' for Active; 'I' for Inactive)
REMARK    1  A    between atoms: C_1  and  C_2
REMARK    2  A    between atoms: C_2  and  S_3
REMARK    3  A    between atoms: S_3  and  C_4
REMARK    4  A    between atoms: C_13  and  C_15
REMARK    5  A    between atoms: C_18  and  N_21
REMARK    6  A    between atoms: N_21  and  C_22
REMARK    7  A    between atoms: N_21  and  C_23
REMARK    8  A    between atoms: C_27  and  C_29
REMARK    9  A    between atoms: C_27  and  C_30
REMARK                            x       y       z     vdW  Elec       q    Type
REMARK                         _______ _______ _______ _____ _____    ______ ____
ROOT
ATOM      1  C   UNL     1       1.165   2.021   0.009  0.00  0.00    +0.192 A 
ATOM      2  N   UNL     1       2.341   1.408  -0.002  0.00  0.00    -0.207 NA
ATOM      3  C   UNL     1       2.418   0.080  -0.011  0.00  0.00    +0.126 A 
ATOM      4  C   UNL     1       1.240  -0.663  -0.011  0.00  0.00    +0.044 A 
ATOM      5  C   UNL     1       0.029   0.015   0.001  0.00  0.00    +0.133 A 
ATOM      6  N   UNL     1       0.026   1.344   0.011  0.00  0.00    -0.206 NA
ATOM      7  N   UNL     1      -1.158  -0.699   0.004  0.00  0.00    -0.302 N 
ATOM      8  C   UNL     1      -1.176  -2.016   0.375  0.00  0.00    +0.017 C 
ATOM      9  C   UNL     1      -0.044  -2.751   0.390  0.00  0.00    +0.024 C 
ATOM     10  C   UNL     1       1.280  -2.161  -0.027  0.00  0.00    +0.090 C 
ATOM     11  C   UNL     1      -0.062  -4.098   0.790  0.00  0.00    +0.162 C 
ATOM     12  O   UNL     1       0.974  -4.734   0.787  0.00  0.00    -0.292 OA
ATOM     13  C   UNL     1      -1.336  -4.770   1.222  0.00  0.00    +0.086 C 
ATOM     14  C   UNL     1      -2.280  -3.717   1.811  0.00  0.00    -0.023 C 
ATOM     15  C   UNL     1      -2.502  -2.625   0.762  0.00  0.00    +0.058 C 
ATOM     16  C   UNL     1      -1.652  -3.105   3.065  0.00  0.00    +0.011 C 
ATOM     17  C   UNL     1      -3.618  -4.366   2.170  0.00  0.00    +0.011 C 
ATOM     18  N   UNL     1       3.650  -0.555  -0.020  0.00  0.00    -0.343 N 
ATOM     19  H   UNL     1      -1.983  -0.262  -0.259  0.00  0.00    +0.153 HD
ATOM     20  H   UNL     1       3.697  -1.524  -0.026  0.00  0.00    +0.144 HD
ATOM     21  H   UNL     1       4.466  -0.030  -0.019  0.00  0.00    +0.144 HD
ENDROOT
BRANCH  10  22
ATOM     22  C   UNL     1       1.612  -2.629  -1.420  0.00  0.00    -0.035 A 
ATOM     23  C   UNL     1       0.759  -2.336  -2.468  0.00  0.00    +0.006 A 
ATOM     24  C   UNL     1       1.063  -2.758  -3.747  0.00  0.00    +0.023 A 
ATOM     25  C   UNL     1       2.222  -3.488  -3.979  0.00  0.00    +0.029 A 
ATOM     26  C   UNL     1       3.074  -3.786  -2.923  0.00  0.00    +0.023 A 
ATOM     27  C   UNL     1       2.767  -3.355  -1.647  0.00  0.00    +0.006 A 
BRANCH  25  28
ATOM     28  N   UNL     1       2.530  -3.922  -5.270  0.00  0.00    -0.336 N 
ATOM     29  C   UNL     1       3.811  -4.582  -5.535  0.00  0.00    +0.129 C 
ATOM     30  C   UNL     1       1.572  -3.718  -6.359  0.00  0.00    +0.129 C 
ENDBRANCH  25  28
ENDBRANCH  10  22
BRANCH   1  31
ATOM     31  S   UNL     1       1.117   3.783   0.020  0.00  0.00    -0.086 S 
BRANCH  31  33
ATOM     32  C   UNL     1       3.100   5.661   0.021  0.00  0.00    +0.016 C 
ATOM     33  C   UNL     1       2.890   4.146   0.013  0.00  0.00    +0.074 C 
ENDBRANCH  31  33
ENDBRANCH   1  31
TORSDOF 4
