REMARK  Name = ZINC37929856
REMARK  3 active torsions:
REMARK  status: ('A' for Active; 'I' for Inactive)
REMARK    1  A    between atoms: C_3  and  N_23
REMARK    2  A    between atoms: C_4  and  S_8
REMARK    3  A    between atoms: S_8  and  N_11
REMARK                            x       y       z     vdW  Elec       q    Type
REMARK                         _______ _______ _______ _____ _____    ______ ____
ROOT
ATOM      1  S   UNL     1       3.959  -0.922  -0.021  0.00  0.00    +0.063 S 
ATOM      2  O   UNL     1       4.190   0.133   0.902  0.00  0.00    -0.153 OA
ATOM      3  O   UNL     1       4.348  -2.264   0.242  0.00  0.00    -0.153 OA
ENDROOT
BRANCH   1   4
ATOM      4  N   UNL     1       4.698  -0.484  -1.436  0.00  0.00    -0.173 NA
ATOM      5  C   UNL     1       4.366  -1.161  -2.699  0.00  0.00    +0.110 C 
ATOM      6  C   UNL     1       5.661  -1.659  -3.348  0.00  0.00    +0.017 C 
ATOM      7  C   UNL     1       6.643  -0.494  -3.493  0.00  0.00    +0.006 C 
ATOM      8  C   UNL     1       6.981   0.058  -2.103  0.00  0.00    +0.008 C 
ATOM      9  C   UNL     1       5.694   0.593  -1.460  0.00  0.00    +0.083 C 
ATOM     10  C   UNL     1       5.971   1.085  -0.043  0.00  0.00    +0.021 C 
ATOM     11  C   UNL     1       6.544  -0.054   0.801  0.00  0.00    +0.002 C 
ATOM     12  C   UNL     1       7.846  -0.547   0.166  0.00  0.00    +0.000 C 
ATOM     13  C   UNL     1       7.571  -1.071  -1.254  0.00  0.00    +0.005 C 
ENDBRANCH   1   4
BRANCH   1  17
ATOM     14  C   UNL     1      -0.504  -1.000  -0.808  0.00  0.00    +0.022 A 
ATOM     15  C   UNL     1       0.189   0.192  -0.902  0.00  0.00    +0.026 A 
ATOM     16  C   UNL     1       1.556   0.219  -0.661  0.00  0.00    +0.051 A 
ATOM     17  C   UNL     1       2.224  -0.953  -0.327  0.00  0.00    +0.127 A 
ATOM     18  C   UNL     1       1.526  -2.141  -0.235  0.00  0.00    +0.050 A 
ATOM     19  C   UNL     1       0.163  -2.165  -0.475  0.00  0.00    +0.043 A 
ATOM     20 CL   UNL     1      -0.710  -3.661  -0.359  0.00  0.00    -0.083 Cl
BRANCH  16  21
ATOM     21  N   UNL     1       2.260   1.423  -0.755  0.00  0.00    -0.356 N 
ATOM     22  H   UNL     1       1.808   2.226  -1.058  0.00  0.00    +0.142 HD
ATOM     23  H   UNL     1       3.200   1.455  -0.518  0.00  0.00    +0.142 HD
ENDBRANCH  16  21
ENDBRANCH   1  17
TORSDOF 3
