REMARK  Name = ZINC12662714
REMARK  7 active torsions:
REMARK  status: ('A' for Active; 'I' for Inactive)
REMARK    1  A    between atoms: C_1  and  C_2
REMARK    2  A    between atoms: N_6  and  N_7
REMARK    3  A    between atoms: N_7  and  C_8
REMARK    4  A    between atoms: C_8  and  N_10
REMARK    5  A    between atoms: C_22  and  C_35
REMARK    6  A    between atoms: C_23  and  O_34
REMARK    7  A    between atoms: C_26  and  C_28
REMARK                            x       y       z     vdW  Elec       q    Type
REMARK                         _______ _______ _______ _____ _____    ______ ____
ROOT
ATOM      1  C   UNL     1       5.959  -2.567   4.008  0.00  0.00    +0.012 C 
ATOM      2  C   UNL     1       5.356  -3.951   3.761  0.00  0.00    -0.025 C 
ATOM      3  C   UNL     1       4.792  -4.505   5.073  0.00  0.00    +0.013 C 
ATOM      4  C   UNL     1       5.897  -4.542   6.132  0.00  0.00    +0.053 C 
ATOM      5  C   UNL     1       7.061  -5.335   5.578  0.00  0.00    +0.037 C 
ATOM      6  N   UNL     1       7.573  -6.302   6.242  0.00  0.00    -0.190 NA
ATOM      7  C   UNL     1       7.602  -4.953   4.219  0.00  0.00    +0.056 C 
ATOM      8  C   UNL     1       6.437  -4.890   3.223  0.00  0.00    +0.001 C 
ATOM      9  C   UNL     1       6.960  -4.365   1.883  0.00  0.00    +0.005 C 
ATOM     10  C   UNL     1       5.827  -4.240   0.874  0.00  0.00    +0.007 C 
ATOM     11  C   UNL     1       4.767  -3.283   1.423  0.00  0.00    +0.025 C 
ATOM     12  C   UNL     1       4.217  -3.838   2.745  0.00  0.00    +0.001 C 
ATOM     13  C   UNL     1       3.107  -2.956   3.307  0.00  0.00    +0.005 C 
ATOM     14  C   UNL     1       2.000  -2.731   2.287  0.00  0.00    +0.010 C 
ATOM     15  C   UNL     1       2.621  -2.125   1.044  0.00  0.00    +0.004 C 
ATOM     16  C   UNL     1       3.602  -3.175   0.457  0.00  0.00    +0.075 C 
ATOM     17  C   UNL     1       3.908  -2.577  -0.921  0.00  0.00    +0.036 C 
ATOM     18  C   UNL     1       2.519  -2.072  -1.397  0.00  0.00    +0.011 C 
ATOM     19  C   UNL     1       1.677  -1.837  -0.118  0.00  0.00    +0.027 C 
ATOM     20  C   UNL     1       3.387  -0.853   1.416  0.00  0.00    +0.014 C 
ENDROOT
BRANCH  19  21
ATOM     21  C   UNL     1       1.200  -0.408  -0.062  0.00  0.00    -0.022 C 
ATOM     22  C   UNL     1       1.621   0.598  -0.825  0.00  0.00    +0.094 C 
ATOM     23  C   UNL     1       0.908   1.823  -0.456  0.00  0.00    +0.332 C 
ATOM     24  O   UNL     1       1.078   2.911  -0.971  0.00  0.00    -0.246 OA
ATOM     25  O   UNL     1       0.042   1.568   0.543  0.00  0.00    -0.457 OA
ATOM     26  C   UNL     1       0.153   0.154   0.870  0.00  0.00    +0.264 C 
ENDBRANCH  19  21
BRANCH   6  27
ATOM     27  N   UNL     1       6.993  -6.705   7.452  0.00  0.00    -0.219 N 
ATOM     28  H   UNL     1       6.252  -6.203   7.826  0.00  0.00    +0.176 HD
BRANCH  27  29
ATOM     29  C   UNL     1       7.464  -7.791   8.096  0.00  0.00    +0.147 C 
ATOM     30  S   UNL     1       6.756  -8.284   9.575  0.00  0.00    -0.017 S 
BRANCH  29  31
ATOM     31  N   UNL     1       8.494  -8.489   7.576  0.00  0.00    -0.339 N 
ATOM     32  H   UNL     1       8.895  -8.210   6.739  0.00  0.00    +0.144 HD
ATOM     33  H   UNL     1       8.833  -9.271   8.040  0.00  0.00    +0.144 HD
ENDBRANCH  29  31
ENDBRANCH  27  29
ENDBRANCH   6  27
BRANCH  16  34
ATOM     34  O   UNL     1       2.954  -4.441   0.317  0.00  0.00    -0.388 OA
ATOM     35  H   UNL     1       3.521  -5.135  -0.046  0.00  0.00    +0.210 HD
ENDBRANCH  16  34
TORSDOF 5
