REMARK  Name = ZINC37759557
REMARK  7 active torsions:
REMARK  status: ('A' for Active; 'I' for Inactive)
REMARK    1  A    between atoms: C_1  and  C_2
REMARK    2  A    between atoms: C_6  and  N_12
REMARK    3  A    between atoms: C_7  and  N_11
REMARK    4  A    between atoms: N_12  and  C_13
REMARK    5  A    between atoms: C_13  and  C_14
REMARK    6  A    between atoms: C_14  and  N_15
REMARK    7  A    between atoms: N_18  and  C_21
REMARK                            x       y       z     vdW  Elec       q    Type
REMARK                         _______ _______ _______ _____ _____    ______ ____
ROOT
ATOM      1  C   UNL     1      -0.018   1.503   0.010  0.00  0.00    +0.073 C 
ATOM      2  C   UNL     1       0.002  -0.004   0.002  0.00  0.00    +0.076 A 
ATOM      3  N   UNL     1      -1.015  -0.815   0.002  0.00  0.00    -0.244 NA
ATOM      4  C   UNL     1      -0.864  -2.157  -0.006  0.00  0.00    +0.080 A 
ATOM      5  C   UNL     1      -1.843  -3.175  -0.007  0.00  0.00    +0.053 A 
ATOM      6  C   UNL     1      -1.473  -4.499  -0.015  0.00  0.00    +0.050 A 
ATOM      7  C   UNL     1      -0.125  -4.875  -0.023  0.00  0.00    +0.047 A 
ATOM      8  C   UNL     1       0.855  -3.894  -0.022  0.00  0.00    +0.041 A 
ATOM      9  C   UNL     1       0.486  -2.570  -0.014  0.00  0.00    +0.041 A 
ATOM     10  S   UNL     1       1.346  -1.018  -0.017  0.00  0.00    -0.072 S 
ENDROOT
BRANCH   7  11
ATOM     11  N   UNL     1       0.231  -6.230  -0.030  0.00  0.00    -0.357 N 
ATOM     12  H   UNL     1      -0.458  -6.913  -0.030  0.00  0.00    +0.142 HD
ATOM     13  H   UNL     1       1.167  -6.486  -0.036  0.00  0.00    +0.142 HD
ENDBRANCH   7  11
BRANCH   6  14
ATOM     14  N   UNL     1      -2.464  -5.490  -0.014  0.00  0.00    -0.344 N 
ATOM     15  H   UNL     1      -2.213  -6.427  -0.020  0.00  0.00    +0.146 HD
BRANCH  14  16
ATOM     16  C   UNL     1      -3.879  -5.111  -0.005  0.00  0.00    +0.083 C 
BRANCH  16  17
ATOM     17  C   UNL     1      -4.745  -6.373  -0.007  0.00  0.00    -0.060 C 
BRANCH  17  18
ATOM     18  N   UNL     1      -6.164  -5.993   0.002  0.00  0.00    +0.382 N 
ATOM     19  C   UNL     1      -6.479  -5.305   1.261  0.00  0.00    -0.063 C 
ATOM     20  C   UNL     1      -7.952  -4.892   1.263  0.00  0.00    +0.065 C 
ATOM     21  N   UNL     1      -8.793  -6.089   1.115  0.00  0.00    -0.309 NA
ATOM     22  C   UNL     1      -8.472  -6.801  -0.130  0.00  0.00    +0.065 C 
ATOM     23  C   UNL     1      -6.994  -7.198  -0.120  0.00  0.00    -0.063 C 
ATOM     24  C   UNL     1     -10.219  -5.740   1.168  0.00  0.00    +0.104 C 
ATOM     25  H   UNL     1      -6.351  -5.375  -0.774  0.00  0.00    -0.082 HD
ENDBRANCH  17  18
ENDBRANCH  16  17
ENDBRANCH  14  16
ENDBRANCH   6  14
TORSDOF 5
