REMARK  Name = ZINC39695932
REMARK  8 active torsions:
REMARK  status: ('A' for Active; 'I' for Inactive)
REMARK    1  A    between atoms: C_1  and  C_2
REMARK    2  A    between atoms: C_2  and  C_3
REMARK    3  A    between atoms: C_6  and  C_9
REMARK    4  A    between atoms: C_9  and  C_11
REMARK    5  A    between atoms: C_9  and  N_12
REMARK    6  A    between atoms: C_13  and  C_15
REMARK    7  A    between atoms: C_26  and  C_28
REMARK    8  A    between atoms: C_34  and  C_36
REMARK                            x       y       z     vdW  Elec       q    Type
REMARK                         _______ _______ _______ _____ _____    ______ ____
ROOT
ATOM      1  C   UNL     1      -6.692  -4.983  -1.997  0.00  0.00    +0.100 C 
ATOM      2  C   UNL     1      -5.375  -5.764  -2.202  0.00  0.00    +0.121 C 
ATOM      3  N   UNL     1      -5.529  -6.982  -1.372  0.00  0.00    -0.299 N 
ATOM      4  C   UNL     1      -6.945  -7.379  -1.559  0.00  0.00    +0.115 C 
ATOM      5  C   UNL     1      -7.721  -6.047  -1.579  0.00  0.00    -0.004 C 
ATOM      6  C   UNL     1      -8.268  -5.735  -0.189  0.00  0.00    -0.010 C 
ATOM      7  C   UNL     1      -9.330  -6.774   0.181  0.00  0.00    -0.082 C 
ATOM      8  N   UNL     1     -10.412  -6.745  -0.810  0.00  0.00    +0.379 N 
ATOM      9  C   UNL     1      -9.895  -7.137  -2.127  0.00  0.00    -0.082 C 
ATOM     10  C   UNL     1      -8.857  -6.113  -2.595  0.00  0.00    -0.010 C 
ATOM     11  C   UNL     1      -4.593  -7.591  -0.617  0.00  0.00    +0.236 C 
ATOM     12  O   UNL     1      -4.876  -8.590   0.010  0.00  0.00    -0.274 OA
ATOM     13  H   UNL     1     -11.139  -7.387  -0.531  0.00  0.00    -0.086 HD
ATOM     14  H   UNL     1     -10.793  -5.813  -0.863  0.00  0.00    -0.086 HD
ENDROOT
BRANCH  11  15
ATOM     15  C   UNL     1      -3.195  -7.032  -0.554  0.00  0.00    +0.162 C 
ATOM     16  C   UNL     1      -2.398  -7.466  -1.802  0.00  0.00    +0.033 C 
ATOM     17  C   UNL     1      -0.983  -7.746  -1.231  0.00  0.00    +0.021 C 
ATOM     18  C   UNL     1      -1.321  -8.336   0.161  0.00  0.00    +0.109 C 
ATOM     19  N   UNL     1      -2.495  -7.567   0.623  0.00  0.00    -0.283 N 
ATOM     20  C   UNL     1      -2.865  -7.387   1.907  0.00  0.00    +0.320 C 
ATOM     21  O   UNL     1      -3.853  -6.733   2.167  0.00  0.00    -0.266 OA
BRANCH  20  22
ATOM     22  C   UNL     1      -2.050  -7.996   3.018  0.00  0.00    +0.470 C 
ATOM     23  F   UNL     1      -2.627  -7.673   4.251  0.00  0.00    -0.162 F 
ATOM     24  F   UNL     1      -2.022  -9.387   2.867  0.00  0.00    -0.162 F 
ATOM     25  F   UNL     1      -0.745  -7.496   2.969  0.00  0.00    -0.162 F 
ENDBRANCH  20  22
ENDBRANCH  11  15
BRANCH   1  27
ATOM     26  N   UNL     1      -7.268  -2.827  -0.930  0.00  0.00    -0.308 N 
ATOM     27  C   UNL     1      -6.529  -3.954  -0.909  0.00  0.00    +0.219 C 
ATOM     28  O   UNL     1      -5.733  -4.140  -0.013  0.00  0.00    -0.275 OA
ATOM     29  H   UNL     1      -7.905  -2.678  -1.646  0.00  0.00    +0.149 HD
BRANCH  26  30
ATOM     30  C   UNL     1      -7.109  -1.827   0.128  0.00  0.00    +0.100 C 
ATOM     31  C   UNL     1      -7.987  -2.205   1.323  0.00  0.00    +0.033 C 
BRANCH  30  35
ATOM     32  C   UNL     1      -8.284   2.006  -1.348  0.00  0.00    -0.048 A 
ATOM     33  C   UNL     1      -7.179   1.891  -0.527  0.00  0.00    +0.004 A 
ATOM     34  C   UNL     1      -6.798   0.651  -0.049  0.00  0.00    +0.006 A 
ATOM     35  C   UNL     1      -7.524  -0.475  -0.392  0.00  0.00    -0.027 A 
ATOM     36  C   UNL     1      -8.631  -0.360  -1.213  0.00  0.00    +0.006 A 
ATOM     37  C   UNL     1      -9.013   0.881  -1.687  0.00  0.00    +0.004 A 
BRANCH  32  39
ATOM     38  C   UNL     1      -9.674   4.006  -0.885  0.00  0.00    +0.009 C 
ATOM     39  C   UNL     1      -8.699   3.357  -1.869  0.00  0.00    +0.032 C 
ENDBRANCH  32  39
ENDBRANCH  30  35
ENDBRANCH  26  30
ENDBRANCH   1  27
TORSDOF 6
