REMARK  Name = ZINC19721668
REMARK  1 active torsions:
REMARK  status: ('A' for Active; 'I' for Inactive)
REMARK    1  A    between atoms: C_13  and  C_19
REMARK                            x       y       z     vdW  Elec       q    Type
REMARK                         _______ _______ _______ _____ _____    ______ ____
ROOT
ATOM      1  C   UNL     1       0.437  -0.222  -4.169  0.00  0.00    +0.001 A 
ATOM      2  C   UNL     1       1.478   0.682  -3.996  0.00  0.00    +0.002 A 
ATOM      3  C   UNL     1       2.589   0.345  -3.277  0.00  0.00    +0.026 A 
ATOM      4  C   UNL     1       2.687  -0.927  -2.703  0.00  0.00    +0.053 A 
ATOM      5  C   UNL     1       1.628  -1.847  -2.878  0.00  0.00    +0.060 A 
ATOM      6  C   UNL     1       0.503  -1.482  -3.616  0.00  0.00    +0.015 A 
ATOM      7  C   UNL     1       1.752  -3.177  -2.266  0.00  0.00    +0.251 C 
ATOM      8  O   UNL     1       0.874  -4.012  -2.382  0.00  0.00    -0.270 OA
ATOM      9  N   UNL     1       2.899  -3.441  -1.558  0.00  0.00    -0.267 N 
ATOM     10  C   UNL     1       3.871  -2.482  -1.444  0.00  0.00    +0.116 C 
ATOM     11  N   UNL     1       3.768  -1.292  -1.987  0.00  0.00    -0.342 N 
ATOM     12  C   UNL     1       5.084  -2.801  -0.678  0.00  0.00    +0.080 C 
ATOM     13  C   UNL     1       6.297  -1.984  -0.572  0.00  0.00    +0.107 C 
ATOM     14  N   UNL     1       7.134  -2.632   0.205  0.00  0.00    -0.171 NA
ATOM     15  N   UNL     1       6.547  -3.831   0.620  0.00  0.00    -0.263 N 
ATOM     16  H   UNL     1       6.965  -4.486   1.200  0.00  0.00    +0.190 HD
ATOM     17  C   UNL     1       5.309  -3.935   0.095  0.00  0.00    +0.123 C 
ATOM     18  N   UNL     1       4.426  -4.980   0.288  0.00  0.00    -0.343 N 
ATOM     19  H   UNL     1       3.472  -4.806   0.334  0.00  0.00    +0.144 HD
ATOM     20  H   UNL     1       4.759  -5.886   0.378  0.00  0.00    +0.144 HD
ATOM     21  H   UNL     1       3.021  -4.307  -1.138  0.00  0.00    +0.157 HD
ATOM     22  H   UNL     1       4.491  -0.657  -1.870  0.00  0.00    +0.167 HD
ENDROOT
BRANCH  13  23
ATOM     23  C   UNL     1       6.535  -0.672  -1.220  0.00  0.00    +0.038 A 
ATOM     24  C   UNL     1       6.699   0.473  -0.443  0.00  0.00    +0.013 A 
ATOM     25  C   UNL     1       6.921   1.692  -1.052  0.00  0.00    +0.001 A 
ATOM     26  C   UNL     1       6.980   1.780  -2.431  0.00  0.00    +0.003 A 
ATOM     27  C   UNL     1       6.818   0.648  -3.209  0.00  0.00    +0.039 A 
ATOM     28  C   UNL     1       6.601  -0.579  -2.611  0.00  0.00    +0.133 A 
ATOM     29  F   UNL     1       6.449  -1.685  -3.372  0.00  0.00    -0.205 F 
ENDBRANCH  13  23
TORSDOF 1
