REMARK  Name = ZINC12339021
REMARK  2 active torsions:
REMARK  status: ('A' for Active; 'I' for Inactive)
REMARK    1  A    between atoms: C_5  and  O_15
REMARK    2  A    between atoms: C_6  and  C_7
REMARK                            x       y       z     vdW  Elec       q    Type
REMARK                         _______ _______ _______ _____ _____    ______ ____
ROOT
ATOM      1  C   UNL     1       2.452   0.033   0.027  0.00  0.00    +0.031 A 
ATOM      2  C   UNL     1       2.433   1.411  -0.011  0.00  0.00    +0.043 A 
ATOM      3  C   UNL     1       1.231   2.091  -0.136  0.00  0.00    +0.043 A 
ATOM      4  C   UNL     1       0.039   1.396  -0.224  0.00  0.00    +0.084 A 
ATOM      5  C   UNL     1       0.038   0.010  -0.188  0.00  0.00    +0.142 A 
ATOM      6  C   UNL     1       1.252  -0.683  -0.061  0.00  0.00    +0.020 A 
ATOM      7 CL   UNL     1      -1.458   2.260  -0.388  0.00  0.00    -0.080 Cl
ATOM      8 CL   UNL     1       3.921   2.299   0.098  0.00  0.00    -0.083 Cl
ENDROOT
BRANCH   6   9
ATOM      9  C   UNL     1       1.264  -2.151  -0.022  0.00  0.00    +0.032 C 
ATOM     10  C   UNL     1       2.350  -2.808   0.461  0.00  0.00    +0.077 C 
ATOM     11  C   UNL     1       2.647  -4.254   0.470  0.00  0.00    +0.256 C 
ATOM     12  O   UNL     1       1.873  -5.069   0.002  0.00  0.00    -0.269 OA
ATOM     13  N   UNL     1       3.798  -4.620   1.009  0.00  0.00    -0.270 N 
ATOM     14  C   UNL     1       4.649  -3.714   1.533  0.00  0.00    +0.118 C 
ATOM     15  S   UNL     1       6.167  -3.988   2.276  0.00  0.00    -0.027 S 
ATOM     16  S   UNL     1       3.808  -2.162   1.266  0.00  0.00    -0.061 S 
ATOM     17  H   UNL     1       4.033  -5.560   1.032  0.00  0.00    +0.156 HD
ENDBRANCH   6   9
BRANCH   5  18
ATOM     18  O   UNL     1      -1.132  -0.673  -0.274  0.00  0.00    -0.505 OA
ATOM     19  H   UNL     1      -1.393  -0.894  -1.178  0.00  0.00    +0.292 HD
ENDBRANCH   5  18
TORSDOF 2
