REMARK  Name = ZINC44865502
REMARK  5 active torsions:
REMARK  status: ('A' for Active; 'I' for Inactive)
REMARK    1  A    between atoms: C_1  and  C_2
REMARK    2  A    between atoms: C_2  and  C_4
REMARK    3  A    between atoms: C_2  and  C_8
REMARK    4  A    between atoms: N_5  and  O_6
REMARK    5  A    between atoms: C_14  and  C_16
REMARK                            x       y       z     vdW  Elec       q    Type
REMARK                         _______ _______ _______ _____ _____    ______ ____
ROOT
ATOM      1  C   UNL     1       0.831  -0.443   1.181  0.00  0.00    +0.226 C 
ATOM      2  O   UNL     1       0.360  -1.196   2.007  0.00  0.00    -0.275 OA
ATOM      3  N   UNL     1       2.092   0.010   1.324  0.00  0.00    -0.289 N 
ATOM      4  C   UNL     1       2.746   1.017   0.469  0.00  0.00    +0.108 C 
ATOM      5  C   UNL     1       3.859   1.628   1.356  0.00  0.00    +0.021 C 
ATOM      6  C   UNL     1       4.345   0.385   2.148  0.00  0.00    +0.033 C 
ATOM      7  C   UNL     1       3.043  -0.415   2.363  0.00  0.00    +0.162 C 
ENDROOT
BRANCH   7   8
ATOM      8  C   UNL     1       3.322  -1.890   2.230  0.00  0.00    +0.231 C 
ATOM      9  O   UNL     1       2.784  -2.532   1.354  0.00  0.00    -0.274 OA
ATOM     10  N   UNL     1       4.171  -2.494   3.084  0.00  0.00    -0.328 N 
ATOM     11  H   UNL     1       4.602  -1.980   3.785  0.00  0.00    +0.145 HD
ATOM     12  H   UNL     1       4.351  -3.443   2.999  0.00  0.00    +0.145 HD
ENDBRANCH   7   8
BRANCH   1  14
ATOM     13  C   UNL     1      -0.705   1.302   0.320  0.00  0.00    +0.025 C 
ATOM     14  C   UNL     1       0.006  -0.013  -0.004  0.00  0.00    +0.138 C 
BRANCH  14  15
ATOM     15  C   UNL     1      -1.018  -1.075  -0.315  0.00  0.00    +0.143 C 
ATOM     16  N   UNL     1      -2.214  -0.978   0.162  0.00  0.00    -0.076 NA
ATOM     17  N   UNL     1      -0.677  -2.148  -1.108  0.00  0.00    -0.343 N 
ATOM     18  H   UNL     1       0.221  -2.221  -1.466  0.00  0.00    +0.144 HD
ATOM     19  H   UNL     1      -1.336  -2.831  -1.308  0.00  0.00    +0.144 HD
BRANCH  16  20
ATOM     20  O   UNL     1      -3.176  -1.975  -0.130  0.00  0.00    -0.408 OA
ATOM     21  H   UNL     1      -4.041  -1.816   0.271  0.00  0.00    +0.328 HD
ENDBRANCH  16  20
ENDBRANCH  14  15
ENDBRANCH   1  14
TORSDOF 4
