REMARK  Name = ZINC04846902
REMARK  3 active torsions:
REMARK  status: ('A' for Active; 'I' for Inactive)
REMARK    1  A    between atoms: C_3  and  O_9
REMARK    2  A    between atoms: O_9  and  C_10
REMARK    3  A    between atoms: C_10  and  C_11
REMARK                            x       y       z     vdW  Elec       q    Type
REMARK                         _______ _______ _______ _____ _____    ______ ____
ROOT
ATOM      1  C   UNL     1       2.312  -0.304  -0.023  0.00  0.00    +0.325 C 
ENDROOT
BRANCH   1   2
ATOM      2  C   UNL     1       3.713  -0.860  -0.040  0.00  0.00    +0.258 C 
ATOM      3  O   UNL     1       4.663  -0.107  -0.044  0.00  0.00    -0.272 OA
ATOM      4  N   UNL     1       3.909  -2.193  -0.049  0.00  0.00    -0.238 N 
ATOM      5  C   UNL     1       5.162  -2.690  -0.064  0.00  0.00    +0.303 C 
ATOM      6  O   UNL     1       6.114  -1.935  -0.069  0.00  0.00    -0.253 OA
ATOM      7  N   UNL     1       5.358  -4.023  -0.074  0.00  0.00    -0.313 N 
ATOM      8  H   UNL     1       3.148  -2.795  -0.045  0.00  0.00    +0.159 HD
ATOM      9  H   UNL     1       4.597  -4.625  -0.070  0.00  0.00    +0.146 HD
ATOM     10  H   UNL     1       6.260  -4.381  -0.085  0.00  0.00    +0.146 HD
ENDBRANCH   1   2
BRANCH   1  11
ATOM     11  O   UNL     1       2.366   1.123  -0.015  0.00  0.00    -0.481 OA
BRANCH  11  14
ATOM     12  C   UNL     1      -1.218   1.751   0.017  0.00  0.00    +0.019 A 
ATOM     13  C   UNL     1      -0.013   1.076   0.008  0.00  0.00    +0.048 A 
ATOM     14  C   UNL     1       1.179   1.786   0.000  0.00  0.00    +0.139 A 
ATOM     15  C   UNL     1       1.157   3.174   0.008  0.00  0.00    +0.084 A 
ATOM     16  C   UNL     1      -0.051   3.845   0.023  0.00  0.00    +0.039 A 
ATOM     17  C   UNL     1      -1.238   3.134   0.031  0.00  0.00    +0.019 A 
ATOM     18 BR   UNL     1      -2.890   4.054   0.051  0.00  0.00    -0.050 Br
ATOM     19 CL   UNL     1       2.646   4.066  -0.002  0.00  0.00    -0.080 Cl
ENDBRANCH  11  14
ENDBRANCH   1  11
TORSDOF 3
