REMARK  Name = ZINC36734223
REMARK  6 active torsions:
REMARK  status: ('A' for Active; 'I' for Inactive)
REMARK    1  A    between atoms: C_1  and  C_2
REMARK    2  A    between atoms: C_3  and  N_9
REMARK    3  A    between atoms: C_4  and  C_8
REMARK    4  A    between atoms: N_9  and  S_10
REMARK    5  A    between atoms: S_10  and  C_13
REMARK    6  A    between atoms: C_16  and  N_20
REMARK                            x       y       z     vdW  Elec       q    Type
REMARK                         _______ _______ _______ _____ _____    ______ ____
ROOT
ATOM      1  S   UNL     1       0.130  -1.468  -3.676  0.00  0.00    +0.075 S 
ATOM      2  O   UNL     1       0.187  -0.745  -4.899  0.00  0.00    -0.150 OA
ATOM      3  O   UNL     1       1.157  -2.363  -3.272  0.00  0.00    -0.150 OA
ENDROOT
BRANCH   1   4
ATOM      4  C   UNL     1      -1.365  -2.399  -3.711  0.00  0.00    +0.145 A 
ATOM      5  C   UNL     1      -1.442  -3.607  -3.040  0.00  0.00    +0.071 A 
ATOM      6  C   UNL     1      -2.614  -4.339  -3.066  0.00  0.00    +0.044 A 
ATOM      7  C   UNL     1      -3.715  -3.862  -3.765  0.00  0.00    +0.027 A 
ATOM      8  C   UNL     1      -3.635  -2.650  -4.438  0.00  0.00    +0.044 A 
ATOM      9  C   UNL     1      -2.462  -1.919  -4.405  0.00  0.00    +0.071 A 
ATOM     10 CL   UNL     1      -2.363  -0.400  -5.240  0.00  0.00    -0.081 Cl
ATOM     11 CL   UNL     1      -0.066  -4.202  -2.166  0.00  0.00    -0.081 Cl
BRANCH   7  12
ATOM     12  N   UNL     1      -4.900  -4.601  -3.793  0.00  0.00    -0.358 N 
ATOM     13  H   UNL     1      -4.955  -5.448  -3.324  0.00  0.00    +0.142 HD
ATOM     14  H   UNL     1      -5.668  -4.267  -4.282  0.00  0.00    +0.142 HD
ENDBRANCH   7  12
ENDBRANCH   1   4
BRANCH   1  15
ATOM     15  N   UNL     1      -0.021  -0.344  -2.469  0.00  0.00    -0.213 N 
ATOM     16  H   UNL     1      -0.055   0.601  -2.687  0.00  0.00    +0.174 HD
BRANCH  15  19
ATOM     17  C   UNL     1       2.165  -1.935  -1.000  0.00  0.00    +0.067 C 
ATOM     18  C   UNL     1       0.844  -1.461  -0.450  0.00  0.00    +0.056 A 
ATOM     19  C   UNL     1      -0.100  -0.760  -1.127  0.00  0.00    +0.091 A 
ATOM     20  C   UNL     1      -1.169  -0.522  -0.251  0.00  0.00    +0.082 A 
ATOM     21  N   UNL     1      -0.880  -1.059   0.907  0.00  0.00    -0.177 NA
ATOM     22  N   UNL     1       0.380  -1.663   0.812  0.00  0.00    -0.280 N 
ATOM     23  H   UNL     1       0.840  -2.140   1.520  0.00  0.00    +0.189 HD
ATOM     24  C   UNL     1      -2.434   0.225  -0.585  0.00  0.00    +0.069 C 
ENDBRANCH  15  19
ENDBRANCH   1  15
TORSDOF 4
