REMARK  Name = ZINC17143823
REMARK  7 active torsions:
REMARK  status: ('A' for Active; 'I' for Inactive)
REMARK    1  A    between atoms: C_1  and  C_2
REMARK    2  A    between atoms: C_2  and  C_3
REMARK    3  A    between atoms: C_2  and  C_4
REMARK    4  A    between atoms: C_2  and  C_5
REMARK    5  A    between atoms: C_8  and  C_11
REMARK    6  A    between atoms: C_22  and  N_26
REMARK    7  A    between atoms: C_23  and  C_24
REMARK                            x       y       z     vdW  Elec       q    Type
REMARK                         _______ _______ _______ _____ _____    ______ ____
ROOT
ATOM      1  C   UNL     1      -2.553   3.869   0.045  0.00  0.00    +0.105 C 
ATOM      2  C   UNL     1      -3.339   3.511  -1.185  0.00  0.00    +0.091 A 
ATOM      3  C   UNL     1      -2.996   4.066  -2.427  0.00  0.00    +0.259 A 
ATOM      4  O   UNL     1      -2.060   4.844  -2.526  0.00  0.00    -0.267 OA
ATOM      5  N   UNL     1      -3.724   3.723  -3.511  0.00  0.00    -0.313 N 
ATOM      6  H   UNL     1      -3.478   4.146  -4.496  0.00  0.00    +0.170 HD
ATOM      7  C   UNL     1      -4.755   2.863  -3.388  0.00  0.00    +0.203 A 
ATOM      8  N   UNL     1      -5.081   2.340  -2.238  0.00  0.00    -0.203 NA
ATOM      9  C   UNL     1      -4.402   2.637  -1.118  0.00  0.00    +0.233 A 
ATOM     10  O   UNL     1      -4.766   2.078   0.055  0.00  0.00    -0.423 OA
ATOM     11  C   UNL     1      -4.368   2.628   1.215  0.00  0.00    +0.200 C 
ATOM     12  C   UNL     1      -3.323   3.487   1.280  0.00  0.00    +0.098 C 
ENDROOT
BRANCH   1  16
ATOM     13  C   UNL     1       1.175   1.783   0.000  0.00  0.00    -0.042 A 
ATOM     14  C   UNL     1      -0.013   1.076   0.008  0.00  0.00    +0.004 A 
ATOM     15  C   UNL     1      -1.219   1.751   0.017  0.00  0.00    +0.005 A 
ATOM     16  C   UNL     1      -1.238   3.133   0.030  0.00  0.00    -0.034 A 
ATOM     17  C   UNL     1      -0.050   3.840   0.022  0.00  0.00    +0.005 A 
ATOM     18  C   UNL     1       1.156   3.165   0.008  0.00  0.00    +0.004 A 
BRANCH  13  20
ATOM     19  C   UNL     1       2.571   0.176  -1.271  0.00  0.00    +0.015 C 
ATOM     20  C   UNL     1       2.490   1.048  -0.016  0.00  0.00    -0.013 C 
ATOM     21  C   UNL     1       3.639   2.058  -0.022  0.00  0.00    +0.015 C 
ATOM     22  C   UNL     1       2.595   0.162   1.227  0.00  0.00    +0.015 C 
ENDBRANCH  13  20
ENDBRANCH   1  16
BRANCH  11  23
ATOM     23  N   UNL     1      -5.040   2.310   2.368  0.00  0.00    -0.328 N 
ATOM     24  H   UNL     1      -4.728   2.751   3.326  0.00  0.00    +0.145 HD
ATOM     25  H   UNL     1      -5.892   1.614   2.335  0.00  0.00    +0.145 HD
ENDBRANCH  11  23
BRANCH  12  26
ATOM     26  C   UNL     1      -2.945   4.041   2.545  0.00  0.00    +0.101 C 
ATOM     27  N   UNL     1      -2.645   4.481   3.548  0.00  0.00    -0.191 NA
ENDBRANCH  12  26
TORSDOF 4
