REMARK  Name = ZINC61440337
REMARK  4 active torsions:
REMARK  status: ('A' for Active; 'I' for Inactive)
REMARK    1  A    between atoms: C_1  and  C_2
REMARK    2  A    between atoms: C_9  and  S_11
REMARK    3  A    between atoms: S_11  and  C_12
REMARK    4  A    between atoms: C_17  and  C_18
REMARK                            x       y       z     vdW  Elec       q    Type
REMARK                         _______ _______ _______ _____ _____    ______ ____
ROOT
ATOM      1  C   UNL     1      -0.012  -6.913   0.999  0.00  0.00    +0.026 A 
ATOM      2  C   UNL     1       1.070  -7.718   0.666  0.00  0.00    +0.017 A 
ATOM      3  C   UNL     1       0.922  -8.726  -0.263  0.00  0.00    +0.021 A 
ATOM      4  C   UNL     1      -0.305  -8.945  -0.871  0.00  0.00    +0.042 A 
ATOM      5  C   UNL     1      -1.390  -8.156  -0.553  0.00  0.00    +0.032 A 
ATOM      6  C   UNL     1      -1.256  -7.135   0.390  0.00  0.00    +0.027 A 
ATOM      7 CL   UNL     1      -0.475 -10.219  -2.039  0.00  0.00    -0.084 Cl
ENDROOT
BRANCH   6   8
ATOM      8  C   UNL     1      -2.416  -6.291   0.740  0.00  0.00    +0.095 C 
ATOM      9  N   UNL     1      -3.067  -5.625  -0.214  0.00  0.00    -0.387 N 
ATOM     10  N   UNL     1      -2.811  -6.195   2.009  0.00  0.00    -0.345 N 
ATOM     11  H   UNL     1      -3.872  -5.130   0.004  0.00  0.00    +0.157 HD
ATOM     12  H   UNL     1      -2.337  -6.679   2.703  0.00  0.00    +0.144 HD
ATOM     13  H   UNL     1      -3.573  -5.640   2.239  0.00  0.00    +0.144 HD
ATOM     14  H   UNL     1      -2.736  -5.636  -1.126  0.00  0.00    +0.157 HD
ENDBRANCH   6   8
BRANCH   1  15
ATOM     15  S   UNL     1       0.174  -5.624   2.186  0.00  0.00    -0.051 S 
BRANCH  15  24
ATOM     16  C   UNL     1       0.409   1.438  -0.879  0.00  0.00    +0.044 C 
ATOM     17  C   UNL     1       0.362  -0.062  -0.745  0.00  0.00    -0.048 A 
ATOM     18  C   UNL     1       0.346  -0.856  -1.882  0.00  0.00    +0.005 A 
ATOM     19  C   UNL     1       0.303  -2.228  -1.777  0.00  0.00    +0.030 A 
ATOM     20  C   UNL     1       0.277  -2.826  -0.515  0.00  0.00    +0.090 A 
ATOM     21  C   UNL     1       0.294  -2.018   0.634  0.00  0.00    +0.067 A 
ATOM     22  C   UNL     1       0.343  -0.638   0.509  0.00  0.00    +0.031 A 
ATOM     23  N   UNL     1       0.261  -2.884   1.715  0.00  0.00    -0.333 N 
ATOM     24  C   UNL     1       0.225  -4.155   1.214  0.00  0.00    +0.172 A 
ATOM     25  N   UNL     1       0.234  -4.118  -0.095  0.00  0.00    -0.222 NA
ATOM     26  H   UNL     1       0.263  -2.634   2.652  0.00  0.00    +0.168 HD
ENDBRANCH  15  24
ENDBRANCH   1  15
TORSDOF 3
