REMARK  Name = ZINC39442348
REMARK  9 active torsions:
REMARK  status: ('A' for Active; 'I' for Inactive)
REMARK    1  A    between atoms: C_1  and  C_2
REMARK    2  A    between atoms: C_2  and  O_3
REMARK    3  A    between atoms: O_3  and  C_4
REMARK    4  A    between atoms: C_4  and  C_6
REMARK    5  A    between atoms: C_8  and  C_33
REMARK    6  A    between atoms: C_10  and  C_15
REMARK    7  A    between atoms: C_12  and  C_14
REMARK    8  A    between atoms: C_21  and  C_24
REMARK    9  A    between atoms: C_30  and  C_32
REMARK                            x       y       z     vdW  Elec       q    Type
REMARK                         _______ _______ _______ _____ _____    ______ ____
ROOT
ATOM      1  C   UNL     1      -0.350  -4.402  -5.157  0.00  0.00    +0.244 C 
ATOM      2  O   UNL     1      -0.411  -5.611  -5.295  0.00  0.00    -0.270 OA
ATOM      3  N   UNL     1      -1.006  -3.593  -6.012  0.00  0.00    -0.297 N 
ATOM      4  C   UNL     1      -0.842  -2.135  -5.938  0.00  0.00    +0.108 C 
ATOM      5  C   UNL     1      -0.434  -1.614  -7.320  0.00  0.00    +0.020 C 
ATOM      6  C   UNL     1      -1.458  -2.079  -8.358  0.00  0.00    +0.013 C 
ATOM      7  C   UNL     1      -1.480  -3.609  -8.406  0.00  0.00    +0.055 C 
ATOM      8  C   UNL     1      -1.894  -4.153  -7.040  0.00  0.00    +0.117 C 
ENDROOT
BRANCH   7   9
ATOM      9  C   UNL     1      -2.464  -4.065  -9.452  0.00  0.00    +0.053 A 
ATOM     10  C   UNL     1      -2.041  -4.827 -10.499  0.00  0.00    +0.093 A 
ATOM     11  C   UNL     1      -2.988  -5.238 -11.460  0.00  0.00    +0.252 A 
ATOM     12  O   UNL     1      -2.653  -5.921 -12.413  0.00  0.00    -0.268 OA
ATOM     13  N   UNL     1      -4.275  -4.859 -11.302  0.00  0.00    -0.311 N 
ATOM     14  H   UNL     1      -4.944  -5.130 -11.950  0.00  0.00    +0.170 HD
ATOM     15  C   UNL     1      -4.628  -4.104 -10.243  0.00  0.00    +0.107 A 
ATOM     16  N   UNL     1      -3.752  -3.728  -9.350  0.00  0.00    -0.239 NA
ATOM     17  C   UNL     1      -6.068  -3.690 -10.082  0.00  0.00    +0.086 C 
ENDBRANCH   7   9
BRANCH   1  20
ATOM     18  C   UNL     1       2.186  -3.004  -2.723  0.00  0.00    +0.187 C 
ATOM     19  C   UNL     1       1.903  -3.618  -4.108  0.00  0.00    +0.054 C 
ATOM     20  C   UNL     1       0.407  -3.848  -4.099  0.00  0.00    +0.036 C 
ATOM     21  H   UNL     1       0.702  -2.605  -1.182  0.00  0.00    +0.147 HD
ATOM     22  C   UNL     1      -0.079  -3.438  -2.917  0.00  0.00    +0.010 C 
ATOM     23  N   UNL     1       0.869  -2.945  -2.075  0.00  0.00    -0.334 N 
ATOM     24  C   UNL     1      -1.540  -3.518  -2.555  0.00  0.00    +0.061 C 
ATOM     25  C   UNL     1       2.653  -4.941  -4.273  0.00  0.00    +0.015 C 
BRANCH  18  26
ATOM     26  C   UNL     1       2.765  -1.620  -2.869  0.00  0.00    +0.328 C 
ATOM     27  O   UNL     1       2.050  -0.652  -2.761  0.00  0.00    -0.249 OA
BRANCH  26  28
ATOM     28  O   UNL     1       4.074  -1.463  -3.117  0.00  0.00    -0.464 OA
BRANCH  28  30
ATOM     29  C   UNL     1       6.059  -0.144  -3.523  0.00  0.00    +0.048 C 
ATOM     30  C   UNL     1       4.554  -0.123  -3.243  0.00  0.00    +0.229 C 
ENDBRANCH  28  30
ENDBRANCH  26  28
ENDBRANCH  18  26
ENDBRANCH   1  20
TORSDOF 5
