REMARK  Name = ZINC09610560
REMARK  6 active torsions:
REMARK  status: ('A' for Active; 'I' for Inactive)
REMARK    1  A    between atoms: C_4  and  C_7
REMARK    2  A    between atoms: C_7  and  C_9
REMARK    3  A    between atoms: C_7  and  N_19
REMARK    4  A    between atoms: N_11  and  C_12
REMARK    5  A    between atoms: N_19  and  S_20
REMARK    6  A    between atoms: S_20  and  C_23
REMARK                            x       y       z     vdW  Elec       q    Type
REMARK                         _______ _______ _______ _____ _____    ______ ____
ROOT
ATOM      1  C   UNL     1      -1.101  -1.966  -2.434  0.00  0.00    +0.192 C 
ENDROOT
BRANCH   1   5
ATOM      2  C   UNL     1      -2.621  -5.958  -2.436  0.00  0.00    +0.000 A 
ATOM      3  C   UNL     1      -1.257  -5.738  -2.418  0.00  0.00    +0.000 A 
ATOM      4  C   UNL     1      -0.765  -4.446  -2.417  0.00  0.00    +0.006 A 
ATOM      5  C   UNL     1      -1.637  -3.374  -2.435  0.00  0.00    -0.020 A 
ATOM      6  C   UNL     1      -3.002  -3.594  -2.448  0.00  0.00    +0.006 A 
ATOM      7  C   UNL     1      -3.494  -4.886  -2.454  0.00  0.00    +0.000 A 
ENDBRANCH   1   5
BRANCH   1   8
ATOM      8  C   UNL     1      -1.133  -1.416  -3.837  0.00  0.00    +0.240 C 
ATOM      9  O   UNL     1      -1.782  -0.422  -4.084  0.00  0.00    -0.273 OA
ATOM     10  N   UNL     1      -0.438  -2.028  -4.816  0.00  0.00    -0.282 N 
ATOM     11  H   UNL     1       0.133  -2.783  -4.607  0.00  0.00    +0.155 HD
BRANCH  10  12
ATOM     12  C   UNL     1      -0.541  -1.572  -6.137  0.00  0.00    +0.069 A 
ATOM     13  C   UNL     1      -0.698  -0.218  -6.395  0.00  0.00    +0.026 A 
ATOM     14  C   UNL     1      -0.794   0.229  -7.699  0.00  0.00    +0.002 A 
ATOM     15  C   UNL     1      -0.744  -0.672  -8.747  0.00  0.00    +0.003 A 
ATOM     16  C   UNL     1      -0.594  -2.023  -8.494  0.00  0.00    +0.040 A 
ATOM     17  C   UNL     1      -0.492  -2.477  -7.192  0.00  0.00    +0.144 A 
ATOM     18  F   UNL     1      -0.345  -3.797  -6.945  0.00  0.00    -0.204 F 
ENDBRANCH  10  12
ENDBRANCH   1   8
BRANCH   1  19
ATOM     19  N   UNL     1      -1.929  -1.129  -1.562  0.00  0.00    -0.174 NA
ATOM     20  H   UNL     1      -2.739  -0.721  -1.908  0.00  0.00    +0.149 HD
BRANCH  19  21
ATOM     21  S   UNL     1      -1.483  -0.879   0.013  0.00  0.00    +0.059 S 
ATOM     22  O   UNL     1      -1.186  -2.156   0.559  0.00  0.00    -0.153 OA
ATOM     23  O   UNL     1      -2.459  -0.016   0.579  0.00  0.00    -0.153 OA
BRANCH  21  24
ATOM     24  C   UNL     1       0.031   0.022  -0.012  0.00  0.00    +0.106 A 
ATOM     25  C   UNL     1       1.237  -0.655  -0.031  0.00  0.00    +0.030 A 
ATOM     26  C   UNL     1       2.426   0.047  -0.049  0.00  0.00    +0.025 A 
ATOM     27  C   UNL     1       2.409   1.436  -0.049  0.00  0.00    +0.037 A 
ATOM     28  C   UNL     1       1.197   2.113  -0.030  0.00  0.00    -0.024 A 
ATOM     29  C   UNL     1       0.012   1.405  -0.012  0.00  0.00    +0.034 A 
ATOM     30  C   UNL     1       1.180   3.619  -0.032  0.00  0.00    +0.046 C 
ATOM     31  C   UNL     1       2.382   4.145   0.752  0.00  0.00    +0.101 C 
ATOM     32  C   UNL     1       3.636   3.448   0.297  0.00  0.00    +0.218 C 
ATOM     33  O   UNL     1       4.682   4.060   0.260  0.00  0.00    -0.275 OA
ATOM     34  N   UNL     1       3.609   2.153  -0.068  0.00  0.00    -0.285 N 
ATOM     35  H   UNL     1       4.428   1.715  -0.347  0.00  0.00    +0.155 HD
ENDBRANCH  21  24
ENDBRANCH  19  21
ENDBRANCH   1  19
TORSDOF 6
