REMARK  Name = ZINC66354302
REMARK  4 active torsions:
REMARK  status: ('A' for Active; 'I' for Inactive)
REMARK    1  A    between atoms: N_6  and  C_7
REMARK    2  A    between atoms: C_8  and  C_16
REMARK    3  A    between atoms: C_9  and  N_15
REMARK    4  A    between atoms: C_10  and  C_12
REMARK                            x       y       z     vdW  Elec       q    Type
REMARK                         _______ _______ _______ _____ _____    ______ ____
ROOT
ATOM      1  C   UNL     1      -0.747  -0.718  -0.905  0.00  0.00    +0.088 A 
ATOM      2  C   UNL     1      -0.768  -2.099  -1.101  0.00  0.00    +0.101 A 
ATOM      3  C   UNL     1      -1.615  -2.601  -2.087  0.00  0.00    +0.063 A 
ATOM      4  C   UNL     1      -2.360  -1.655  -2.781  0.00  0.00    +0.097 A 
ATOM      5  S   UNL     1      -1.850  -0.125  -2.024  0.00  0.00    -0.066 S 
ENDROOT
BRANCH   1  11
ATOM      6  C   UNL     1      -0.512   0.281   1.351  0.00  0.00    +0.133 C 
ATOM      7  C   UNL     1      -0.355   1.781   1.622  0.00  0.00    +0.178 C 
ATOM      8  O   UNL     1       0.997   2.167   1.362  0.00  0.00    -0.377 OA
ATOM      9  C   UNL     1       1.407   1.987   0.005  0.00  0.00    +0.178 C 
ATOM     10  C   UNL     1       1.341   0.496  -0.348  0.00  0.00    +0.133 C 
ATOM     11  N   UNL     1       0.002  -0.004   0.002  0.00  0.00    -0.319 N 
ENDBRANCH   1  11
BRANCH   4  12
ATOM     12  C   UNL     1      -3.291  -1.855  -3.822  0.00  0.00    +0.250 C 
ATOM     13  O   UNL     1      -3.526  -2.983  -4.220  0.00  0.00    -0.270 OA
ATOM     14  N   UNL     1      -3.920  -0.800  -4.376  0.00  0.00    -0.325 N 
ATOM     15  H   UNL     1      -3.733   0.097  -4.060  0.00  0.00    +0.145 HD
ATOM     16  H   UNL     1      -4.560  -0.939  -5.092  0.00  0.00    +0.145 HD
ENDBRANCH   4  12
BRANCH   3  17
ATOM     17  N   UNL     1      -1.709  -3.959  -2.359  0.00  0.00    -0.356 N 
ATOM     18  H   UNL     1      -1.174  -4.592  -1.856  0.00  0.00    +0.142 HD
ATOM     19  H   UNL     1      -2.309  -4.274  -3.053  0.00  0.00    +0.142 HD
ENDBRANCH   3  17
BRANCH   2  20
ATOM     20  C   UNL     1       0.053  -2.970  -0.315  0.00  0.00    +0.103 C 
ATOM     21  N   UNL     1       0.704  -3.661   0.309  0.00  0.00    -0.191 NA
ENDBRANCH   2  20
TORSDOF 4
