REMARK  Name = ZINC54526509
REMARK  3 active torsions:
REMARK  status: ('A' for Active; 'I' for Inactive)
REMARK    1  A    between atoms: C_3  and  N_19
REMARK    2  A    between atoms: C_4  and  C_8
REMARK    3  A    between atoms: N_12  and  C_13
REMARK                            x       y       z     vdW  Elec       q    Type
REMARK                         _______ _______ _______ _____ _____    ______ ____
ROOT
ATOM      1  C   UNL     1       3.693  -0.697  -0.040  0.00  0.00    +0.166 A 
ATOM      2  N   UNL     1       4.890  -0.160  -0.134  0.00  0.00    -0.129 NA
ATOM      3  N   UNL     1       5.783  -1.084  -0.114  0.00  0.00    -0.138 NA
ATOM      4  C   UNL     1       5.215  -2.254  -0.006  0.00  0.00    +0.225 A 
ATOM      5  N   UNL     1       3.870  -2.052   0.050  0.00  0.00    -0.310 N 
ENDROOT
BRANCH   1   9
ATOM      6  C   UNL     1      -0.018   1.379  -0.002  0.00  0.00    +0.017 A 
ATOM      7  C   UNL     1       0.922   1.678  -0.970  0.00  0.00    +0.024 A 
ATOM      8  C   UNL     1       2.136   1.007  -0.991  0.00  0.00    +0.035 A 
ATOM      9  C   UNL     1       2.404   0.025  -0.027  0.00  0.00    +0.041 A 
ATOM     10  C   UNL     1       1.447  -0.267   0.945  0.00  0.00    +0.028 A 
ATOM     11  C   UNL     1       0.244   0.410   0.952  0.00  0.00    +0.019 A 
ATOM     12 BR   UNL     1      -1.053   0.012   2.270  0.00  0.00    -0.050 Br
BRANCH   8  13
ATOM     13  N   UNL     1       3.085   1.307  -1.967  0.00  0.00    -0.357 N 
ATOM     14  H   UNL     1       2.897   1.986  -2.633  0.00  0.00    +0.142 HD
ATOM     15  H   UNL     1       3.933   0.836  -1.980  0.00  0.00    +0.142 HD
ENDBRANCH   8  13
ENDBRANCH   1   9
BRANCH   5  16
ATOM     16  C   UNL     1       2.826  -3.072   0.176  0.00  0.00    +0.090 C 
ATOM     17  C   UNL     1       2.958  -3.770   1.531  0.00  0.00    +0.025 C 
ATOM     18  C   UNL     1       1.868  -4.836   1.664  0.00  0.00    +0.002 C 
ATOM     19  C   UNL     1       2.023  -5.866   0.542  0.00  0.00    +0.000 C 
ATOM     20  C   UNL     1       1.892  -5.168  -0.813  0.00  0.00    +0.002 C 
ATOM     21  C   UNL     1       2.981  -4.102  -0.945  0.00  0.00    +0.025 C 
ENDBRANCH   5  16
TORSDOF 3
