REMARK  Name = ZINC09606336
REMARK  4 active torsions:
REMARK  status: ('A' for Active; 'I' for Inactive)
REMARK    1  A    between atoms: C_5  and  C_6
REMARK    2  A    between atoms: C_6  and  O_8
REMARK    3  A    between atoms: O_8  and  C_9
REMARK    4  A    between atoms: C_9  and  C_10
REMARK                            x       y       z     vdW  Elec       q    Type
REMARK                         _______ _______ _______ _____ _____    ______ ____
ROOT
ATOM      1  C   UNL     1       6.080   0.168  -0.055  0.00  0.00    +0.328 C 
ENDROOT
BRANCH   1   2
ATOM      2  C   UNL     1       7.027   1.340  -0.058  0.00  0.00    +0.258 C 
ATOM      3  O   UNL     1       6.591   2.471  -0.048  0.00  0.00    -0.272 OA
ATOM      4  N   UNL     1       8.358   1.131  -0.072  0.00  0.00    -0.238 N 
ATOM      5  C   UNL     1       9.205   2.180  -0.074  0.00  0.00    +0.303 C 
ATOM      6  O   UNL     1       8.768   3.314  -0.064  0.00  0.00    -0.253 OA
ATOM      7  N   UNL     1      10.536   1.971  -0.088  0.00  0.00    -0.313 N 
ATOM      8  H   UNL     1       8.707   0.226  -0.080  0.00  0.00    +0.159 HD
ATOM      9  H   UNL     1      10.885   1.066  -0.096  0.00  0.00    +0.146 HD
ATOM     10  H   UNL     1      11.146   2.725  -0.090  0.00  0.00    +0.146 HD
ENDBRANCH   1   2
BRANCH   1  11
ATOM     11  O   UNL     1       4.733   0.644  -0.040  0.00  0.00    -0.451 OA
BRANCH  11  12
ATOM     12  C   UNL     1       3.755  -0.286  -0.035  0.00  0.00    +0.346 C 
ATOM     13  O   UNL     1       4.040  -1.468  -0.044  0.00  0.00    -0.244 OA
BRANCH  12  18
ATOM     14  C   UNL     1       1.208  -0.657  -0.013  0.00  0.00    +0.024 A 
ATOM     15  C   UNL     1       0.002  -0.004   0.002  0.00  0.00    +0.024 A 
ATOM     16  C   UNL     1      -0.016   1.357   0.009  0.00  0.00    +0.056 A 
ATOM     17  S   UNL     1       1.666   1.775  -0.004  0.00  0.00    -0.075 S 
ATOM     18  C   UNL     1       2.352   0.129  -0.020  0.00  0.00    +0.097 A 
ATOM     19 BR   UNL     1      -1.514   2.511   0.023  0.00  0.00    -0.043 Br
ENDBRANCH  12  18
ENDBRANCH  11  12
ENDBRANCH   1  11
TORSDOF 4
