REMARK  Name = ZINC04226156
REMARK  8 active torsions:
REMARK  status: ('A' for Active; 'I' for Inactive)
REMARK    1  A    between atoms: C_1  and  C_2
REMARK    2  A    between atoms: C_2  and  C_3
REMARK    3  A    between atoms: C_2  and  C_4
REMARK    4  A    between atoms: C_7  and  C_10
REMARK    5  A    between atoms: C_11  and  C_12
REMARK    6  A    between atoms: C_11  and  N_16
REMARK    7  A    between atoms: N_14  and  N_15
REMARK    8  A    between atoms: C_17  and  C_19
REMARK                            x       y       z     vdW  Elec       q    Type
REMARK                         _______ _______ _______ _____ _____    ______ ____
ROOT
ATOM      1  C   UNL     1      -0.071   0.996  -0.102  0.00  0.00    +0.036 C 
ATOM      2  C   UNL     1      -1.175   1.760   0.062  0.00  0.00    +0.098 C 
ENDROOT
BRANCH   1   6
ATOM      3  C   UNL     1       3.507   2.728  -1.581  0.00  0.00    -0.045 A 
ATOM      4  C   UNL     1       3.568   1.745  -0.608  0.00  0.00    +0.004 A 
ATOM      5  C   UNL     1       2.410   1.177  -0.122  0.00  0.00    +0.008 A 
ATOM      6  C   UNL     1       1.170   1.597  -0.615  0.00  0.00    -0.023 A 
ATOM      7  C   UNL     1       1.116   2.586  -1.602  0.00  0.00    +0.008 A 
ATOM      8  C   UNL     1       2.283   3.149  -2.073  0.00  0.00    +0.004 A 
BRANCH   3  10
ATOM      9  C   UNL     1       4.879   3.097  -3.613  0.00  0.00    +0.012 C 
ATOM     10  C   UNL     1       4.778   3.344  -2.106  0.00  0.00    +0.013 C 
ATOM     11  C   UNL     1       4.765   4.849  -1.835  0.00  0.00    +0.012 C 
ENDBRANCH   3  10
ENDBRANCH   1   6
BRANCH   2  12
ATOM     12  C   UNL     1      -1.107   3.211  -0.171  0.00  0.00    +0.272 C 
ATOM     13  O   UNL     1      -1.523   3.680  -1.213  0.00  0.00    -0.268 OA
ATOM     14  N   UNL     1      -0.583   4.020   0.771  0.00  0.00    -0.249 N 
ATOM     15  H   UNL     1      -0.185   3.641   1.570  0.00  0.00    +0.169 HD
BRANCH  14  16
ATOM     16  N   UNL     1      -0.612   5.375   0.600  0.00  0.00    -0.254 NA
ATOM     17  H   UNL     1      -1.555   5.701   0.451  0.00  0.00    +0.140 HD
ATOM     18  H   UNL     1      -0.185   5.848   1.383  0.00  0.00    +0.140 HD
ENDBRANCH  14  16
ENDBRANCH   2  12
BRANCH   2  19
ATOM     19  N   UNL     1      -2.381   1.171   0.453  0.00  0.00    -0.277 N 
ATOM     20  C   UNL     1      -3.471   1.938   0.656  0.00  0.00    +0.250 C 
ATOM     21  O   UNL     1      -3.433   3.127   0.405  0.00  0.00    -0.270 OA
ATOM     22  H   UNL     1      -2.434   0.211   0.578  0.00  0.00    +0.155 HD
BRANCH  20  23
ATOM     23  C   UNL     1      -4.711   1.334   1.184  0.00  0.00    +0.055 A 
ATOM     24  C   UNL     1      -4.758  -0.031   1.473  0.00  0.00    +0.016 A 
ATOM     25  C   UNL     1      -5.918  -0.589   1.966  0.00  0.00    +0.021 A 
ATOM     26  C   UNL     1      -7.037   0.201   2.173  0.00  0.00    +0.042 A 
ATOM     27  C   UNL     1      -6.999   1.555   1.889  0.00  0.00    +0.040 A 
ATOM     28  C   UNL     1      -5.841   2.127   1.401  0.00  0.00    +0.054 A 
ATOM     29 CL   UNL     1      -5.791   3.827   1.051  0.00  0.00    -0.083 Cl
ATOM     30 CL   UNL     1      -8.495  -0.511   2.793  0.00  0.00    -0.083 Cl
ENDBRANCH  20  23
ENDBRANCH   2  19
TORSDOF 6
