REMARK  Name = ZINC17081146
REMARK  7 active torsions:
REMARK  status: ('A' for Active; 'I' for Inactive)
REMARK    1  A    between atoms: C_1  and  C_2
REMARK    2  A    between atoms: C_3  and  C_8
REMARK    3  A    between atoms: N_5  and  C_7
REMARK    4  A    between atoms: C_19  and  O_34
REMARK    5  A    between atoms: C_23  and  C_33
REMARK    6  A    between atoms: C_28  and  C_32
REMARK    7  A    between atoms: C_29  and  O_31
REMARK                            x       y       z     vdW  Elec       q    Type
REMARK                         _______ _______ _______ _____ _____    ______ ____
ROOT
ATOM      1  C   UNL     1       0.481   1.855   2.992  0.00  0.00    +0.013 C 
ATOM      2  C   UNL     1       1.227   2.166   4.041  0.00  0.00    -0.040 C 
ATOM      3  C   UNL     1       2.758   2.104   4.118  0.00  0.00    +0.037 C 
ATOM      4  C   UNL     1       3.061   2.890   5.400  0.00  0.00    +0.005 C 
ATOM      5  C   UNL     1       4.429   2.812   6.000  0.00  0.00    +0.001 C 
ATOM      6  C   UNL     1       4.923   1.400   6.295  0.00  0.00    +0.031 C 
ATOM      7  C   UNL     1       6.320   1.503   6.854  0.00  0.00    -0.027 C 
ATOM      8  C   UNL     1       6.678   2.496   7.606  0.00  0.00    -0.065 C 
ATOM      9  C   UNL     1       8.058   2.464   8.243  0.00  0.00    +0.062 C 
ATOM     10  C   UNL     1       8.698   3.842   8.031  0.00  0.00    +0.119 C 
ATOM     11  C   UNL     1       7.943   4.590   6.935  0.00  0.00    +0.032 C 
ATOM     12  C   UNL     1       6.526   4.940   7.378  0.00  0.00    +0.014 C 
ATOM     13  C   UNL     1       5.810   3.688   7.908  0.00  0.00    -0.008 C 
ATOM     14  C   UNL     1       4.416   3.609   7.323  0.00  0.00    +0.003 C 
ATOM     15  C   UNL     1       3.347   3.091   8.264  0.00  0.00    +0.005 C 
ATOM     16  C   UNL     1       1.948   3.164   7.621  0.00  0.00    +0.010 C 
ATOM     17  C   UNL     1       1.936   2.394   6.328  0.00  0.00    +0.001 C 
ATOM     18  C   UNL     1       0.728   2.647   5.402  0.00  0.00    +0.147 C 
ATOM     19  C   UNL     1       1.962   0.892   6.589  0.00  0.00    +0.014 C 
ATOM     20  C   UNL     1       5.725   3.835   9.430  0.00  0.00    +0.016 C 
ENDROOT
BRANCH   1  23
ATOM     21  C   UNL     1      -1.744   0.213   1.444  0.00  0.00    +0.068 C 
ATOM     22  C   UNL     1      -1.969   1.415   2.324  0.00  0.00    +0.067 A 
ATOM     23  C   UNL     1      -0.971   2.139   3.008  0.00  0.00    +0.015 A 
ATOM     24  C   UNL     1      -1.589   3.150   3.688  0.00  0.00    +0.116 A 
ATOM     25  N   UNL     1      -2.911   3.059   3.439  0.00  0.00    -0.274 N 
ATOM     26  N   UNL     1      -3.122   1.973   2.581  0.00  0.00    -0.176 NA
ATOM     27  C   UNL     1      -3.948   3.948   3.970  0.00  0.00    +0.172 C 
ENDBRANCH   1  23
BRANCH  18  28
ATOM     28  O   UNL     1      -0.381   1.863   5.837  0.00  0.00    -0.387 OA
ATOM     29  H   UNL     1      -1.100   1.808   5.193  0.00  0.00    +0.210 HD
ENDBRANCH  18  28
BRANCH  10  30
ATOM     30  O   UNL     1      10.064   3.679   7.645  0.00  0.00    -0.391 OA
ATOM     31  H   UNL     1      10.604   3.212   8.296  0.00  0.00    +0.210 HD
ENDBRANCH  10  30
TORSDOF 3
