REMARK  Name = ZINC01159923
REMARK  7 active torsions:
REMARK  status: ('A' for Active; 'I' for Inactive)
REMARK    1  A    between atoms: C_1  and  O_2
REMARK    2  A    between atoms: O_2  and  C_3
REMARK    3  A    between atoms: C_12  and  C_13
REMARK    4  A    between atoms: N_15  and  C_16
REMARK    5  A    between atoms: C_16  and  N_18
REMARK    6  A    between atoms: N_18  and  C_19
REMARK    7  A    between atoms: C_22  and  C_26
REMARK                            x       y       z     vdW  Elec       q    Type
REMARK                         _______ _______ _______ _____ _____    ______ ____
ROOT
ATOM      1  C   UNL     1      -3.639   2.149  -0.480  0.00  0.00    +0.253 C 
ATOM      2  O   UNL     1      -4.656   1.520  -0.702  0.00  0.00    -0.270 OA
ATOM      3  N   UNL     1      -3.707   3.467  -0.211  0.00  0.00    -0.263 N 
ATOM      4  H   UNL     1      -2.896   3.969  -0.034  0.00  0.00    +0.157 HD
ENDROOT
BRANCH   1  14
ATOM      5  C   UNL     1      -2.265   0.087  -0.787  0.00  0.00    +0.133 A 
ATOM      6  C   UNL     1      -1.065  -0.561  -0.814  0.00  0.00    +0.055 A 
ATOM      7  C   UNL     1       0.122   0.146  -0.561  0.00  0.00    -0.014 A 
ATOM      8  C   UNL     1       1.369  -0.501  -0.584  0.00  0.00    +0.008 A 
ATOM      9  C   UNL     1       2.503   0.210  -0.334  0.00  0.00    +0.001 A 
ATOM     10  C   UNL     1       2.448   1.575  -0.054  0.00  0.00    +0.001 A 
ATOM     11  C   UNL     1       1.260   2.236  -0.023  0.00  0.00    +0.008 A 
ATOM     12  C   UNL     1       0.066   1.536  -0.276  0.00  0.00    -0.017 A 
ATOM     13  C   UNL     1      -1.175   2.187  -0.246  0.00  0.00    +0.025 A 
ATOM     14  C   UNL     1      -2.331   1.468  -0.505  0.00  0.00    +0.079 A 
BRANCH   5  16
ATOM     15  C   UNL     1      -3.274  -2.000  -1.311  0.00  0.00    +0.277 C 
ATOM     16  O   UNL     1      -3.407  -0.604  -1.032  0.00  0.00    -0.494 OA
ENDBRANCH   5  16
ENDBRANCH   1  14
BRANCH   3  17
ATOM     17  C   UNL     1      -4.903   4.090  -0.188  0.00  0.00    +0.141 C 
ATOM     18  S   UNL     1      -6.335   3.205  -0.501  0.00  0.00    -0.018 S 
BRANCH  17  19
ATOM     19  N   UNL     1      -4.971   5.409   0.081  0.00  0.00    -0.297 N 
ATOM     20  H   UNL     1      -4.171   5.894   0.336  0.00  0.00    +0.154 HD
BRANCH  19  21
ATOM     21  C   UNL     1      -6.191   6.076  -0.009  0.00  0.00    +0.034 A 
ATOM     22  C   UNL     1      -7.050   5.812  -1.073  0.00  0.00    +0.024 A 
ATOM     23  C   UNL     1      -8.258   6.464  -1.162  0.00  0.00    +0.018 A 
ATOM     24  C   UNL     1      -8.618   7.402  -0.189  0.00  0.00    +0.082 A 
ATOM     25  C   UNL     1      -7.751   7.669   0.875  0.00  0.00    +0.057 A 
ATOM     26  C   UNL     1      -6.545   7.007   0.961  0.00  0.00    +0.044 A 
ATOM     27 CL   UNL     1      -8.192   8.832   2.087  0.00  0.00    -0.083 Cl
BRANCH  24  28
ATOM     28  C   UNL     1      -9.909   8.107  -0.285  0.00  0.00    +0.388 C 
ATOM     29  O   UNL     1     -10.221   8.921   0.561  0.00  0.00    -0.241 OA
ATOM     30  O   UNL     1     -10.743   7.849  -1.311  0.00  0.00    -0.241 OA
ENDBRANCH  24  28
ENDBRANCH  19  21
ENDBRANCH  17  19
ENDBRANCH   3  17
TORSDOF 6
