REMARK  Name = ZINC40349070
REMARK  4 active torsions:
REMARK  status: ('A' for Active; 'I' for Inactive)
REMARK    1  A    between atoms: C_3  and  N_22
REMARK    2  A    between atoms: C_4  and  S_8
REMARK    3  A    between atoms: S_8  and  N_11
REMARK    4  A    between atoms: C_15  and  C_18
REMARK                            x       y       z     vdW  Elec       q    Type
REMARK                         _______ _______ _______ _____ _____    ______ ____
ROOT
ATOM      1  S   UNL     1       3.912  -1.110  -0.098  0.00  0.00    +0.063 S 
ATOM      2  O   UNL     1       4.765  -0.594   0.914  0.00  0.00    -0.153 OA
ATOM      3  O   UNL     1       3.552  -2.483  -0.165  0.00  0.00    -0.153 OA
ENDROOT
BRANCH   1   7
ATOM      4  C   UNL     1       0.039   1.231   0.154  0.00  0.00    +0.022 A 
ATOM      5  C   UNL     1       1.247   1.901   0.154  0.00  0.00    +0.026 A 
ATOM      6  C   UNL     1       2.436   1.187   0.077  0.00  0.00    +0.051 A 
ATOM      7  C   UNL     1       2.406  -0.200  -0.000  0.00  0.00    +0.127 A 
ATOM      8  C   UNL     1       1.196  -0.864  -0.001  0.00  0.00    +0.050 A 
ATOM      9  C   UNL     1       0.013  -0.150   0.076  0.00  0.00    +0.043 A 
ATOM     10 CL   UNL     1      -1.508  -0.989   0.076  0.00  0.00    -0.083 Cl
BRANCH   6  11
ATOM     11  N   UNL     1       3.659   1.862   0.078  0.00  0.00    -0.356 N 
ATOM     12  H   UNL     1       3.678   2.831   0.043  0.00  0.00    +0.142 HD
ATOM     13  H   UNL     1       4.489   1.362   0.113  0.00  0.00    +0.142 HD
ENDBRANCH   6  11
ENDBRANCH   1   7
BRANCH   1  14
ATOM     14  N   UNL     1       4.617  -0.734  -1.549  0.00  0.00    -0.176 NA
ATOM     15  C   UNL     1       4.204  -1.419  -2.781  0.00  0.00    +0.109 C 
ATOM     16  C   UNL     1       5.447  -2.003  -3.461  0.00  0.00    +0.018 C 
ATOM     17  C   UNL     1       6.476  -0.890  -3.674  0.00  0.00    +0.015 C 
ATOM     18  C   UNL     1       6.893  -0.312  -2.320  0.00  0.00    +0.109 C 
ATOM     19  C   UNL     1       5.663   0.295  -1.629  0.00  0.00    +0.121 C 
BRANCH  18  20
ATOM     20  C   UNL     1       7.947   0.776  -2.532  0.00  0.00    +0.394 C 
ATOM     21  F   UNL     1       7.412   1.794  -3.329  0.00  0.00    -0.170 F 
ATOM     22  F   UNL     1       8.328   1.305  -1.294  0.00  0.00    -0.170 F 
ATOM     23  F   UNL     1       9.065   0.226  -3.167  0.00  0.00    -0.170 F 
ENDBRANCH  18  20
ENDBRANCH   1  14
TORSDOF 4
