REMARK  Name = ZINC01674860
REMARK  2 active torsions:
REMARK  status: ('A' for Active; 'I' for Inactive)
REMARK    1  A    between atoms: C_2  and  S_11
REMARK    2  A    between atoms: S_11  and  N_14
REMARK                            x       y       z     vdW  Elec       q    Type
REMARK                         _______ _______ _______ _____ _____    ______ ____
ROOT
ATOM      1  C   UNL     1       1.153   2.084   0.002  0.00  0.00    +0.121 A 
ATOM      2  C   UNL     1      -0.017   1.411   0.010  0.00  0.00    +0.185 A 
ATOM      3  C   UNL     1       0.002  -0.004   0.002  0.00  0.00    +0.280 A 
ATOM      4  O   UNL     1      -1.041  -0.633   0.008  0.00  0.00    -0.266 OA
ATOM      5  N   UNL     1       1.186  -0.650  -0.013  0.00  0.00    -0.273 N 
ATOM      6  H   UNL     1       1.208  -1.649  -0.018  0.00  0.00    +0.173 HD
ATOM      7  C   UNL     1       2.338   0.046  -0.020  0.00  0.00    +0.327 A 
ATOM      8  O   UNL     1       3.398  -0.549  -0.033  0.00  0.00    -0.247 OA
ATOM      9  N   UNL     1       2.333   1.392  -0.013  0.00  0.00    -0.312 N 
ATOM     10  H   UNL     1       3.200   1.890  -0.018  0.00  0.00    +0.170 HD
ENDROOT
BRANCH   2  11
ATOM     11  S   UNL     1      -1.548   2.284   0.022  0.00  0.00    +0.063 S 
ATOM     12  O   UNL     1      -1.236   3.655  -0.182  0.00  0.00    -0.153 OA
ATOM     13  O   UNL     1      -2.430   1.568  -0.832  0.00  0.00    -0.153 OA
BRANCH  11  14
ATOM     14  N   UNL     1      -2.169   2.162   1.552  0.00  0.00    -0.203 NA
ATOM     15  H   UNL     1      -1.684   1.672   2.235  0.00  0.00    +0.144 HD
ATOM     16  H   UNL     1      -3.017   2.580   1.766  0.00  0.00    +0.144 HD
ENDBRANCH  11  14
ENDBRANCH   2  11
TORSDOF 2
