REMARK  Name = ZINC50692637
REMARK  6 active torsions:
REMARK  status: ('A' for Active; 'I' for Inactive)
REMARK    1  A    between atoms: N_3  and  C_6
REMARK    2  A    between atoms: C_6  and  C_7
REMARK    3  A    between atoms: C_7  and  N_8
REMARK    4  A    between atoms: N_8  and  S_9
REMARK    5  A    between atoms: S_9  and  C_12
REMARK    6  A    between atoms: C_13  and  N_20
REMARK                            x       y       z     vdW  Elec       q    Type
REMARK                         _______ _______ _______ _____ _____    ______ ____
ROOT
ATOM      1  S   UNL     1       6.355   0.956   2.775  0.00  0.00    +0.078 S 
ATOM      2  O   UNL     1       7.733   0.828   2.450  0.00  0.00    -0.151 OA
ATOM      3  O   UNL     1       5.804   2.159   3.293  0.00  0.00    -0.151 OA
ENDROOT
BRANCH   1   4
ATOM      4  C   UNL     1       5.994  -0.310   3.945  0.00  0.00    +0.220 A 
ATOM      5  C   UNL     1       4.984  -0.303   4.840  0.00  0.00    +0.163 A 
ATOM      6  N   UNL     1       5.043  -1.442   5.550  0.00  0.00    -0.205 NA
ATOM      7  C   UNL     1       6.051  -2.154   5.130  0.00  0.00    +0.181 A 
ATOM      8  N   UNL     1       6.698  -1.506   4.112  0.00  0.00    -0.276 N 
ATOM      9  C   UNL     1       7.787  -2.142   3.559  0.00  0.00    +0.102 A 
ATOM     10  C   UNL     1       8.178  -3.336   4.005  0.00  0.00    +0.067 A 
ATOM     11  S   UNL     1       6.990  -3.653   5.300  0.00  0.00    -0.058 S 
BRANCH   5  12
ATOM     12  N   UNL     1       4.034   0.718   5.000  0.00  0.00    -0.340 N 
ATOM     13  H   UNL     1       4.071   1.507   4.438  0.00  0.00    +0.144 HD
ATOM     14  H   UNL     1       3.341   0.634   5.673  0.00  0.00    +0.144 HD
ENDBRANCH   5  12
ENDBRANCH   1   4
BRANCH   1  15
ATOM     15  N   UNL     1       5.509   0.604   1.395  0.00  0.00    -0.187 NA
ATOM     16  H   UNL     1       5.983   0.384   0.578  0.00  0.00    +0.148 HD
BRANCH  15  17
ATOM     17  C   UNL     1       4.044   0.624   1.409  0.00  0.00    +0.127 C 
BRANCH  17  18
ATOM     18  C   UNL     1       3.521   0.638  -0.028  0.00  0.00    +0.139 C 
BRANCH  18  21
ATOM     19  C   UNL     1      -0.016   1.337   0.009  0.00  0.00    +0.130 A 
ATOM     20  C   UNL     1       1.259   1.771  -0.000  0.00  0.00    +0.107 A 
ATOM     21  N   UNL     1       2.056   0.658  -0.014  0.00  0.00    -0.336 N 
ATOM     22  C   UNL     1       1.240  -0.418  -0.012  0.00  0.00    +0.199 A 
ATOM     23  N   UNL     1       0.002  -0.004   0.002  0.00  0.00    -0.244 NA
ENDBRANCH  18  21
ENDBRANCH  17  18
ENDBRANCH  15  17
ENDBRANCH   1  15
TORSDOF 6
