REMARK  Name = ZINC66579818
REMARK  5 active torsions:
REMARK  status: ('A' for Active; 'I' for Inactive)
REMARK    1  A    between atoms: C_5  and  C_7
REMARK    2  A    between atoms: C_8  and  S_9
REMARK    3  A    between atoms: S_9  and  N_12
REMARK    4  A    between atoms: N_12  and  C_13
REMARK    5  A    between atoms: C_17  and  C_19
REMARK                            x       y       z     vdW  Elec       q    Type
REMARK                         _______ _______ _______ _____ _____    ______ ____
ROOT
ATOM      1  N   UNL     1      -0.500  -5.116   1.410  0.00  0.00    -0.098 NA
ENDROOT
BRANCH   1   2
ATOM      2  C   UNL     1      -0.603  -6.484   1.684  0.00  0.00    +0.075 A 
ATOM      3  C   UNL     1      -0.158  -7.414   0.751  0.00  0.00    +0.029 A 
ATOM      4  C   UNL     1      -0.256  -8.767   1.015  0.00  0.00    +0.041 A 
ATOM      5  C   UNL     1      -0.799  -9.205   2.210  0.00  0.00    +0.136 A 
ATOM      6  C   UNL     1      -1.248  -8.276   3.154  0.00  0.00    +0.073 A 
ATOM      7  C   UNL     1      -1.142  -6.910   2.886  0.00  0.00    +0.042 A 
ATOM      8  F   UNL     1      -0.894 -10.528   2.464  0.00  0.00    -0.205 F 
BRANCH   6   9
ATOM      9  C   UNL     1      -1.828  -8.739   4.431  0.00  0.00    +0.244 C 
ATOM     10  O   UNL     1      -1.915  -9.929   4.663  0.00  0.00    -0.270 OA
ATOM     11  N   UNL     1      -2.261  -7.842   5.339  0.00  0.00    -0.325 N 
ATOM     12  H   UNL     1      -2.192  -6.893   5.154  0.00  0.00    +0.145 HD
ATOM     13  H   UNL     1      -2.642  -8.146   6.178  0.00  0.00    +0.145 HD
ENDBRANCH   6   9
ENDBRANCH   1   2
BRANCH   1  14
ATOM     14  S   UNL     1       0.145  -4.606  -0.027  0.00  0.00    +0.085 S 
ATOM     15  O   UNL     1      -0.753  -5.022  -1.046  0.00  0.00    -0.149 OA
ATOM     16  O   UNL     1       1.514  -4.987  -0.016  0.00  0.00    -0.149 OA
BRANCH  14  18
ATOM     17  C   UNL     1       1.249  -2.160  -0.023  0.00  0.00    +0.030 C 
ATOM     18  C   UNL     1       0.113  -2.844  -0.016  0.00  0.00    +0.159 C 
BRANCH  17  23
ATOM     19  C   UNL     1      -0.017   1.375   0.010  0.00  0.00    +0.001 A 
ATOM     20  C   UNL     1       1.170   2.087   0.002  0.00  0.00    +0.001 A 
ATOM     21  C   UNL     1       2.382   1.422  -0.013  0.00  0.00    +0.020 A 
ATOM     22  C   UNL     1       2.416   0.041  -0.021  0.00  0.00    +0.048 A 
ATOM     23  C   UNL     1       1.221  -0.682  -0.014  0.00  0.00    -0.005 A 
ATOM     24  C   UNL     1       0.002  -0.004   0.002  0.00  0.00    +0.009 A 
ATOM     25 CL   UNL     1       3.938  -0.793  -0.042  0.00  0.00    -0.083 Cl
ENDBRANCH  17  23
ENDBRANCH  14  18
ENDBRANCH   1  14
TORSDOF 5
