REMARK  Name = ZINC39687094
REMARK  9 active torsions:
REMARK  status: ('A' for Active; 'I' for Inactive)
REMARK    1  A    between atoms: C_1  and  C_2
REMARK    2  A    between atoms: C_5  and  O_8
REMARK    3  A    between atoms: O_8  and  C_9
REMARK    4  A    between atoms: C_10  and  C_15
REMARK    5  A    between atoms: C_19  and  C_28
REMARK    6  A    between atoms: N_30  and  C_31
REMARK    7  A    between atoms: C_31  and  C_33
REMARK    8  A    between atoms: C_31  and  C_34
REMARK    9  A    between atoms: C_34  and  C_35
REMARK                            x       y       z     vdW  Elec       q    Type
REMARK                         _______ _______ _______ _____ _____    ______ ____
ROOT
ATOM      1  C   UNL     1       0.281  -6.850  -0.097  0.00  0.00    +0.252 C 
ATOM      2  O   UNL     1       0.248  -6.273  -1.167  0.00  0.00    -0.270 OA
ATOM      3  N   UNL     1       0.312  -8.197  -0.058  0.00  0.00    -0.296 N 
ATOM      4  C   UNL     1       0.423  -9.069   1.135  0.00  0.00    +0.121 C 
ATOM      5  C   UNL     1      -0.526 -10.252   0.844  0.00  0.00    +0.100 C 
ATOM      6  C   UNL     1      -0.641 -10.295  -0.690  0.00  0.00    -0.004 C 
ATOM      7  C   UNL     1       0.234  -9.141  -1.199  0.00  0.00    +0.115 C 
ATOM      8  C   UNL     1      -0.121 -11.628  -1.221  0.00  0.00    -0.010 C 
ATOM      9  C   UNL     1      -0.298 -11.670  -2.741  0.00  0.00    -0.082 C 
ATOM     10  N   UNL     1      -1.718 -11.508  -3.075  0.00  0.00    +0.379 N 
ATOM     11  C   UNL     1      -2.187 -10.186  -2.642  0.00  0.00    -0.082 C 
ATOM     12  C   UNL     1      -2.089 -10.081  -1.118  0.00  0.00    -0.010 C 
ATOM     13  H   UNL     1      -1.841 -11.597  -4.072  0.00  0.00    -0.086 HD
ATOM     14  H   UNL     1      -2.256 -12.223  -2.608  0.00  0.00    -0.086 HD
ENDROOT
BRANCH   1  16
ATOM     15  C   UNL     1      -0.445  -4.884   1.268  0.00  0.00    +0.233 A 
ATOM     16  C   UNL     1       0.288  -6.075   1.159  0.00  0.00    +0.099 A 
ATOM     17  C   UNL     1       1.026  -6.516   2.264  0.00  0.00    +0.020 A 
ATOM     18  C   UNL     1       1.000  -5.754   3.418  0.00  0.00    +0.021 A 
ATOM     19  C   UNL     1       0.252  -4.590   3.448  0.00  0.00    +0.114 A 
ATOM     20  N   UNL     1      -0.432  -4.191   2.393  0.00  0.00    -0.220 NA
BRANCH  15  21
ATOM     21  O   UNL     1      -1.167  -4.439   0.211  0.00  0.00    -0.437 OA
BRANCH  21  26
ATOM     22  C   UNL     1      -3.686   0.579   0.654  0.00  0.00    +0.044 C 
ATOM     23  C   UNL     1      -3.012  -0.764   0.536  0.00  0.00    -0.050 A 
ATOM     24  C   UNL     1      -1.632  -0.845   0.534  0.00  0.00    +0.007 A 
ATOM     25  C   UNL     1      -1.011  -2.075   0.426  0.00  0.00    +0.046 A 
ATOM     26  C   UNL     1      -1.774  -3.228   0.319  0.00  0.00    +0.130 A 
ATOM     27  C   UNL     1      -3.159  -3.144   0.320  0.00  0.00    +0.046 A 
ATOM     28  C   UNL     1      -3.775  -1.913   0.434  0.00  0.00    +0.007 A 
ENDBRANCH  21  26
ENDBRANCH  15  21
ENDBRANCH   1  16
BRANCH   5  29
ATOM     29  C   UNL     1       0.062 -11.538   1.365  0.00  0.00    +0.218 C 
ATOM     30  O   UNL     1       1.264 -11.648   1.489  0.00  0.00    -0.275 OA
ATOM     31  N   UNL     1      -0.746 -12.566   1.692  0.00  0.00    -0.312 N 
ATOM     32  H   UNL     1      -1.707 -12.477   1.592  0.00  0.00    +0.149 HD
BRANCH  31  33
ATOM     33  C   UNL     1      -0.174 -13.815   2.198  0.00  0.00    +0.074 C 
ATOM     34  C   UNL     1       0.047 -13.700   3.708  0.00  0.00    +0.028 C 
BRANCH  33  35
ATOM     35  C   UNL     1      -1.135 -14.970   1.911  0.00  0.00    +0.060 C 
BRANCH  35  36
ATOM     36  C   UNL     1      -1.258 -15.162   0.421  0.00  0.00    -0.010 A 
ATOM     37  C   UNL     1      -2.290 -14.559  -0.272  0.00  0.00    +0.006 A 
ATOM     38  C   UNL     1      -2.402 -14.735  -1.638  0.00  0.00    +0.000 A 
ATOM     39  C   UNL     1      -1.482 -15.515  -2.314  0.00  0.00    +0.003 A 
ATOM     40  C   UNL     1      -0.449 -16.120  -1.623  0.00  0.00    +0.038 A 
ATOM     41  C   UNL     1      -0.333 -15.940  -0.255  0.00  0.00    +0.127 A 
ATOM     42  F   UNL     1       0.680 -16.526   0.420  0.00  0.00    -0.205 F 
ENDBRANCH  35  36
ENDBRANCH  33  35
ENDBRANCH  31  33
ENDBRANCH   5  29
TORSDOF 7
