REMARK  Name = ZINC32810164
REMARK  6 active torsions:
REMARK  status: ('A' for Active; 'I' for Inactive)
REMARK    1  A    between atoms: C_1  and  C_2
REMARK    2  A    between atoms: C_4  and  C_27
REMARK    3  A    between atoms: N_5  and  C_12
REMARK    4  A    between atoms: C_8  and  C_9
REMARK    5  A    between atoms: C_12  and  C_13
REMARK    6  A    between atoms: N_15  and  C_16
REMARK                            x       y       z     vdW  Elec       q    Type
REMARK                         _______ _______ _______ _____ _____    ______ ____
ROOT
ATOM      1  C   UNL     1      -3.366  -2.659   0.187  0.00  0.00    +0.221 C 
ENDROOT
BRANCH   1   6
ATOM      2  C   UNL     1      -4.050   3.030   0.031  0.00  0.00    +0.045 C 
ATOM      3  C   UNL     1      -3.886   1.532   0.078  0.00  0.00    -0.031 A 
ATOM      4  C   UNL     1      -2.622   0.954  -0.037  0.00  0.00    +0.025 A 
ATOM      5  C   UNL     1      -2.485  -0.396  -0.000  0.00  0.00    +0.020 A 
ATOM      6  N   UNL     1      -3.558  -1.207   0.152  0.00  0.00    -0.303 N 
ATOM      7  C   UNL     1      -4.800  -0.701   0.273  0.00  0.00    +0.264 A 
ATOM      8  O   UNL     1      -5.754  -1.447   0.409  0.00  0.00    -0.267 OA
ATOM      9  C   UNL     1      -4.995   0.704   0.240  0.00  0.00    +0.104 A 
ATOM     10  C   UNL     1      -1.112  -1.003  -0.132  0.00  0.00    +0.063 C 
BRANCH   9  11
ATOM     11  C   UNL     1      -6.344   1.276   0.370  0.00  0.00    +0.247 C 
ATOM     12  O   UNL     1      -6.510   2.475   0.250  0.00  0.00    -0.270 OA
ATOM     13  N   UNL     1      -7.396   0.472   0.622  0.00  0.00    -0.325 N 
ATOM     14  H   UNL     1      -8.404   0.899   0.719  0.00  0.00    +0.145 HD
ATOM     15  H   UNL     1      -7.245  -0.613   0.730  0.00  0.00    +0.145 HD
ENDBRANCH   9  11
ENDBRANCH   1   6
BRANCH   1  16
ATOM     16  C   UNL     1      -3.231  -3.114   1.617  0.00  0.00    +0.237 C 
ATOM     17  O   UNL     1      -3.291  -2.306   2.519  0.00  0.00    -0.274 OA
ATOM     18  N   UNL     1      -3.045  -4.420   1.894  0.00  0.00    -0.283 N 
ATOM     19  H   UNL     1      -3.051  -5.161   1.081  0.00  0.00    +0.155 HD
BRANCH  18  20
ATOM     20  C   UNL     1      -2.844  -4.834   3.218  0.00  0.00    +0.056 A 
ATOM     21  C   UNL     1      -3.480  -4.170   4.257  0.00  0.00    +0.074 A 
ATOM     22  C   UNL     1      -3.282  -4.580   5.566  0.00  0.00    +0.164 A 
ATOM     23  C   UNL     1      -2.446  -5.657   5.837  0.00  0.00    +0.164 A 
ATOM     24  C   UNL     1      -1.811  -6.318   4.796  0.00  0.00    +0.071 A 
ATOM     25  C   UNL     1      -2.013  -5.913   3.490  0.00  0.00    +0.066 A 
ATOM     26 CL   UNL     1      -1.222  -6.749   2.190  0.00  0.00    -0.082 Cl
ATOM     27  O   UNL     1      -2.243  -6.077   7.116  0.00  0.00    -0.485 OA
ATOM     28  C   UNL     1      -2.598  -5.161   8.158  0.00  0.00    +0.270 C 
ATOM     29  C   UNL     1      -3.983  -4.583   7.839  0.00  0.00    +0.270 C 
ATOM     30  O   UNL     1      -3.910  -3.915   6.575  0.00  0.00    -0.485 OA
ENDBRANCH  18  20
ENDBRANCH   1  16
TORSDOF 4
