REMARK  Name = ZINC58819948
REMARK  4 active torsions:
REMARK  status: ('A' for Active; 'I' for Inactive)
REMARK    1  A    between atoms: C_9  and  C_11
REMARK    2  A    between atoms: N_16  and  S_19
REMARK    3  A    between atoms: S_19  and  C_22
REMARK    4  A    between atoms: C_25  and  C_27
REMARK                            x       y       z     vdW  Elec       q    Type
REMARK                         _______ _______ _______ _____ _____    ______ ____
ROOT
ATOM      1  C   UNL     1       1.225  -2.169  -0.021  0.00  0.00    +0.249 C 
ATOM      2  O   UNL     1       2.277  -2.767  -0.141  0.00  0.00    -0.270 OA
ATOM      3  N   UNL     1       0.069  -2.853   0.089  0.00  0.00    -0.295 N 
ATOM      4  C   UNL     1      -1.220  -2.148   0.101  0.00  0.00    +0.125 C 
ATOM      5  C   UNL     1      -2.106  -2.726  -1.009  0.00  0.00    +0.128 C 
ATOM      6  N   UNL     1      -2.099  -4.191  -0.900  0.00  0.00    -0.171 NA
ATOM      7  C   UNL     1      -0.810  -4.897  -0.912  0.00  0.00    +0.128 C 
ATOM      8  C   UNL     1       0.075  -4.319   0.193  0.00  0.00    +0.125 C 
ENDROOT
BRANCH   1  17
ATOM      9  C   UNL     1       0.592   1.367   1.088  0.00  0.00    +0.001 A 
ATOM     10  C   UNL     1       1.180   2.096   0.077  0.00  0.00    +0.010 A 
ATOM     11  C   UNL     1       1.797   1.441  -0.990  0.00  0.00    +0.004 A 
ATOM     12  C   UNL     1       2.497   1.886  -2.192  0.00  0.00    -0.019 A 
ATOM     13  C   UNL     1       2.881   0.784  -2.862  0.00  0.00    +0.020 A 
ATOM     14  N   UNL     1       2.479  -0.330  -2.179  0.00  0.00    -0.357 N 
ATOM     15  H   UNL     1       2.639  -1.244  -2.463  0.00  0.00    +0.166 HD
ATOM     16  C   UNL     1       1.817   0.034  -1.034  0.00  0.00    +0.059 A 
ATOM     17  C   UNL     1       1.214  -0.694   0.004  0.00  0.00    +0.061 A 
ATOM     18  C   UNL     1       0.605  -0.016   1.058  0.00  0.00    +0.015 A 
ATOM     19  C   UNL     1       3.638   0.820  -4.170  0.00  0.00    +0.053 C 
ATOM     20  C   UNL     1       3.506   2.224  -4.770  0.00  0.00    +0.006 C 
ATOM     21  C   UNL     1       3.863   3.269  -3.710  0.00  0.00    +0.005 C 
ATOM     22  C   UNL     1       2.766   3.300  -2.638  0.00  0.00    +0.037 C 
ENDBRANCH   1  17
BRANCH   6  23
ATOM     23  S   UNL     1      -3.520  -5.032  -0.765  0.00  0.00    +0.094 S 
ATOM     24  O   UNL     1      -3.203  -6.266  -0.135  0.00  0.00    -0.150 OA
ATOM     25  O   UNL     1      -4.477  -4.129  -0.231  0.00  0.00    -0.150 OA
BRANCH  23  26
ATOM     26  C   UNL     1      -4.052  -5.422  -2.398  0.00  0.00    +0.259 A 
ATOM     27  C   UNL     1      -3.731  -6.542  -3.084  0.00  0.00    +0.072 A 
ATOM     28  C   UNL     1      -4.360  -6.454  -4.336  0.00  0.00    +0.057 A 
ATOM     29  C   UNL     1      -5.041  -5.270  -4.351  0.00  0.00    +0.191 A 
ATOM     30  O   UNL     1      -4.845  -4.661  -3.163  0.00  0.00    -0.432 OA
BRANCH  29  31
ATOM     31  C   UNL     1      -5.847  -4.754  -5.462  0.00  0.00    +0.277 C 
ATOM     32  O   UNL     1      -5.953  -5.399  -6.488  0.00  0.00    -0.267 OA
ATOM     33  N   UNL     1      -6.471  -3.564  -5.346  0.00  0.00    -0.323 N 
ATOM     34  H   UNL     1      -6.386  -3.050  -4.528  0.00  0.00    +0.145 HD
ATOM     35  H   UNL     1      -7.004  -3.223  -6.080  0.00  0.00    +0.145 HD
ENDBRANCH  29  31
ENDBRANCH  23  26
ENDBRANCH   6  23
TORSDOF 4
