REMARK  Name = ZINC45623236
REMARK  4 active torsions:
REMARK  status: ('A' for Active; 'I' for Inactive)
REMARK    1  A    between atoms: C_4  and  N_8
REMARK    2  A    between atoms: C_5  and  N_7
REMARK    3  A    between atoms: C_9  and  C_11
REMARK    4  A    between atoms: C_13  and  N_18
REMARK                            x       y       z     vdW  Elec       q    Type
REMARK                         _______ _______ _______ _____ _____    ______ ____
ROOT
ATOM      1  N   UNL     1       3.634  -0.640  -0.038  0.00  0.00    -0.280 N 
ATOM      2  C   UNL     1       4.785   0.052  -0.148  0.00  0.00    +0.249 C 
ATOM      3  O   UNL     1       4.767   1.268  -0.141  0.00  0.00    -0.270 OA
ATOM      4  H   UNL     1       3.655  -1.607   0.037  0.00  0.00    +0.155 HD
ENDROOT
BRANCH   2   5
ATOM      5  C   UNL     1       6.070  -0.666  -0.277  0.00  0.00    +0.053 A 
ATOM      6  C   UNL     1       6.095  -2.062  -0.291  0.00  0.00    +0.047 A 
ATOM      7  C   UNL     1       7.298  -2.726  -0.412  0.00  0.00    +0.127 A 
ATOM      8  C   UNL     1       8.479  -2.013  -0.519  0.00  0.00    +0.034 A 
ATOM      9  C   UNL     1       8.463  -0.630  -0.506  0.00  0.00    +0.018 A 
ATOM     10  C   UNL     1       7.265   0.048  -0.391  0.00  0.00    +0.030 A 
ATOM     11 BR   UNL     1       7.244   1.939  -0.381  0.00  0.00    -0.050 Br
BRANCH   7  12
ATOM     12  N   UNL     1       7.325  -4.206  -0.427  0.00  0.00    +0.056 N 
ATOM     13  O   UNL     1       6.295  -4.831  -0.333  0.00  0.00    -0.126 OA
ATOM     14  O   UNL     1       8.379  -4.790  -0.533  0.00  0.00    -0.126 OA
ENDBRANCH   7  12
ENDBRANCH   2   5
BRANCH   1  18
ATOM     15  C   UNL     1      -0.019   1.375  -0.024  0.00  0.00    +0.002 A 
ATOM     16  C   UNL     1       1.086   1.947  -0.626  0.00  0.00    +0.002 A 
ATOM     17  C   UNL     1       2.298   1.282  -0.632  0.00  0.00    +0.025 A 
ATOM     18  C   UNL     1       2.408   0.036  -0.033  0.00  0.00    +0.055 A 
ATOM     19  C   UNL     1       1.293  -0.541   0.575  0.00  0.00    +0.046 A 
ATOM     20  C   UNL     1       0.081   0.133   0.576  0.00  0.00    +0.024 A 
BRANCH  19  21
ATOM     21  N   UNL     1       1.397  -1.798   1.181  0.00  0.00    -0.357 N 
ATOM     22  H   UNL     1       2.245  -2.269   1.179  0.00  0.00    +0.142 HD
ATOM     23  H   UNL     1       0.621  -2.199   1.603  0.00  0.00    +0.142 HD
ENDBRANCH  19  21
ENDBRANCH   1  18
TORSDOF 4
