REMARK  Name = ZINC20794599
REMARK  4 active torsions:
REMARK  status: ('A' for Active; 'I' for Inactive)
REMARK    1  A    between atoms: C_1  and  C_2
REMARK    2  A    between atoms: C_5  and  N_9
REMARK    3  A    between atoms: C_10  and  C_12
REMARK    4  A    between atoms: C_12  and  N_13
REMARK                            x       y       z     vdW  Elec       q    Type
REMARK                         _______ _______ _______ _____ _____    ______ ____
ROOT
ATOM      1  N   UNL     1       5.506   0.135  -1.241  0.00  0.00    -0.215 N 
ATOM      2  C   UNL     1       4.363  -0.560  -1.409  0.00  0.00    +0.251 C 
ATOM      3  O   UNL     1       3.921  -1.006  -2.446  0.00  0.00    -0.272 OA
ATOM      4  C   UNL     1       3.748  -0.668  -0.031  0.00  0.00    +0.138 C 
ATOM      5  C   UNL     1       3.638  -2.130   0.385  0.00  0.00    +0.040 C 
ATOM      6  C   UNL     1       2.516  -2.783  -0.431  0.00  0.00    +0.008 C 
ATOM      7  C   UNL     1       1.181  -2.199   0.028  0.00  0.00    +0.035 C 
ATOM      8  C   UNL     1       1.224  -0.693   0.011  0.00  0.00    -0.042 A 
ATOM      9  C   UNL     1       2.408   0.012  -0.007  0.00  0.00    -0.012 A 
ATOM     10  C   UNL     1       2.381   1.401  -0.005  0.00  0.00    +0.006 A 
ATOM     11  C   UNL     1       1.179   2.078   0.009  0.00  0.00    +0.000 A 
ATOM     12  C   UNL     1      -0.008   1.371   0.022  0.00  0.00    +0.000 A 
ATOM     13  C   UNL     1       0.016  -0.009   0.023  0.00  0.00    +0.004 A 
ATOM     14  N   UNL     1       4.697   0.043   0.837  0.00  0.00    -0.281 N 
ATOM     15  C   UNL     1       5.692   0.476   0.040  0.00  0.00    +0.310 C 
ATOM     16  O   UNL     1       6.650   1.108   0.439  0.00  0.00    -0.252 OA
ATOM     17  H   UNL     1       4.500   0.124   1.916  0.00  0.00    +0.152 HD
ENDROOT
BRANCH   1  18
ATOM     18  C   UNL     1       6.430   0.475  -2.325  0.00  0.00    +0.214 C 
BRANCH  18  20
ATOM     19  N   UNL     1       6.756   2.322  -3.938  0.00  0.00    -0.283 N 
ATOM     20  C   UNL     1       6.042   1.804  -2.919  0.00  0.00    +0.235 C 
ATOM     21  O   UNL     1       5.087   2.409  -2.479  0.00  0.00    -0.274 OA
ATOM     22  H   UNL     1       7.665   1.811  -4.288  0.00  0.00    +0.155 HD
BRANCH  19  27
ATOM     23  C   UNL     1       5.070   7.136  -6.424  0.00  0.00    +0.044 C 
ATOM     24  C   UNL     1       5.518   5.857  -5.764  0.00  0.00    -0.049 A 
ATOM     25  C   UNL     1       5.329   5.679  -4.405  0.00  0.00    +0.005 A 
ATOM     26  C   UNL     1       5.735   4.506  -3.798  0.00  0.00    +0.024 A 
ATOM     27  C   UNL     1       6.340   3.509  -4.551  0.00  0.00    +0.048 A 
ATOM     28  C   UNL     1       6.528   3.691  -5.916  0.00  0.00    +0.039 A 
ATOM     29  C   UNL     1       6.116   4.865  -6.518  0.00  0.00    +0.020 A 
ATOM     30 BR   UNL     1       7.345   2.333  -6.948  0.00  0.00    -0.048 Br
ENDBRANCH  19  27
ENDBRANCH  18  20
ENDBRANCH   1  18
TORSDOF 3
