REMARK  Name = ZINC59564807
REMARK  9 active torsions:
REMARK  status: ('A' for Active; 'I' for Inactive)
REMARK    1  A    between atoms: C_1  and  C_2
REMARK    2  A    between atoms: C_2  and  C_3
REMARK    3  A    between atoms: C_3  and  C_5
REMARK    4  A    between atoms: C_3  and  S_21
REMARK    5  A    between atoms: S_21  and  C_22
REMARK    6  A    between atoms: C_24  and  C_33
REMARK    7  A    between atoms: C_24  and  C_34
REMARK    8  A    between atoms: N_26  and  C_27
REMARK    9  A    between atoms: C_34  and  C_35
REMARK                            x       y       z     vdW  Elec       q    Type
REMARK                         _______ _______ _______ _____ _____    ______ ____
ROOT
ATOM      1  C   UNL     1       0.433   0.654  -1.579  0.00  0.00    +0.140 C 
ENDROOT
BRANCH   1   2
ATOM      2  C   UNL     1      -0.072  -0.758  -1.725  0.00  0.00    +0.238 C 
ATOM      3  O   UNL     1       0.525  -1.673  -1.199  0.00  0.00    -0.274 OA
ATOM      4  N   UNL     1      -1.187  -1.003  -2.442  0.00  0.00    -0.237 N 
ATOM      5  C   UNL     1      -1.759  -2.281  -2.394  0.00  0.00    +0.055 A 
ATOM      6  C   UNL     1      -0.953  -3.407  -2.344  0.00  0.00    +0.025 A 
ATOM      7  C   UNL     1      -1.525  -4.666  -2.299  0.00  0.00    +0.002 A 
ATOM      8  C   UNL     1      -2.900  -4.811  -2.303  0.00  0.00    +0.001 A 
ATOM      9  C   UNL     1      -3.715  -3.693  -2.353  0.00  0.00    +0.017 A 
ATOM     10  C   UNL     1      -3.148  -2.433  -2.398  0.00  0.00    +0.035 A 
ATOM     11  S   UNL     1      -4.161  -0.988  -2.462  0.00  0.00    -0.086 S 
ATOM     12  C   UNL     1      -3.128   0.160  -3.318  0.00  0.00    +0.035 A 
ATOM     13  C   UNL     1      -1.745   0.028  -3.208  0.00  0.00    +0.055 A 
ATOM     14  C   UNL     1      -0.926   0.928  -3.872  0.00  0.00    +0.025 A 
ATOM     15  C   UNL     1      -1.484   1.942  -4.629  0.00  0.00    +0.002 A 
ATOM     16  C   UNL     1      -2.857   2.067  -4.730  0.00  0.00    +0.001 A 
ATOM     17  C   UNL     1      -3.678   1.174  -4.081  0.00  0.00    +0.017 A 
ENDBRANCH   1   2
BRANCH   1  19
ATOM     18  C   UNL     1       0.159   2.793  -0.317  0.00  0.00    +0.005 C 
ATOM     19  C   UNL     1      -0.262   1.324  -0.392  0.00  0.00    +0.020 C 
ENDBRANCH   1  19
BRANCH   1  20
ATOM     20  S   UNL     1       2.225   0.629  -1.294  0.00  0.00    -0.078 S 
BRANCH  20  21
ATOM     21  C   UNL     1       2.884  -0.038  -2.786  0.00  0.00    +0.151 C 
ATOM     22  N   UNL     1       2.156  -0.491  -3.763  0.00  0.00    -0.348 N 
ATOM     23  C   UNL     1       3.066  -0.958  -4.820  0.00  0.00    +0.104 C 
ATOM     24  N   UNL     1       4.418  -0.697  -4.286  0.00  0.00    -0.209 NA
ATOM     25  N   UNL     1       4.224  -0.135  -3.055  0.00  0.00    -0.213 N 
ATOM     26  C   UNL     1       2.838  -0.165  -6.108  0.00  0.00    +0.053 C 
ATOM     27  H   UNL     1       4.950  -1.552  -4.218  0.00  0.00    +0.147 HD
ATOM     28  H   UNL     1       1.187  -0.517  -3.790  0.00  0.00    +0.163 HD
BRANCH  25  29
ATOM     29  C   UNL     1       5.245   0.277  -2.193  0.00  0.00    +0.052 A 
ATOM     30  C   UNL     1       5.229  -0.109  -0.859  0.00  0.00    +0.025 A 
ATOM     31  C   UNL     1       6.239   0.300  -0.011  0.00  0.00    +0.002 A 
ATOM     32  C   UNL     1       7.267   1.093  -0.489  0.00  0.00    +0.000 A 
ATOM     33  C   UNL     1       7.286   1.478  -1.817  0.00  0.00    +0.002 A 
ATOM     34  C   UNL     1       6.282   1.069  -2.671  0.00  0.00    +0.025 A 
ENDBRANCH  25  29
BRANCH  23  35
ATOM     35  C   UNL     1       2.870  -2.454  -5.071  0.00  0.00    +0.042 C 
ATOM     36  C   UNL     1       1.478  -2.695  -5.659  0.00  0.00    +0.007 C 
ENDBRANCH  23  35
ENDBRANCH  20  21
ENDBRANCH   1  20
TORSDOF 6
