REMARK  Name = ZINC36278087
REMARK  6 active torsions:
REMARK  status: ('A' for Active; 'I' for Inactive)
REMARK    1  A    between atoms: C_1  and  C_2
REMARK    2  A    between atoms: C_11  and  N_16
REMARK    3  A    between atoms: N_16  and  C_17
REMARK    4  A    between atoms: C_17  and  C_18
REMARK    5  A    between atoms: C_18  and  C_20
REMARK    6  A    between atoms: C_18  and  O_21
REMARK                            x       y       z     vdW  Elec       q    Type
REMARK                         _______ _______ _______ _____ _____    ______ ____
ROOT
ATOM      1  C   UNL     1      -0.851   1.653   0.942  0.00  0.00    +0.008 C 
ATOM      2  C   UNL     1      -0.637   0.152   0.738  0.00  0.00    -0.009 C 
ATOM      3  C   UNL     1      -1.993  -0.548   0.612  0.00  0.00    +0.008 C 
ATOM      4  C   UNL     1      -1.788  -1.996   0.164  0.00  0.00    +0.037 C 
ATOM      5  C   UNL     1      -0.790  -2.668   1.102  0.00  0.00    -0.025 A 
ATOM      6  C   UNL     1       0.032  -1.925   1.877  0.00  0.00    -0.004 A 
ATOM      7  S   UNL     1       1.002  -3.099   2.789  0.00  0.00    -0.073 S 
ATOM      8  C   UNL     1       0.307  -4.582   2.135  0.00  0.00    +0.115 A 
ATOM      9  C   UNL     1      -0.667  -4.112   1.218  0.00  0.00    +0.051 A 
ATOM     10  C   UNL     1      -1.417  -5.098   0.514  0.00  0.00    +0.132 A 
ATOM     11  N   UNL     1      -1.119  -6.365   0.795  0.00  0.00    -0.202 NA
ATOM     12  C   UNL     1      -0.195  -6.729   1.664  0.00  0.00    +0.225 A 
ATOM     13  N   UNL     1       0.538  -5.861   2.354  0.00  0.00    -0.210 NA
ATOM     14 CL   UNL     1       0.075  -8.424   1.920  0.00  0.00    -0.041 Cl
ATOM     15  C   UNL     1       0.110  -0.430   1.946  0.00  0.00    +0.046 C 
ENDROOT
BRANCH  10  16
ATOM     16  N   UNL     1      -2.394  -4.760  -0.405  0.00  0.00    -0.326 N 
ATOM     17  H   UNL     1      -2.530  -3.831  -0.649  0.00  0.00    +0.148 HD
BRANCH  16  18
ATOM     18  C   UNL     1      -3.223  -5.805  -1.011  0.00  0.00    +0.134 C 
BRANCH  18  19
ATOM     19  C   UNL     1      -4.216  -5.168  -1.984  0.00  0.00    +0.128 C 
ATOM     20  C   UNL     1      -5.082  -6.260  -2.616  0.00  0.00    +0.039 C 
BRANCH  19  21
ATOM     21  O   UNL     1      -5.051  -4.248  -1.278  0.00  0.00    -0.391 OA
ATOM     22  H   UNL     1      -5.707  -3.805  -1.834  0.00  0.00    +0.210 HD
ENDBRANCH  19  21
ENDBRANCH  18  19
ENDBRANCH  16  18
ENDBRANCH  10  16
TORSDOF 4
