REMARK  Name = ZINC39677406
REMARK  4 active torsions:
REMARK  status: ('A' for Active; 'I' for Inactive)
REMARK    1  A    between atoms: C_3  and  C_8
REMARK    2  A    between atoms: C_12  and  C_21
REMARK    3  A    between atoms: N_23  and  C_24
REMARK    4  A    between atoms: C_24  and  C_25
REMARK                            x       y       z     vdW  Elec       q    Type
REMARK                         _______ _______ _______ _____ _____    ______ ____
ROOT
ATOM      1  C   UNL     1       3.655   2.160  -0.022  0.00  0.00    +0.247 C 
ATOM      2  O   UNL     1       3.642   3.371  -0.124  0.00  0.00    -0.270 OA
ATOM      3  N   UNL     1       4.829   1.504   0.065  0.00  0.00    -0.296 N 
ATOM      4  C   UNL     1       5.053   0.039   0.066  0.00  0.00    +0.121 C 
ATOM      5  C   UNL     1       6.328  -0.162  -0.783  0.00  0.00    +0.100 C 
ATOM      6  C   UNL     1       7.069   1.183  -0.701  0.00  0.00    -0.004 C 
ATOM      7  C   UNL     1       6.189   2.084   0.176  0.00  0.00    +0.115 C 
ATOM      8  C   UNL     1       7.215   1.791  -2.093  0.00  0.00    -0.010 C 
ATOM      9  C   UNL     1       8.005   3.099  -1.993  0.00  0.00    -0.082 C 
ATOM     10  N   UNL     1       9.327   2.831  -1.413  0.00  0.00    +0.379 N 
ATOM     11  C   UNL     1       9.180   2.333  -0.040  0.00  0.00    -0.082 C 
ATOM     12  C   UNL     1       8.439   0.993  -0.057  0.00  0.00    -0.010 C 
ATOM     13  H   UNL     1       9.804   2.139  -1.971  0.00  0.00    -0.086 HD
ATOM     14  H   UNL     1       9.868   3.683  -1.404  0.00  0.00    -0.086 HD
ENDROOT
BRANCH   1  17
ATOM     15  C   UNL     1       0.051   1.240  -0.546  0.00  0.00    +0.002 A 
ATOM     16  C   UNL     1       1.235   1.948  -0.575  0.00  0.00    +0.013 A 
ATOM     17  C   UNL     1       2.383   1.407   0.006  0.00  0.00    +0.038 A 
ATOM     18  C   UNL     1       2.325   0.152   0.613  0.00  0.00    +0.028 A 
ATOM     19  C   UNL     1       1.135  -0.546   0.635  0.00  0.00    +0.019 A 
ATOM     20  C   UNL     1      -0.000  -0.003   0.057  0.00  0.00    +0.015 A 
ATOM     21 BR   UNL     1       1.053  -2.248   1.457  0.00  0.00    -0.050 Br
ENDBRANCH   1  17
BRANCH   5  22
ATOM     22  C   UNL     1       7.174  -1.267  -0.205  0.00  0.00    +0.218 C 
ATOM     23  O   UNL     1       7.091  -1.542   0.973  0.00  0.00    -0.275 OA
ATOM     24  N   UNL     1       8.024  -1.949  -0.998  0.00  0.00    -0.311 N 
ATOM     25  H   UNL     1       8.091  -1.729  -1.940  0.00  0.00    +0.149 HD
BRANCH  24  26
ATOM     26  C   UNL     1       8.847  -3.023  -0.436  0.00  0.00    +0.139 C 
BRANCH  26  27
ATOM     27  C   UNL     1       9.704  -3.621  -1.523  0.00  0.00    -0.027 A 
ATOM     28  C   UNL     1       9.228  -4.682  -2.270  0.00  0.00    +0.009 A 
ATOM     29  C   UNL     1      10.011  -5.234  -3.267  0.00  0.00    +0.050 A 
ATOM     30  C   UNL     1      11.275  -4.723  -3.520  0.00  0.00    +0.162 A 
ATOM     31  C   UNL     1      11.752  -3.655  -2.770  0.00  0.00    +0.162 A 
ATOM     32  C   UNL     1      10.960  -3.103  -1.774  0.00  0.00    +0.054 A 
ATOM     33  O   UNL     1      12.987  -3.134  -3.007  0.00  0.00    -0.485 OA
ATOM     34  C   UNL     1      13.894  -3.944  -3.762  0.00  0.00    +0.270 C 
ATOM     35  C   UNL     1      13.141  -4.503  -4.977  0.00  0.00    +0.270 C 
ATOM     36  O   UNL     1      12.036  -5.280  -4.502  0.00  0.00    -0.485 OA
ENDBRANCH  26  27
ENDBRANCH  24  26
ENDBRANCH   5  22
TORSDOF 4
