REMARK  Name = ZINC05261036
REMARK  5 active torsions:
REMARK  status: ('A' for Active; 'I' for Inactive)
REMARK    1  A    between atoms: C_1  and  C_2
REMARK    2  A    between atoms: C_2  and  C_25
REMARK    3  A    between atoms: N_9  and  C_20
REMARK    4  A    between atoms: C_20  and  C_21
REMARK    5  A    between atoms: C_21  and  C_22
REMARK                            x       y       z     vdW  Elec       q    Type
REMARK                         _______ _______ _______ _____ _____    ______ ____
ROOT
ATOM      1  C   UNL     1       2.710   3.386   1.519  0.00  0.00    +0.022 C 
ATOM      2  C   UNL     1       1.939   2.068   1.430  0.00  0.00    +0.053 C 
ATOM      3  C   UNL     1       2.868   0.895   1.587  0.00  0.00    -0.015 A 
ATOM      4  C   UNL     1       3.450   0.372   2.725  0.00  0.00    +0.006 A 
ATOM      5  C   UNL     1       4.264  -0.743   2.564  0.00  0.00    +0.000 A 
ATOM      6  C   UNL     1       4.480  -1.303   1.322  0.00  0.00    +0.002 A 
ATOM      7  C   UNL     1       3.904  -0.784   0.174  0.00  0.00    +0.023 A 
ATOM      8  C   UNL     1       3.086   0.339   0.321  0.00  0.00    +0.037 A 
ATOM      9  N   UNL     1       2.403   1.046  -0.660  0.00  0.00    -0.288 N 
ATOM     10  C   UNL     1       1.370   1.862   0.009  0.00  0.00    +0.207 C 
ATOM     11  C   UNL     1       0.073   1.111   0.078  0.00  0.00    +0.042 C 
ATOM     12  C   UNL     1      -1.079   1.780   0.132  0.00  0.00    +0.013 C 
ATOM     13  C   UNL     1      -1.024   3.258   0.123  0.00  0.00    +0.017 A 
ATOM     14  C   UNL     1      -2.122   4.024   0.500  0.00  0.00    +0.011 A 
ATOM     15  C   UNL     1      -2.032   5.402   0.478  0.00  0.00    +0.001 A 
ATOM     16  C   UNL     1      -0.858   6.019   0.083  0.00  0.00    +0.004 A 
ATOM     17  C   UNL     1       0.239   5.265  -0.295  0.00  0.00    +0.046 A 
ATOM     18  C   UNL     1       0.163   3.885  -0.278  0.00  0.00    +0.131 A 
ATOM     19  O   UNL     1       1.222   3.116  -0.645  0.00  0.00    -0.463 OA
ATOM     20  C   UNL     1       0.822   2.019   2.474  0.00  0.00    +0.022 C 
ENDROOT
BRANCH   9  21
ATOM     21  C   UNL     1       1.800   0.135  -1.642  0.00  0.00    +0.118 C 
BRANCH  21  22
ATOM     22  C   UNL     1       1.198   0.948  -2.790  0.00  0.00    +0.114 C 
BRANCH  22  23
ATOM     23  C   UNL     1       0.527   0.017  -3.767  0.00  0.00    +0.212 C 
ATOM     24  O   UNL     1       0.531  -1.179  -3.566  0.00  0.00    -0.276 OA
ATOM     25  N   UNL     1      -0.076   0.514  -4.866  0.00  0.00    -0.329 N 
ATOM     26  H   UNL     1      -0.078   1.470  -5.027  0.00  0.00    +0.145 HD
ATOM     27  H   UNL     1      -0.507  -0.085  -5.495  0.00  0.00    +0.145 HD
ENDBRANCH  22  23
ENDBRANCH  21  22
ENDBRANCH   9  21
TORSDOF 3
