REMARK  Name = ZINC08966347
REMARK  10 active torsions:
REMARK  status: ('A' for Active; 'I' for Inactive)
REMARK    1  A    between atoms: C_1  and  C_2
REMARK    2  A    between atoms: C_2  and  N_3
REMARK    3  A    between atoms: C_4  and  C_6
REMARK    4  A    between atoms: C_6  and  C_8
REMARK    5  A    between atoms: C_6  and  N_9
REMARK    6  A    between atoms: C_10  and  C_12
REMARK    7  A    between atoms: C_14  and  S_19
REMARK    8  A    between atoms: S_19  and  N_22
REMARK    9  A    between atoms: N_22  and  C_23
REMARK   10  A    between atoms: C_27  and  C_29
REMARK                            x       y       z     vdW  Elec       q    Type
REMARK                         _______ _______ _______ _____ _____    ______ ____
ROOT
ATOM      1  C   UNL     1       0.524  -1.156   3.825  0.00  0.00    +0.057 A 
ATOM      2  C   UNL     1      -0.057  -0.744   2.625  0.00  0.00    +0.043 A 
ATOM      3  C   UNL     1       0.735  -0.523   1.518  0.00  0.00    +0.109 A 
ATOM      4  C   UNL     1       2.104  -0.715   1.593  0.00  0.00    +0.030 A 
ATOM      5  C   UNL     1       2.688  -1.118   2.779  0.00  0.00    +0.022 A 
ATOM      6  C   UNL     1       1.907  -1.342   3.896  0.00  0.00    +0.053 A 
ATOM      7 CL   UNL     1       2.641  -1.854   5.384  0.00  0.00    -0.083 Cl
ENDROOT
BRANCH   1   9
ATOM      8  N   UNL     1      -1.653  -1.214   4.943  0.00  0.00    -0.300 N 
ATOM      9  C   UNL     1      -0.319  -1.394   5.015  0.00  0.00    +0.246 C 
ATOM     10  O   UNL     1       0.191  -1.753   6.059  0.00  0.00    -0.270 OA
ATOM     11  H   UNL     1      -2.059  -0.927   4.110  0.00  0.00    +0.150 HD
BRANCH   8  12
ATOM     12  C   UNL     1      -2.488  -1.450   6.123  0.00  0.00    +0.156 C 
ATOM     13  C   UNL     1      -2.842  -2.936   6.209  0.00  0.00    +0.038 C 
BRANCH  12  15
ATOM     14  N   UNL     1      -4.679  -0.697   6.991  0.00  0.00    -0.314 N 
ATOM     15  C   UNL     1      -3.753  -0.638   6.013  0.00  0.00    +0.233 C 
ATOM     16  O   UNL     1      -3.939   0.068   5.045  0.00  0.00    -0.274 OA
ATOM     17  H   UNL     1      -4.531  -1.262   7.766  0.00  0.00    +0.149 HD
BRANCH  14  19
ATOM     18  C   UNL     1      -6.782  -0.155   8.116  0.00  0.00    +0.024 C 
ATOM     19  C   UNL     1      -5.909   0.092   6.884  0.00  0.00    +0.101 C 
ENDBRANCH  14  19
ENDBRANCH  12  15
ENDBRANCH   8  12
ENDBRANCH   1   9
BRANCH   3  20
ATOM     20  S   UNL     1       0.002  -0.004   0.002  0.00  0.00    +0.072 S 
ATOM     21  O   UNL     1      -1.353  -0.429   0.040  0.00  0.00    -0.150 OA
ATOM     22  O   UNL     1       0.893  -0.392  -1.034  0.00  0.00    -0.150 OA
BRANCH  20  23
ATOM     23  N   UNL     1      -0.020   1.652   0.011  0.00  0.00    -0.216 N 
ATOM     24  H   UNL     1      -0.867   2.125   0.018  0.00  0.00    +0.174 HD
BRANCH  23  25
ATOM     25  C   UNL     1       1.180   2.366   0.004  0.00  0.00    +0.048 A 
ATOM     26  C   UNL     1       2.205   1.997  -0.859  0.00  0.00    +0.024 A 
ATOM     27  C   UNL     1       3.389   2.706  -0.864  0.00  0.00    +0.002 A 
ATOM     28  C   UNL     1       3.556   3.783  -0.013  0.00  0.00    +0.003 A 
ATOM     29  C   UNL     1       2.538   4.154   0.847  0.00  0.00    -0.049 A 
ATOM     30  C   UNL     1       1.349   3.452   0.854  0.00  0.00    +0.027 A 
ATOM     31  C   UNL     1       2.725   5.328   1.772  0.00  0.00    +0.044 C 
ENDBRANCH  23  25
ENDBRANCH  20  23
ENDBRANCH   3  20
TORSDOF 7
