REMARK  Name = ZINC66566758
REMARK  9 active torsions:
REMARK  status: ('A' for Active; 'I' for Inactive)
REMARK    1  A    between atoms: C_1  and  C_2
REMARK    2  A    between atoms: C_2  and  N_3
REMARK    3  A    between atoms: C_7  and  C_9
REMARK    4  A    between atoms: C_9  and  C_11
REMARK    5  A    between atoms: C_9  and  N_12
REMARK    6  A    between atoms: N_15  and  C_18
REMARK    7  A    between atoms: C_18  and  C_19
REMARK    8  A    between atoms: N_21  and  C_22
REMARK    9  A    between atoms: C_27  and  C_30
REMARK                            x       y       z     vdW  Elec       q    Type
REMARK                         _______ _______ _______ _____ _____    ______ ____
ROOT
ATOM      1  N   UNL     1       2.397  -5.553   3.903  0.00  0.00    -0.289 NA
ATOM      2  C   UNL     1       3.204  -6.062   2.786  0.00  0.00    +0.100 C 
ATOM      3  C   UNL     1       3.135  -7.591   2.765  0.00  0.00    +0.100 C 
ATOM      4  N   UNL     1       3.623  -8.118   4.047  0.00  0.00    -0.292 NA
ATOM      5  C   UNL     1       2.817  -7.609   5.165  0.00  0.00    +0.100 C 
ATOM      6  C   UNL     1       2.886  -6.080   5.185  0.00  0.00    +0.100 C 
ENDROOT
BRANCH   1   7
ATOM      7  C   UNL     1       2.378  -4.084   3.911  0.00  0.00    +0.140 C 
ATOM      8  C   UNL     1       3.813  -3.554   3.900  0.00  0.00    +0.034 C 
BRANCH   7  13
ATOM      9  N   UNL     1       0.711  -0.489   1.189  0.00  0.00    -0.299 N 
ATOM     10  C   UNL     1       0.854  -1.814   1.394  0.00  0.00    +0.306 C 
ATOM     11  O   UNL     1       0.395  -2.606   0.594  0.00  0.00    -0.252 OA
ATOM     12  N   UNL     1       1.506  -2.260   2.486  0.00  0.00    -0.239 N 
ATOM     13  C   UNL     1       1.649  -3.585   2.690  0.00  0.00    +0.237 C 
ATOM     14  O   UNL     1       1.191  -4.374   1.893  0.00  0.00    -0.274 OA
ATOM     15  H   UNL     1       1.077   0.142   1.827  0.00  0.00    +0.150 HD
ATOM     16  H   UNL     1       1.872  -1.628   3.124  0.00  0.00    +0.159 HD
BRANCH   9  18
ATOM     17  C   UNL     1      -0.019   1.526   0.010  0.00  0.00    +0.024 C 
ATOM     18  C   UNL     1       0.002  -0.004   0.002  0.00  0.00    +0.102 C 
ENDBRANCH   9  18
ENDBRANCH   7  13
ENDBRANCH   1   7
BRANCH   4  19
ATOM     19  C   UNL     1       3.643  -9.587   4.039  0.00  0.00    +0.180 C 
BRANCH  19  20
ATOM     20  C   UNL     1       4.372 -10.086   5.260  0.00  0.00    +0.227 C 
ATOM     21  O   UNL     1       4.830  -9.296   6.058  0.00  0.00    -0.274 OA
ATOM     22  N   UNL     1       4.515 -11.411   5.465  0.00  0.00    -0.311 N 
ATOM     23  H   UNL     1       4.149 -12.043   4.826  0.00  0.00    +0.149 HD
BRANCH  22  24
ATOM     24  C   UNL     1       5.224 -11.896   6.652  0.00  0.00    +0.073 C 
ATOM     25  C   UNL     1       4.253 -11.967   7.832  0.00  0.00    +0.022 C 
ATOM     26  C   UNL     1       3.108 -12.925   7.494  0.00  0.00    +0.002 C 
ATOM     27  C   UNL     1       3.675 -14.318   7.215  0.00  0.00    +0.003 C 
ATOM     28  C   UNL     1       4.646 -14.247   6.035  0.00  0.00    -0.012 C 
ATOM     29  C   UNL     1       5.791 -13.290   6.373  0.00  0.00    +0.025 C 
ATOM     30  C   UNL     1       5.213 -15.641   5.756  0.00  0.00    +0.007 C 
ENDBRANCH  22  24
ENDBRANCH  19  20
ENDBRANCH   4  19
TORSDOF 6
