REMARK  Name = ZINC13745052
REMARK  5 active torsions:
REMARK  status: ('A' for Active; 'I' for Inactive)
REMARK    1  A    between atoms: C_1  and  C_2
REMARK    2  A    between atoms: C_5  and  N_9
REMARK    3  A    between atoms: N_12  and  C_13
REMARK    4  A    between atoms: C_13  and  C_15
REMARK    5  A    between atoms: C_13  and  C_16
REMARK                            x       y       z     vdW  Elec       q    Type
REMARK                         _______ _______ _______ _____ _____    ______ ____
ROOT
ATOM      1  N   UNL     1      -0.017   1.396   0.010  0.00  0.00    -0.268 N 
ATOM      2  C   UNL     1       1.200   1.975   0.002  0.00  0.00    +0.304 C 
ATOM      3  O   UNL     1       2.199   1.290  -0.111  0.00  0.00    -0.252 OA
ATOM      4  N   UNL     1       1.310   3.313   0.118  0.00  0.00    -0.292 N 
ATOM      5  H   UNL     1      -0.816   1.946   0.029  0.00  0.00    +0.156 HD
ATOM      6  H   UNL     1       0.513   3.860   0.207  0.00  0.00    +0.151 HD
ENDROOT
BRANCH   1  11
ATOM      7  C   UNL     1      -0.466  -4.260  -0.095  0.00  0.00    +0.044 C 
ATOM      8  C   UNL     1      -0.347  -2.758  -0.067  0.00  0.00    -0.049 A 
ATOM      9  C   UNL     1       0.678  -2.134  -0.754  0.00  0.00    +0.005 A 
ATOM     10  C   UNL     1       0.790  -0.757  -0.730  0.00  0.00    +0.025 A 
ATOM     11  C   UNL     1      -0.128   0.000  -0.016  0.00  0.00    +0.053 A 
ATOM     12  C   UNL     1      -1.154  -0.629   0.677  0.00  0.00    +0.062 A 
ATOM     13  C   UNL     1      -1.264  -2.007   0.645  0.00  0.00    +0.025 A 
ATOM     14 CL   UNL     1      -2.301   0.313   1.577  0.00  0.00    -0.082 Cl
ENDBRANCH   1  11
BRANCH   4  15
ATOM     15  C   UNL     1       2.633   3.943   0.109  0.00  0.00    +0.108 C 
ATOM     16  C   UNL     1       3.218   3.920   1.522  0.00  0.00    +0.033 C 
BRANCH  15  17
ATOM     17  C   UNL     1       2.506   5.370  -0.359  0.00  0.00    +0.011 A 
ATOM     18  C   UNL     1       3.326   6.076  -1.176  0.00  0.00    +0.014 A 
ATOM     19  C   UNL     1       3.006   7.387  -1.476  0.00  0.00    +0.028 A 
ATOM     20  C   UNL     1       1.888   7.931  -0.935  0.00  0.00    +0.078 A 
ATOM     21  S   UNL     1       1.243   6.571   0.025  0.00  0.00    -0.080 S 
ATOM     22 CL   UNL     1       1.249   9.534  -1.126  0.00  0.00    -0.076 Cl
ENDBRANCH  15  17
ENDBRANCH   4  15
TORSDOF 3
