REMARK  Name = ZINC06809516
REMARK  8 active torsions:
REMARK  status: ('A' for Active; 'I' for Inactive)
REMARK    1  A    between atoms: C_1  and  C_2
REMARK    2  A    between atoms: C_2  and  C_3
REMARK    3  A    between atoms: C_2  and  C_4
REMARK    4  A    between atoms: C_2  and  N_46
REMARK    5  A    between atoms: C_5  and  N_46
REMARK    6  A    between atoms: C_11  and  N_13
REMARK    7  A    between atoms: N_13  and  S_14
REMARK    8  A    between atoms: S_14  and  C_17
REMARK                            x       y       z     vdW  Elec       q    Type
REMARK                         _______ _______ _______ _____ _____    ______ ____
ROOT
ATOM      1  C   UNL     1       2.036   4.287  -3.409  0.00  0.00    -0.052 C 
ATOM      2  C   UNL     1       0.922   5.263  -3.793  0.00  0.00    -0.014 C 
ATOM      3  C   UNL     1       1.356   6.691  -3.454  0.00  0.00    -0.001 C 
ATOM      4  C   UNL     1       1.631   6.797  -1.953  0.00  0.00    +0.001 C 
ATOM      5  C   UNL     1       2.744   5.821  -1.568  0.00  0.00    +0.019 C 
ATOM      6  C   UNL     1       2.311   4.393  -1.908  0.00  0.00    +0.063 C 
ENDROOT
BRANCH   1   7
ATOM      7  N   UNL     1       1.615   2.910  -3.728  0.00  0.00    +0.385 N 
ATOM      8  H   UNL     1       1.998   2.267  -3.026  0.00  0.00    -0.085 HD
ATOM      9  H   UNL     1       0.589   2.858  -3.716  0.00  0.00    -0.085 HD
BRANCH   7  11
ATOM     10  C   UNL     1       3.635   2.530  -5.073  0.00  0.00    -0.011 C 
ATOM     11  C   UNL     1       2.105   2.521  -5.064  0.00  0.00    -0.077 C 
ATOM     12  C   UNL     1       1.602   1.114  -5.393  0.00  0.00    -0.011 C 
ATOM     13  C   UNL     1       1.583   3.507  -6.111  0.00  0.00    -0.011 C 
ENDBRANCH   7  11
ENDBRANCH   1   7
BRANCH   6  14
ATOM     14  N   UNL     1       3.378   3.459  -1.539  0.00  0.00    -0.188 NA
ATOM     15  H   UNL     1       4.106   3.285  -2.157  0.00  0.00    +0.148 HD
BRANCH  14  16
ATOM     16  S   UNL     1       3.341   2.698  -0.069  0.00  0.00    +0.059 S 
ATOM     17  O   UNL     1       3.102   3.706   0.904  0.00  0.00    -0.153 OA
ATOM     18  O   UNL     1       4.480   1.849  -0.022  0.00  0.00    -0.153 OA
BRANCH  16  19
ATOM     19  C   UNL     1       1.928   1.646  -0.062  0.00  0.00    +0.105 A 
ATOM     20  C   UNL     1       2.036   0.340  -0.504  0.00  0.00    +0.030 A 
ATOM     21  C   UNL     1       0.928  -0.486  -0.498  0.00  0.00    +0.022 A 
ATOM     22  C   UNL     1      -0.291  -0.004  -0.056  0.00  0.00    +0.041 A 
ATOM     23  C   UNL     1      -0.398   1.301   0.391  0.00  0.00    +0.022 A 
ATOM     24  C   UNL     1       0.711   2.126   0.386  0.00  0.00    +0.030 A 
ATOM     25 CL   UNL     1      -1.685  -1.039  -0.056  0.00  0.00    -0.084 Cl
ENDBRANCH  16  19
ENDBRANCH  14  16
ENDBRANCH   6  14
TORSDOF 5
