REMARK  Name = ZINC39357345
REMARK  8 active torsions:
REMARK  status: ('A' for Active; 'I' for Inactive)
REMARK    1  A    between atoms: C_1  and  C_2
REMARK    2  A    between atoms: C_5  and  C_19
REMARK    3  A    between atoms: C_6  and  C_18
REMARK    4  A    between atoms: N_8  and  C_9
REMARK    5  A    between atoms: C_14  and  O_15
REMARK    6  A    between atoms: O_15  and  C_16
REMARK    7  A    between atoms: C_20  and  C_21
REMARK    8  A    between atoms: C_20  and  C_23
REMARK                            x       y       z     vdW  Elec       q    Type
REMARK                         _______ _______ _______ _____ _____    ______ ____
ROOT
ATOM      1  C   UNL     1       0.554   2.184  -0.920  0.00  0.00    +0.032 C 
ATOM      2  C   UNL     1       0.289   0.679  -0.839  0.00  0.00    +0.094 C 
ATOM      3  C   UNL     1       1.153  -0.048  -1.835  0.00  0.00    +0.000 C 
ATOM      4  C   UNL     1       1.953  -0.897  -1.199  0.00  0.00    -0.028 C 
ATOM      5  C   UNL     1       1.700  -0.820   0.284  0.00  0.00    +0.101 C 
ATOM      6  N   UNL     1       0.643   0.181   0.497  0.00  0.00    -0.314 N 
ATOM      7  C   UNL     1       1.241  -2.183   0.805  0.00  0.00    +0.033 C 
ENDROOT
BRANCH   6   8
ATOM      8  C   UNL     1       0.089   0.579   1.719  0.00  0.00    +0.074 A 
ATOM      9  C   UNL     1      -1.017  -0.085   2.231  0.00  0.00    +0.046 A 
ATOM     10  C   UNL     1      -1.562   0.310   3.439  0.00  0.00    +0.043 A 
ATOM     11  C   UNL     1      -1.008   1.367   4.139  0.00  0.00    +0.024 A 
ATOM     12  C   UNL     1       0.094   2.033   3.634  0.00  0.00    +0.049 A 
ATOM     13  C   UNL     1       0.649   1.640   2.428  0.00  0.00    +0.141 A 
ATOM     14 CL   UNL     1      -2.946  -0.521   4.077  0.00  0.00    -0.083 Cl
BRANCH  13  15
ATOM     15  O   UNL     1       1.736   2.291   1.933  0.00  0.00    -0.493 OA
ATOM     16  C   UNL     1       2.257   3.369   2.714  0.00  0.00    +0.277 C 
ENDBRANCH  13  15
ENDBRANCH   6   8
BRANCH   4  17
ATOM     17  C   UNL     1       2.931  -1.776  -1.842  0.00  0.00    +0.023 C 
ATOM     18  C   UNL     1       2.537  -2.632  -2.810  0.00  0.00    +0.072 C 
BRANCH  18  19
ATOM     19  C   UNL     1       1.072  -2.783  -3.131  0.00  0.00    +0.216 C 
ATOM     20  N   UNL     1       0.714  -4.206  -3.195  0.00  0.00    -0.359 N 
ATOM     21  C   UNL     1       0.279  -4.446  -4.397  0.00  0.00    +0.060 A 
ATOM     22  C   UNL     1      -0.217  -5.662  -5.056  0.00  0.00    +0.027 A 
ATOM     23  C   UNL     1      -0.610  -5.608  -6.345  0.00  0.00    +0.002 A 
ATOM     24  C   UNL     1      -0.566  -4.424  -7.101  0.00  0.00    +0.002 A 
ATOM     25  C   UNL     1      -0.128  -3.254  -6.595  0.00  0.00    +0.027 A 
ATOM     26  C   UNL     1       0.325  -3.192  -5.198  0.00  0.00    +0.060 A 
ATOM     27  N   UNL     1       0.787  -2.225  -4.460  0.00  0.00    -0.359 N 
ATOM     28  H   UNL     1       0.788  -4.849  -2.472  0.00  0.00    +0.162 HD
ATOM     29  H   UNL     1       0.919  -1.305  -4.736  0.00  0.00    +0.162 HD
ENDBRANCH  18  19
BRANCH  18  30
ATOM     30  C   UNL     1       3.510  -3.396  -3.531  0.00  0.00    +0.099 C 
ATOM     31  N   UNL     1       4.282  -4.002  -4.103  0.00  0.00    -0.191 NA
ENDBRANCH  18  30
ENDBRANCH   4  17
TORSDOF 5
