REMARK  Name = ZINC36964724
REMARK  5 active torsions:
REMARK  status: ('A' for Active; 'I' for Inactive)
REMARK    1  A    between atoms: C_1  and  C_2
REMARK    2  A    between atoms: C_2  and  C_18
REMARK    3  A    between atoms: N_5  and  C_9
REMARK    4  A    between atoms: C_9  and  C_10
REMARK    5  A    between atoms: C_14  and  N_16
REMARK                            x       y       z     vdW  Elec       q    Type
REMARK                         _______ _______ _______ _____ _____    ______ ____
ROOT
ATOM      1  C   UNL     1      -2.593  -1.987   1.771  0.00  0.00    +0.153 C 
ENDROOT
BRANCH   1   6
ATOM      2  C   UNL     1      -0.019   1.526   0.010  0.00  0.00    +0.041 C 
ATOM      3  C   UNL     1       0.002  -0.004   0.002  0.00  0.00    +0.107 C 
ATOM      4  C   UNL     1      -1.404  -0.557   0.121  0.00  0.00    +0.246 C 
ATOM      5  O   UNL     1      -2.324  -0.392  -0.652  0.00  0.00    -0.273 OA
ATOM      6  N   UNL     1      -1.419  -1.272   1.263  0.00  0.00    -0.220 N 
ATOM      7  C   UNL     1      -0.231  -1.248   1.876  0.00  0.00    +0.310 C 
ATOM      8  O   UNL     1       0.001  -1.819   2.923  0.00  0.00    -0.252 OA
ATOM      9  N   UNL     1       0.679  -0.520   1.204  0.00  0.00    -0.285 N 
ATOM     10  C   UNL     1       0.684  -0.525  -1.265  0.00  0.00    +0.041 C 
ATOM     11  H   UNL     1       1.602  -0.365   1.461  0.00  0.00    +0.151 HD
ENDBRANCH   1   6
BRANCH   1  12
ATOM     12  C   UNL     1      -2.601  -3.391   1.225  0.00  0.00    -0.028 A 
ATOM     13  C   UNL     1      -3.235  -3.662   0.026  0.00  0.00    +0.007 A 
ATOM     14  C   UNL     1      -3.246  -4.950  -0.478  0.00  0.00    +0.022 A 
ATOM     15  C   UNL     1      -2.622  -5.970   0.214  0.00  0.00    +0.062 A 
ATOM     16  C   UNL     1      -1.983  -5.700   1.419  0.00  0.00    +0.043 A 
ATOM     17  C   UNL     1      -1.970  -4.405   1.920  0.00  0.00    +0.029 A 
ATOM     18 CL   UNL     1      -2.636  -7.586  -0.419  0.00  0.00    -0.082 Cl
BRANCH  16  19
ATOM     19  N   UNL     1      -1.351  -6.729   2.123  0.00  0.00    -0.357 N 
ATOM     20  H   UNL     1      -1.357  -7.633   1.770  0.00  0.00    +0.142 HD
ATOM     21  H   UNL     1      -0.905  -6.540   2.963  0.00  0.00    +0.142 HD
ENDBRANCH  16  19
ENDBRANCH   1  12
TORSDOF 3
