REMARK  Name = ZINC61882368
REMARK  7 active torsions:
REMARK  status: ('A' for Active; 'I' for Inactive)
REMARK    1  A    between atoms: C_1  and  C_2
REMARK    2  A    between atoms: C_2  and  C_3
REMARK    3  A    between atoms: C_3  and  C_5
REMARK    4  A    between atoms: C_3  and  N_10
REMARK    5  A    between atoms: N_10  and  S_11
REMARK    6  A    between atoms: S_11  and  C_14
REMARK    7  A    between atoms: C_18  and  N_21
REMARK                            x       y       z     vdW  Elec       q    Type
REMARK                         _______ _______ _______ _____ _____    ______ ____
ROOT
ATOM      1  S   UNL     1       0.288   1.308  -3.301  0.00  0.00    +0.060 S 
ATOM      2  O   UNL     1       1.681   1.516  -3.116  0.00  0.00    -0.153 OA
ATOM      3  O   UNL     1      -0.286   1.093  -4.583  0.00  0.00    -0.153 OA
ENDROOT
BRANCH   1   4
ATOM      4  C   UNL     1      -0.526   2.712  -2.614  0.00  0.00    +0.122 A 
ATOM      5  C   UNL     1       0.217   3.755  -2.092  0.00  0.00    +0.049 A 
ATOM      6  C   UNL     1      -0.418   4.859  -1.552  0.00  0.00    +0.045 A 
ATOM      7  C   UNL     1      -1.800   4.923  -1.533  0.00  0.00    +0.044 A 
ATOM      8  C   UNL     1      -2.548   3.877  -2.056  0.00  0.00    +0.042 A 
ATOM      9  C   UNL     1      -1.907   2.772  -2.602  0.00  0.00    +0.065 A 
ATOM     10 BR   UNL     1      -2.922   1.348  -3.323  0.00  0.00    -0.046 Br
ATOM     11 CL   UNL     1       0.519   6.165  -0.898  0.00  0.00    -0.083 Cl
BRANCH   8  12
ATOM     12  N   UNL     1      -3.944   3.938  -2.038  0.00  0.00    -0.357 N 
ATOM     13  H   UNL     1      -4.391   4.711  -1.659  0.00  0.00    +0.142 HD
ATOM     14  H   UNL     1      -4.466   3.207  -2.403  0.00  0.00    +0.142 HD
ENDBRANCH   8  12
ENDBRANCH   1   4
BRANCH   1  15
ATOM     15  N   UNL     1      -0.123   0.001  -2.372  0.00  0.00    -0.182 NA
ATOM     16  H   UNL     1      -0.605  -0.743  -2.767  0.00  0.00    +0.149 HD
BRANCH  15  17
ATOM     17  C   UNL     1       0.240  -0.034  -0.953  0.00  0.00    +0.113 C 
BRANCH  17  18
ATOM     18  C   UNL     1       1.584  -0.698  -0.795  0.00  0.00    +0.008 A 
ATOM     19  C   UNL     1       2.605  -0.371   0.034  0.00  0.00    +0.013 A 
ATOM     20  C   UNL     1       3.759  -1.132   0.009  0.00  0.00    +0.008 A 
ATOM     21  C   UNL     1       3.834  -2.183  -0.844  0.00  0.00    +0.045 A 
ATOM     22  S   UNL     1       2.239  -2.125  -1.644  0.00  0.00    -0.100 S 
ENDBRANCH  17  18
BRANCH  17  24
ATOM     23  C   UNL     1      -2.135  -0.050  -0.177  0.00  0.00    +0.006 C 
ATOM     24  C   UNL     1      -0.814  -0.823  -0.175  0.00  0.00    +0.022 C 
ENDBRANCH  17  24
ENDBRANCH  15  17
ENDBRANCH   1  15
TORSDOF 6
