REMARK  Name = ZINC06077136
REMARK  6 active torsions:
REMARK  status: ('A' for Active; 'I' for Inactive)
REMARK    1  A    between atoms: C_3  and  S_24
REMARK    2  A    between atoms: C_6  and  C_7
REMARK    3  A    between atoms: C_7  and  N_41
REMARK    4  A    between atoms: C_8  and  N_41
REMARK    5  A    between atoms: N_13  and  C_16
REMARK    6  A    between atoms: S_24  and  N_27
REMARK                            x       y       z     vdW  Elec       q    Type
REMARK                         _______ _______ _______ _____ _____    ______ ____
ROOT
ATOM      1  N   UNL     1      -0.818   1.664  -1.119  0.00  0.00    +0.390 N 
ATOM      2  H   UNL     1      -1.808   1.685  -0.850  0.00  0.00    -0.084 HD
ATOM      3  H   UNL     1      -0.497   2.618  -1.323  0.00  0.00    -0.084 HD
ENDROOT
BRANCH   1   4
ATOM      4  C   UNL     1      -0.023   1.111  -0.006  0.00  0.00    +0.026 C 
ATOM      5  C   UNL     1      -0.588   1.588   1.348  0.00  0.00    +0.090 C 
ATOM      6  C   UNL     1       0.557   2.371   1.953  0.00  0.00    +0.225 C 
ATOM      7  O   UNL     1       0.536   2.925   3.031  0.00  0.00    -0.275 OA
ATOM      8  N   UNL     1       1.597   2.354   1.110  0.00  0.00    -0.212 N 
ATOM      9  C   UNL     1       1.381   1.674  -0.023  0.00  0.00    +0.213 C 
ATOM     10  O   UNL     1       2.184   1.533  -0.920  0.00  0.00    -0.277 OA
BRANCH   8  11
ATOM     11  C   UNL     1       2.812   2.996   1.391  0.00  0.00    +0.045 A 
ATOM     12  C   UNL     1       2.868   4.382   1.455  0.00  0.00    +0.025 A 
ATOM     13  C   UNL     1       4.065   5.012   1.732  0.00  0.00    +0.023 A 
ATOM     14  C   UNL     1       5.209   4.264   1.945  0.00  0.00    +0.059 A 
ATOM     15  C   UNL     1       5.157   2.882   1.882  0.00  0.00    +0.061 A 
ATOM     16  C   UNL     1       3.959   2.246   1.611  0.00  0.00    +0.045 A 
ATOM     17 CL   UNL     1       6.594   1.946   2.151  0.00  0.00    -0.082 Cl
ATOM     18 CL   UNL     1       6.713   5.059   2.292  0.00  0.00    -0.082 Cl
ENDBRANCH   8  11
ENDBRANCH   1   4
BRANCH   1  19
ATOM     19  C   UNL     1      -0.659   0.829  -2.325  0.00  0.00    -0.046 C 
BRANCH  19  25
ATOM     20  C   UNL     1      -2.792   1.017  -3.622  0.00  0.00    +0.003 A 
ATOM     21  C   UNL     1      -3.547   1.559  -4.645  0.00  0.00    +0.029 A 
ATOM     22  C   UNL     1      -2.988   2.495  -5.495  0.00  0.00    +0.105 A 
ATOM     23  C   UNL     1      -1.675   2.892  -5.320  0.00  0.00    +0.029 A 
ATOM     24  C   UNL     1      -0.922   2.352  -4.294  0.00  0.00    +0.003 A 
ATOM     25  C   UNL     1      -1.481   1.417  -3.443  0.00  0.00    -0.064 A 
BRANCH  22  26
ATOM     26  S   UNL     1      -3.948   3.182  -6.803  0.00  0.00    +0.056 S 
ATOM     27  O   UNL     1      -5.310   3.051  -6.418  0.00  0.00    -0.153 OA
ATOM     28  O   UNL     1      -3.363   4.438  -7.120  0.00  0.00    -0.153 OA
BRANCH  26  29
ATOM     29  N   UNL     1      -3.736   2.212  -8.129  0.00  0.00    -0.204 NA
ATOM     30  H   UNL     1      -3.161   1.433  -8.072  0.00  0.00    +0.144 HD
ATOM     31  H   UNL     1      -4.186   2.424  -8.961  0.00  0.00    +0.144 HD
ENDBRANCH  26  29
ENDBRANCH  22  26
ENDBRANCH  19  25
ENDBRANCH   1  19
TORSDOF 6
