REMARK  Name = ZINC01769123
REMARK  9 active torsions:
REMARK  status: ('A' for Active; 'I' for Inactive)
REMARK    1  A    between atoms: C_1  and  C_2
REMARK    2  A    between atoms: C_4  and  C_33
REMARK    3  A    between atoms: C_6  and  O_8
REMARK    4  A    between atoms: O_8  and  C_9
REMARK    5  A    between atoms: C_15  and  O_32
REMARK    6  A    between atoms: C_16  and  C_24
REMARK    7  A    between atoms: C_19  and  C_20
REMARK    8  A    between atoms: C_24  and  N_59
REMARK    9  A    between atoms: C_29  and  C_31
REMARK                            x       y       z     vdW  Elec       q    Type
REMARK                         _______ _______ _______ _____ _____    ______ ____
ROOT
ATOM      1  C   UNL     1      -6.337   5.519   2.141  0.00  0.00    +0.222 A 
ATOM      2  C   UNL     1      -5.474   5.901   3.207  0.00  0.00    +0.235 A 
ATOM      3  O   UNL     1      -5.917   6.243   4.291  0.00  0.00    -0.283 OA
ATOM      4  C   UNL     1      -4.025   5.869   2.946  0.00  0.00    +0.068 A 
ATOM      5  C   UNL     1      -3.100   6.226   3.928  0.00  0.00    +0.019 A 
ATOM      6  C   UNL     1      -1.764   6.183   3.648  0.00  0.00    +0.046 A 
ATOM      7  C   UNL     1      -1.320   5.785   2.389  0.00  0.00    +0.122 A 
ATOM      8  C   UNL     1      -2.225   5.428   1.403  0.00  0.00    +0.020 A 
ATOM      9  C   UNL     1      -3.586   5.471   1.670  0.00  0.00    +0.144 A 
ATOM     10  O   UNL     1      -4.488   5.122   0.731  0.00  0.00    -0.447 OA
ATOM     11  C   UNL     1      -5.808   5.148   0.958  0.00  0.00    +0.254 A 
ENDROOT
BRANCH  11  12
ATOM     12  C   UNL     1      -6.741   4.747  -0.156  0.00  0.00    +0.454 C 
ATOM     13  F   UNL     1      -7.075   5.875  -0.913  0.00  0.00    -0.163 F 
ATOM     14  F   UNL     1      -6.110   3.806  -0.976  0.00  0.00    -0.163 F 
ATOM     15  F   UNL     1      -7.903   4.189   0.387  0.00  0.00    -0.163 F 
ENDBRANCH  11  12
BRANCH   7  16
ATOM     16  O   UNL     1       0.011   5.747   2.125  0.00  0.00    -0.506 OA
ATOM     17  H   UNL     1       0.366   6.575   1.773  0.00  0.00    +0.292 HD
ENDBRANCH   7  16
BRANCH   1  18
ATOM     18  O   UNL     1      -7.687   5.527   2.316  0.00  0.00    -0.448 OA
BRANCH  18  24
ATOM     19  C   UNL     1      -7.616  10.153   0.760  0.00  0.00    +0.044 C 
ATOM     20  C   UNL     1      -8.361   8.943   1.262  0.00  0.00    -0.047 A 
ATOM     21  C   UNL     1      -9.734   8.996   1.424  0.00  0.00    +0.007 A 
ATOM     22  C   UNL     1     -10.421   7.888   1.885  0.00  0.00    -0.047 A 
ATOM     23  C   UNL     1      -9.738   6.725   2.184  0.00  0.00    +0.049 A 
ATOM     24  C   UNL     1      -8.361   6.670   2.022  0.00  0.00    +0.129 A 
ATOM     25  C   UNL     1      -7.673   7.785   1.565  0.00  0.00    +0.049 A 
ATOM     26  C   UNL     1     -11.917   7.949   2.061  0.00  0.00    +0.044 C 
ENDBRANCH  18  24
ENDBRANCH   1  18
BRANCH   8  27
ATOM     27  C   UNL     1      -1.734   5.000   0.044  0.00  0.00    -0.035 C 
BRANCH  27  34
ATOM     28  C   UNL     1      -0.804   3.109   1.238  0.00  0.00    -0.078 C 
ATOM     29  C   UNL     1      -0.732   1.581   1.266  0.00  0.00    -0.019 C 
ATOM     30  C   UNL     1      -0.013   1.086   0.008  0.00  0.00    -0.003 C 
ATOM     31  C   UNL     1      -0.756   1.594  -1.230  0.00  0.00    -0.016 C 
ATOM     32  C   UNL     1      -0.826   3.122  -1.185  0.00  0.00    -0.071 C 
ATOM     33  C   UNL     1      -1.586   3.634  -2.411  0.00  0.00    -0.013 C 
ATOM     34  N   UNL     1      -1.552   3.533   0.035  0.00  0.00    +0.384 N 
ATOM     35  H   UNL     1      -2.475   3.083   0.041  0.00  0.00    -0.081 HD
ENDBRANCH  27  34
ENDBRANCH   8  27
TORSDOF 6
