REMARK  Name = ZINC49149815
REMARK  4 active torsions:
REMARK  status: ('A' for Active; 'I' for Inactive)
REMARK    1  A    between atoms: C_3  and  S_8
REMARK    2  A    between atoms: C_6  and  N_7
REMARK    3  A    between atoms: S_8  and  N_11
REMARK    4  A    between atoms: N_11  and  C_12
REMARK                            x       y       z     vdW  Elec       q    Type
REMARK                         _______ _______ _______ _____ _____    ______ ____
ROOT
ATOM      1  S   UNL     1       3.998   2.321  -0.051  0.00  0.00    +0.072 S 
ATOM      2  O   UNL     1       5.045   1.507  -0.562  0.00  0.00    -0.150 OA
ATOM      3  O   UNL     1       3.688   3.595  -0.597  0.00  0.00    -0.150 OA
ENDROOT
BRANCH   1   6
ATOM      4  C   UNL     1       0.135   1.240  -0.269  0.00  0.00    +0.024 A 
ATOM      5  C   UNL     1       1.293   1.990  -0.196  0.00  0.00    +0.030 A 
ATOM      6  C   UNL     1       2.524   1.361  -0.142  0.00  0.00    +0.109 A 
ATOM      7  C   UNL     1       2.599  -0.020  -0.162  0.00  0.00    +0.030 A 
ATOM      8  C   UNL     1       1.446  -0.775  -0.234  0.00  0.00    +0.024 A 
ATOM      9  C   UNL     1       0.208  -0.147  -0.288  0.00  0.00    +0.025 A 
BRANCH   9  10
ATOM     10  N   UNL     1      -0.961  -0.908  -0.361  0.00  0.00    -0.358 N 
ATOM     11  H   UNL     1      -1.824  -0.468  -0.399  0.00  0.00    +0.142 HD
ATOM     12  H   UNL     1      -0.909  -1.877  -0.375  0.00  0.00    +0.142 HD
ENDBRANCH   9  10
ENDBRANCH   1   6
BRANCH   1  13
ATOM     13  N   UNL     1       4.326   2.562   1.555  0.00  0.00    -0.215 N 
ATOM     14  H   UNL     1       4.361   3.463   1.913  0.00  0.00    +0.174 HD
BRANCH  13  15
ATOM     15  C   UNL     1       4.553   1.467   2.393  0.00  0.00    +0.062 A 
ATOM     16  C   UNL     1       5.218   0.347   1.911  0.00  0.00    +0.027 A 
ATOM     17  C   UNL     1       5.441  -0.733   2.742  0.00  0.00    +0.017 A 
ATOM     18  C   UNL     1       5.004  -0.701   4.054  0.00  0.00    +0.019 A 
ATOM     19  C   UNL     1       4.342   0.413   4.539  0.00  0.00    +0.032 A 
ATOM     20  C   UNL     1       4.120   1.500   3.713  0.00  0.00    +0.041 A 
ATOM     21 BR   UNL     1       3.223   3.026   4.378  0.00  0.00    -0.048 Br
ATOM     22 BR   UNL     1       5.311  -2.182   5.189  0.00  0.00    -0.050 Br
ENDBRANCH  13  15
ENDBRANCH   1  13
TORSDOF 4
