REMARK  Name = ZINC11591704
REMARK  8 active torsions:
REMARK  status: ('A' for Active; 'I' for Inactive)
REMARK    1  A    between atoms: C_1  and  C_2
REMARK    2  A    between atoms: C_2  and  C_4
REMARK    3  A    between atoms: C_2  and  N_11
REMARK    4  A    between atoms: C_12  and  C_14
REMARK    5  A    between atoms: C_14  and  S_15
REMARK    6  A    between atoms: S_15  and  C_16
REMARK    7  A    between atoms: C_19  and  C_22
REMARK    8  A    between atoms: N_20  and  N_21
REMARK                            x       y       z     vdW  Elec       q    Type
REMARK                         _______ _______ _______ _____ _____    ______ ____
ROOT
ATOM      1  C   UNL     1       2.731   9.583   0.085  0.00  0.00    +0.173 C 
ENDROOT
BRANCH   1   3
ATOM      2  N   UNL     1       3.356  11.976   0.035  0.00  0.00    -0.308 N 
ATOM      3  C   UNL     1       3.734  10.697   0.235  0.00  0.00    +0.224 C 
ATOM      4  O   UNL     1       4.882  10.444   0.535  0.00  0.00    -0.275 OA
ATOM      5  H   UNL     1       2.439  12.178  -0.205  0.00  0.00    +0.149 HD
BRANCH   2   7
ATOM      6  C   UNL     1       5.098  13.235  -1.132  0.00  0.00    +0.033 C 
ATOM      7  C   UNL     1       4.332  13.059   0.180  0.00  0.00    +0.100 C 
BRANCH   7   8
ATOM      8  C   UNL     1       3.613  14.340   0.517  0.00  0.00    -0.027 A 
ATOM      9  C   UNL     1       2.418  14.646  -0.106  0.00  0.00    +0.006 A 
ATOM     10  C   UNL     1       1.756  15.819   0.206  0.00  0.00    +0.015 A 
ATOM     11  C   UNL     1       2.295  16.691   1.135  0.00  0.00    +0.018 A 
ATOM     12  C   UNL     1       3.493  16.386   1.755  0.00  0.00    +0.015 A 
ATOM     13  C   UNL     1       4.152  15.211   1.446  0.00  0.00    +0.006 A 
ATOM     14 BR   UNL     1       1.394  18.299   1.558  0.00  0.00    -0.050 Br
ENDBRANCH   7   8
ENDBRANCH   2   7
ENDBRANCH   1   3
BRANCH   1  15
ATOM     15  S   UNL     1       3.538   7.997   0.415  0.00  0.00    -0.075 S 
BRANCH  15  16
ATOM     16  C   UNL     1       2.175   6.905   0.176  0.00  0.00    +0.209 A 
ATOM     17  N   UNL     1       0.950   7.248  -0.151  0.00  0.00    -0.121 NA
ATOM     18  N   UNL     1       0.209   6.203  -0.249  0.00  0.00    -0.126 NA
ATOM     19  C   UNL     1       0.914   5.126   0.019  0.00  0.00    +0.188 A 
ATOM     20  N   UNL     1       2.197   5.543   0.297  0.00  0.00    -0.223 N 
BRANCH  19  21
ATOM     21  C   UNL     1       0.426   3.737   0.017  0.00  0.00    +0.058 A 
ATOM     22  C   UNL     1      -0.866   3.275   0.026  0.00  0.00    +0.019 A 
ATOM     23  C   UNL     1      -1.081   1.915   0.017  0.00  0.00    +0.008 A 
ATOM     24  C   UNL     1      -0.013   1.076   0.008  0.00  0.00    +0.046 A 
ATOM     25  S   UNL     1       1.361   2.216   0.001  0.00  0.00    -0.093 S 
ENDBRANCH  19  21
BRANCH  20  26
ATOM     26  N   UNL     1       3.267   4.760   0.623  0.00  0.00    -0.295 N 
ATOM     27  H   UNL     1       3.773   4.476  -0.203  0.00  0.00    +0.163 HD
ATOM     28  H   UNL     1       3.876   5.232   1.275  0.00  0.00    +0.163 HD
ENDBRANCH  20  26
ENDBRANCH  15  16
ENDBRANCH   1  15
TORSDOF 7
