REMARK  Name = ZINC49523815
REMARK  6 active torsions:
REMARK  status: ('A' for Active; 'I' for Inactive)
REMARK    1  A    between atoms: C_6  and  N_7
REMARK    2  A    between atoms: C_13  and  C_16
REMARK    3  A    between atoms: C_16  and  N_17
REMARK    4  A    between atoms: C_18  and  C_20
REMARK    5  A    between atoms: N_22  and  C_23
REMARK    6  A    between atoms: C_23  and  C_24
REMARK                            x       y       z     vdW  Elec       q    Type
REMARK                         _______ _______ _______ _____ _____    ______ ____
ROOT
ATOM      1  N   UNL     1      -1.202  -0.726   0.057  0.00  0.00    -0.269 N 
ATOM      2  C   UNL     1      -1.185  -2.065  -0.099  0.00  0.00    +0.306 C 
ATOM      3  O   UNL     1      -0.124  -2.657  -0.155  0.00  0.00    -0.252 OA
ATOM      4  N   UNL     1      -2.343  -2.747  -0.193  0.00  0.00    -0.285 N 
ATOM      5  C   UNL     1      -3.625  -2.036  -0.293  0.00  0.00    +0.109 C 
ATOM      6  C   UNL     1      -4.563  -2.553   0.802  0.00  0.00    +0.024 C 
ATOM      7  C   UNL     1      -4.678  -4.075   0.692  0.00  0.00    +0.009 C 
ATOM      8  C   UNL     1      -3.301  -4.709   0.897  0.00  0.00    +0.024 C 
ATOM      9  C   UNL     1      -2.348  -4.217  -0.202  0.00  0.00    +0.109 C 
ATOM     10  H   UNL     1      -2.038  -0.270   0.237  0.00  0.00    +0.156 HD
ENDROOT
BRANCH   1  16
ATOM     11  C   UNL     1      -0.050   1.355  -0.365  0.00  0.00    +0.026 A 
ATOM     12  C   UNL     1       1.125   2.075  -0.461  0.00  0.00    +0.040 A 
ATOM     13  C   UNL     1       2.341   1.452  -0.235  0.00  0.00    +0.124 A 
ATOM     14  C   UNL     1       2.381   0.105   0.087  0.00  0.00    +0.040 A 
ATOM     15  C   UNL     1       1.208  -0.618   0.183  0.00  0.00    +0.026 A 
ATOM     16  C   UNL     1      -0.011   0.005  -0.042  0.00  0.00    +0.035 A 
ATOM     17  F   UNL     1       3.489   2.157  -0.330  0.00  0.00    -0.205 F 
ENDBRANCH   1  16
BRANCH   7  18
ATOM     18  C   UNL     1      -5.642  -4.592   1.763  0.00  0.00    +0.108 C 
BRANCH  18  19
ATOM     19  N   UNL     1      -5.845  -6.031   1.583  0.00  0.00    -0.307 N 
ATOM     20  C   UNL     1      -6.661  -6.706   2.417  0.00  0.00    +0.299 C 
ATOM     21  O   UNL     1      -7.227  -6.121   3.317  0.00  0.00    -0.265 OA
ATOM     22  H   UNL     1      -5.393  -6.499   0.864  0.00  0.00    +0.149 HD
BRANCH  20  23
ATOM     23  C   UNL     1      -6.869  -8.174   2.234  0.00  0.00    +0.299 C 
ATOM     24  O   UNL     1      -6.303  -8.760   1.334  0.00  0.00    -0.265 OA
ATOM     25  N   UNL     1      -7.685  -8.849   3.068  0.00  0.00    -0.305 N 
ATOM     26  H   UNL     1      -8.137  -8.381   3.788  0.00  0.00    +0.149 HD
BRANCH  25  27
ATOM     27  C   UNL     1      -7.888 -10.289   2.889  0.00  0.00    +0.136 C 
BRANCH  27  28
ATOM     28  C   UNL     1      -8.851 -10.805   3.959  0.00  0.00    +0.135 C 
ATOM     29  C   UNL     1      -9.053 -12.334   3.808  0.00  0.00    +0.035 C 
ATOM     30  C   UNL     1      -9.465 -12.721   5.255  0.00  0.00    +0.031 C 
ATOM     31  C   UNL     1      -8.637 -11.734   6.106  0.00  0.00    +0.160 C 
ATOM     32  O   UNL     1      -8.286 -10.626   5.267  0.00  0.00    -0.375 OA
ENDBRANCH  27  28
ENDBRANCH  25  27
ENDBRANCH  20  23
ENDBRANCH  18  19
ENDBRANCH   7  18
TORSDOF 6
