REMARK  Name = ZINC54269960
REMARK  7 active torsions:
REMARK  status: ('A' for Active; 'I' for Inactive)
REMARK    1  A    between atoms: C_3  and  C_12
REMARK    2  A    between atoms: C_4  and  C_8
REMARK    3  A    between atoms: C_14  and  C_17
REMARK    4  A    between atoms: C_17  and  C_19
REMARK    5  A    between atoms: C_17  and  N_22
REMARK    6  A    between atoms: C_19  and  C_20
REMARK    7  A    between atoms: C_20  and  O_21
REMARK                            x       y       z     vdW  Elec       q    Type
REMARK                         _______ _______ _______ _____ _____    ______ ____
ROOT
ATOM      1  C   UNL     1       3.660   2.165  -0.022  0.00  0.00    +0.203 A 
ATOM      2  N   UNL     1       3.778   3.505  -0.011  0.00  0.00    -0.193 NA
ATOM      3  C   UNL     1       5.036   3.842  -0.023  0.00  0.00    +0.213 A 
ATOM      4  O   UNL     1       5.775   2.726  -0.042  0.00  0.00    -0.339 OA
ATOM      5  N   UNL     1       4.860   1.640  -0.036  0.00  0.00    -0.056 NA
ENDROOT
BRANCH   1   8
ATOM      6  C   UNL     1      -0.017   1.380   0.010  0.00  0.00    +0.016 A 
ATOM      7  C   UNL     1       1.168   2.088   0.002  0.00  0.00    +0.013 A 
ATOM      8  C   UNL     1       2.384   1.408  -0.013  0.00  0.00    +0.034 A 
ATOM      9  C   UNL     1       2.397   0.015  -0.021  0.00  0.00    +0.067 A 
ATOM     10  C   UNL     1       1.208  -0.684  -0.013  0.00  0.00    +0.028 A 
ATOM     11  C   UNL     1       0.002  -0.004   0.002  0.00  0.00    +0.018 A 
ATOM     12 BR   UNL     1      -1.624  -0.969   0.013  0.00  0.00    -0.050 Br
BRANCH   9  13
ATOM     13  C   UNL     1       3.709  -0.727  -0.038  0.00  0.00    +0.418 C 
ATOM     14  F   UNL     1       3.465  -2.105  -0.043  0.00  0.00    -0.166 F 
ATOM     15  F   UNL     1       4.428  -0.377  -1.185  0.00  0.00    -0.166 F 
ATOM     16  F   UNL     1       4.450  -0.389   1.099  0.00  0.00    -0.166 F 
ENDBRANCH   9  13
ENDBRANCH   1   8
BRANCH   3  17
ATOM     17  C   UNL     1       5.569   5.252  -0.017  0.00  0.00    +0.018 C 
BRANCH  17  18
ATOM     18  N   UNL     1       6.647   5.371  -1.008  0.00  0.00    +0.386 N 
ATOM     19  H   UNL     1       7.005   6.315  -1.004  0.00  0.00    -0.089 HD
ATOM     20  H   UNL     1       7.390   4.729  -0.776  0.00  0.00    -0.089 HD
ATOM     21  H   UNL     1       6.287   5.152  -1.924  0.00  0.00    -0.089 HD
ENDBRANCH  17  18
BRANCH  17  22
ATOM     22  C   UNL     1       6.116   5.584   1.373  0.00  0.00    +0.021 C 
BRANCH  22  23
ATOM     23  C   UNL     1       6.543   7.053   1.415  0.00  0.00    +0.154 C 
BRANCH  23  24
ATOM     24  O   UNL     1       7.053   7.363   2.714  0.00  0.00    -0.395 OA
ATOM     25  H   UNL     1       7.344   8.280   2.813  0.00  0.00    +0.209 HD
ENDBRANCH  23  24
ENDBRANCH  22  23
ENDBRANCH  17  22
ENDBRANCH   3  17
TORSDOF 7
