REMARK  Name = ZINC67423895
REMARK  7 active torsions:
REMARK  status: ('A' for Active; 'I' for Inactive)
REMARK    1  A    between atoms: C_1  and  C_2
REMARK    2  A    between atoms: C_5  and  N_9
REMARK    3  A    between atoms: C_10  and  C_12
REMARK    4  A    between atoms: C_12  and  C_13
REMARK    5  A    between atoms: C_13  and  N_14
REMARK    6  A    between atoms: N_17  and  C_18
REMARK    7  A    between atoms: C_27  and  O_29
REMARK                            x       y       z     vdW  Elec       q    Type
REMARK                         _______ _______ _______ _____ _____    ______ ____
ROOT
ATOM      1  N   UNL     1      -0.330  -8.309  -2.633  0.00  0.00    -0.299 N 
ATOM      2  C   UNL     1      -0.429  -8.977  -3.799  0.00  0.00    +0.300 C 
ATOM      3  O   UNL     1      -0.442  -8.366  -4.851  0.00  0.00    -0.253 OA
ATOM      4  N   UNL     1      -0.513 -10.322  -3.800  0.00  0.00    -0.290 N 
ATOM      5  H   UNL     1      -0.319  -8.796  -1.794  0.00  0.00    +0.150 HD
ATOM      6  H   UNL     1      -0.502 -10.809  -2.962  0.00  0.00    +0.151 HD
ENDROOT
BRANCH   4   7
ATOM      7  C   UNL     1      -0.621 -11.048  -5.068  0.00  0.00    +0.134 C 
ATOM      8  C   UNL     1       0.757 -11.349  -5.620  0.00  0.00    -0.021 A 
ATOM      9  C   UNL     1       1.882 -10.547  -5.711  0.00  0.00    +0.006 A 
ATOM     10  C   UNL     1       3.047 -11.044  -6.261  0.00  0.00    +0.000 A 
ATOM     11  C   UNL     1       3.091 -12.347  -6.722  0.00  0.00    +0.000 A 
ATOM     12  C   UNL     1       1.970 -13.148  -6.632  0.00  0.00    +0.004 A 
ATOM     13  C   UNL     1       0.801 -12.652  -6.081  0.00  0.00    -0.040 A 
ATOM     14  C   UNL     1      -0.544 -13.315  -5.871  0.00  0.00    +0.069 C 
ATOM     15  C   UNL     1      -1.278 -12.426  -4.842  0.00  0.00    +0.143 C 
BRANCH  15  16
ATOM     16  O   UNL     1      -1.040 -12.890  -3.511  0.00  0.00    -0.389 OA
ATOM     17  H   UNL     1      -1.433 -13.752  -3.319  0.00  0.00    +0.210 HD
ENDBRANCH  15  16
ENDBRANCH   4   7
BRANCH   1  18
ATOM     18  C   UNL     1      -0.238  -6.847  -2.632  0.00  0.00    +0.115 C 
BRANCH  18  19
ATOM     19  C   UNL     1      -0.136  -6.343  -1.191  0.00  0.00    +0.115 C 
BRANCH  19  21
ATOM     20  N   UNL     1       0.057  -4.171  -0.023  0.00  0.00    -0.284 N 
ATOM     21  C   UNL     1      -0.042  -4.839  -1.190  0.00  0.00    +0.219 C 
ATOM     22  O   UNL     1      -0.055  -4.230  -2.238  0.00  0.00    -0.275 OA
ATOM     23  H   UNL     1       0.149  -4.660   0.809  0.00  0.00    +0.155 HD
BRANCH  20  28
ATOM     24  C   UNL     1      -0.064   1.502   0.016  0.00  0.00    +0.044 C 
ATOM     25  C   UNL     1      -0.031  -0.005   0.006  0.00  0.00    -0.049 A 
ATOM     26  C   UNL     1      -0.622  -0.701  -1.033  0.00  0.00    +0.005 A 
ATOM     27  C   UNL     1      -0.594  -2.082  -1.045  0.00  0.00    +0.025 A 
ATOM     28  C   UNL     1       0.028  -2.772  -0.014  0.00  0.00    +0.052 A 
ATOM     29  C   UNL     1       0.621  -2.070   1.029  0.00  0.00    +0.062 A 
ATOM     30  C   UNL     1       0.595  -0.688   1.032  0.00  0.00    +0.025 A 
ATOM     31 CL   UNL     1       1.401  -2.928   2.321  0.00  0.00    -0.082 Cl
ENDBRANCH  20  28
ENDBRANCH  19  21
ENDBRANCH  18  19
ENDBRANCH   1  18
TORSDOF 6
