REMARK  Name = ZINC02996753
REMARK  6 active torsions:
REMARK  status: ('A' for Active; 'I' for Inactive)
REMARK    1  A    between atoms: C_1  and  C_2
REMARK    2  A    between atoms: C_3  and  C_10
REMARK    3  A    between atoms: C_7  and  C_8
REMARK    4  A    between atoms: C_13  and  C_15
REMARK    5  A    between atoms: N_19  and  C_23
REMARK    6  A    between atoms: C_23  and  C_24
REMARK                            x       y       z     vdW  Elec       q    Type
REMARK                         _______ _______ _______ _____ _____    ______ ____
ROOT
ATOM      1  C   UNL     1       3.257   3.725  -0.063  0.00  0.00    +0.136 A 
ATOM      2  C   UNL     1       3.906   2.538   0.124  0.00  0.00    +0.050 A 
ATOM      3  C   UNL     1       2.950   1.524   0.019  0.00  0.00    +0.050 A 
ATOM      4  C   UNL     1       1.739   2.143  -0.233  0.00  0.00    +0.130 A 
ATOM      5  O   UNL     1       1.953   3.475  -0.283  0.00  0.00    -0.455 OA
ENDROOT
BRANCH   4   6
ATOM      6  C   UNL     1       0.497   1.496  -0.411  0.00  0.00    +0.066 C 
ATOM      7  C   UNL     1      -0.645   2.232  -0.535  0.00  0.00    +0.080 C 
ATOM      8  C   UNL     1      -0.814   3.691  -0.644  0.00  0.00    +0.259 C 
ATOM      9  O   UNL     1       0.141   4.447  -0.633  0.00  0.00    -0.269 OA
ATOM     10  N   UNL     1      -2.053   4.140  -0.754  0.00  0.00    -0.244 N 
ATOM     11  C   UNL     1      -3.108   3.300  -0.765  0.00  0.00    +0.121 C 
ATOM     12  S   UNL     1      -4.771   3.682  -0.899  0.00  0.00    -0.027 S 
ATOM     13  S   UNL     1      -2.347   1.691  -0.617  0.00  0.00    -0.061 S 
BRANCH  10  14
ATOM     14  C   UNL     1      -2.285   5.582  -0.866  0.00  0.00    +0.240 C 
BRANCH  14  15
ATOM     15  C   UNL     1      -2.272   5.982  -2.319  0.00  0.00    +0.373 C 
ATOM     16  O   UNL     1      -2.089   5.147  -3.174  0.00  0.00    -0.245 OA
ATOM     17  O   UNL     1      -2.466   7.264  -2.664  0.00  0.00    -0.245 OA
ENDBRANCH  14  15
ENDBRANCH  10  14
ENDBRANCH   4   6
BRANCH   1  20
ATOM     18  C   UNL     1       2.760   5.580  -2.225  0.00  0.00    +0.045 C 
ATOM     19  C   UNL     1       3.651   5.964  -1.072  0.00  0.00    -0.026 A 
ATOM     20  C   UNL     1       3.883   5.061  -0.035  0.00  0.00    +0.021 A 
ATOM     21  C   UNL     1       4.707   5.427   1.034  0.00  0.00    +0.012 A 
ATOM     22  C   UNL     1       5.298   6.674   1.058  0.00  0.00    +0.002 A 
ATOM     23  C   UNL     1       5.072   7.573   0.035  0.00  0.00    +0.015 A 
ATOM     24  C   UNL     1       4.246   7.223  -1.037  0.00  0.00    +0.067 A 
BRANCH  24  25
ATOM     25  C   UNL     1       4.006   8.186  -2.132  0.00  0.00    +0.387 C 
ATOM     26  O   UNL     1       3.343   7.858  -3.095  0.00  0.00    -0.241 OA
ATOM     27  O   UNL     1       4.522   9.429  -2.061  0.00  0.00    -0.241 OA
ENDBRANCH  24  25
ENDBRANCH   1  20
TORSDOF 5
