REMARK  Name = ZINC19635363
REMARK  8 active torsions:
REMARK  status: ('A' for Active; 'I' for Inactive)
REMARK    1  A    between atoms: C_1  and  C_2
REMARK    2  A    between atoms: C_2  and  C_4
REMARK    3  A    between atoms: C_2  and  O_21
REMARK    4  A    between atoms: N_6  and  N_7
REMARK    5  A    between atoms: N_7  and  C_8
REMARK    6  A    between atoms: C_8  and  N_10
REMARK    7  A    between atoms: N_10  and  C_11
REMARK    8  A    between atoms: O_21  and  C_22
REMARK                            x       y       z     vdW  Elec       q    Type
REMARK                         _______ _______ _______ _____ _____    ______ ____
ROOT
ATOM      1  N   UNL     1       4.857  -2.696  -0.379  0.00  0.00    -0.246 N 
ATOM      2  H   UNL     1       4.895  -3.792  -0.469  0.00  0.00    +0.172 HD
ENDROOT
BRANCH   1   5
ATOM      3  C   UNL     1       7.212  -2.617  -0.039  0.00  0.00    +0.270 C 
ATOM      4  O   UNL     1       7.254  -3.825  -0.138  0.00  0.00    -0.270 OA
ATOM      5  N   UNL     1       6.034  -1.972  -0.150  0.00  0.00    -0.232 N 
ATOM      6  H   UNL     1       5.997  -0.876  -0.060  0.00  0.00    +0.173 HD
BRANCH   3   8
ATOM      7  C   UNL     1       8.703  -0.852  -0.942  0.00  0.00    +0.062 C 
ATOM      8  C   UNL     1       8.478  -1.837   0.207  0.00  0.00    +0.257 C 
BRANCH   8   9
ATOM      9  O   UNL     1       9.585  -2.738   0.286  0.00  0.00    -0.478 OA
BRANCH   9  10
ATOM     10  C   UNL     1      10.671  -2.321   0.988  0.00  0.00    +0.141 A 
ATOM     11  C   UNL     1      10.724  -1.026   1.483  0.00  0.00    +0.067 A 
ATOM     12  C   UNL     1      11.830  -0.605   2.197  0.00  0.00    +0.045 A 
ATOM     13  C   UNL     1      12.884  -1.474   2.419  0.00  0.00    +0.021 A 
ATOM     14  C   UNL     1      12.834  -2.764   1.927  0.00  0.00    +0.025 A 
ATOM     15  C   UNL     1      11.728  -3.192   1.216  0.00  0.00    +0.083 A 
ATOM     16 CL   UNL     1      11.663  -4.815   0.604  0.00  0.00    -0.080 Cl
ATOM     17 CL   UNL     1      11.896   1.015   2.818  0.00  0.00    -0.083 Cl
ENDBRANCH   9  10
ENDBRANCH   8   9
ENDBRANCH   3   8
ENDBRANCH   1   5
BRANCH   1  18
ATOM     18  C   UNL     1       3.679  -2.051  -0.489  0.00  0.00    +0.151 C 
ATOM     19  S   UNL     1       2.241  -2.937  -0.769  0.00  0.00    -0.017 S 
BRANCH  18  20
ATOM     20  N   UNL     1       3.633  -0.709  -0.379  0.00  0.00    -0.296 N 
ATOM     21  H   UNL     1       4.566  -0.132  -0.292  0.00  0.00    +0.154 HD
BRANCH  20  22
ATOM     22  C   UNL     1       2.398  -0.048  -0.376  0.00  0.00    +0.036 A 
ATOM     23  C   UNL     1       1.327  -0.582   0.328  0.00  0.00    +0.027 A 
ATOM     24  C   UNL     1       0.108   0.068   0.331  0.00  0.00    +0.051 A 
ATOM     25  C   UNL     1      -0.050   1.256  -0.369  0.00  0.00    +0.162 A 
ATOM     26  C   UNL     1       1.022   1.794  -1.071  0.00  0.00    +0.164 A 
ATOM     27  C   UNL     1       2.244   1.140  -1.075  0.00  0.00    +0.072 A 
ATOM     28  O   UNL     1       0.888   2.963  -1.756  0.00  0.00    -0.485 OA
ATOM     29  C   UNL     1      -0.447   3.395  -2.039  0.00  0.00    +0.270 C 
ATOM     30  C   UNL     1      -1.279   3.254  -0.757  0.00  0.00    +0.270 C 
ATOM     31  O   UNL     1      -1.261   1.878  -0.361  0.00  0.00    -0.485 OA
ENDBRANCH  20  22
ENDBRANCH  18  20
ENDBRANCH   1  18
TORSDOF 7
