REMARK  Name = ZINC04730401
REMARK  6 active torsions:
REMARK  status: ('A' for Active; 'I' for Inactive)
REMARK    1  A    between atoms: C_1  and  O_2
REMARK    2  A    between atoms: O_2  and  C_3
REMARK    3  A    between atoms: C_3  and  C_4
REMARK    4  A    between atoms: C_11  and  N_25
REMARK    5  A    between atoms: C_12  and  C_23
REMARK    6  A    between atoms: C_13  and  C_15
REMARK                            x       y       z     vdW  Elec       q    Type
REMARK                         _______ _______ _______ _____ _____    ______ ____
ROOT
ATOM      1  C   UNL     1       0.614  -2.074  -1.042  0.00  0.00    +0.096 A 
ATOM      2  C   UNL     1       1.569  -2.876  -0.433  0.00  0.00    +0.052 A 
ATOM      3  C   UNL     1       1.171  -4.178  -0.559  0.00  0.00    +0.223 A 
ATOM      4  N   UNL     1       0.005  -4.184  -1.226  0.00  0.00    -0.246 N 
ATOM      5  H   UNL     1      -0.513  -4.968  -1.463  0.00  0.00    +0.192 HD
ATOM      6  N   UNL     1      -0.331  -2.852  -1.516  0.00  0.00    -0.173 NA
ATOM      7  O   UNL     1       1.890  -5.215  -0.063  0.00  0.00    -0.423 OA
ATOM      8  C   UNL     1       2.882  -4.928   0.805  0.00  0.00    +0.200 C 
ATOM      9  C   UNL     1       3.369  -3.684   1.006  0.00  0.00    +0.098 C 
ATOM     10  C   UNL     1       2.844  -2.480   0.264  0.00  0.00    +0.103 C 
ENDROOT
BRANCH  10  11
ATOM     11  C   UNL     1       3.860  -2.026  -0.752  0.00  0.00    -0.015 A 
ATOM     12  C   UNL     1       4.277  -2.891  -1.747  0.00  0.00    +0.006 A 
ATOM     13  C   UNL     1       5.209  -2.476  -2.679  0.00  0.00    +0.002 A 
ATOM     14  C   UNL     1       5.725  -1.195  -2.619  0.00  0.00    +0.021 A 
ATOM     15  C   UNL     1       5.309  -0.328  -1.625  0.00  0.00    +0.060 A 
ATOM     16  C   UNL     1       4.371  -0.742  -0.694  0.00  0.00    +0.063 A 
ATOM     17 CL   UNL     1       3.841   0.347   0.549  0.00  0.00    -0.082 Cl
ATOM     18 CL   UNL     1       5.956   1.281  -1.549  0.00  0.00    -0.082 Cl
ENDBRANCH  10  11
BRANCH   8  19
ATOM     19  N   UNL     1       3.429  -5.961   1.525  0.00  0.00    -0.328 N 
ATOM     20  H   UNL     1       3.101  -6.865   1.403  0.00  0.00    +0.145 HD
ATOM     21  H   UNL     1       4.144  -5.786   2.157  0.00  0.00    +0.145 HD
ENDBRANCH   8  19
BRANCH   9  22
ATOM     22  C   UNL     1       4.422  -3.501   1.959  0.00  0.00    +0.101 C 
ATOM     23  N   UNL     1       5.258  -3.357   2.715  0.00  0.00    -0.191 NA
ENDBRANCH   9  22
BRANCH   1  24
ATOM     24  C   UNL     1       0.652  -0.570  -1.138  0.00  0.00    +0.217 C 
BRANCH  24  26
ATOM     25  C   UNL     1      -0.017   1.425   0.010  0.00  0.00    +0.194 C 
ATOM     26  O   UNL     1       0.002  -0.004   0.002  0.00  0.00    -0.377 OA
ENDBRANCH  24  26
ENDBRANCH   1  24
TORSDOF 5
