REMARK  Name = ZINC67346905
REMARK  5 active torsions:
REMARK  status: ('A' for Active; 'I' for Inactive)
REMARK    1  A    between atoms: C_3  and  S_17
REMARK    2  A    between atoms: C_5  and  C_6
REMARK    3  A    between atoms: C_6  and  N_7
REMARK    4  A    between atoms: C_12  and  C_14
REMARK    5  A    between atoms: S_17  and  N_20
REMARK                            x       y       z     vdW  Elec       q    Type
REMARK                         _______ _______ _______ _____ _____    ______ ____
ROOT
ATOM      1  C   UNL     1      -1.155  -0.969   0.008  0.00  0.00    +0.145 C 
ENDROOT
BRANCH   1   2
ATOM      2  N   UNL     1      -1.544  -1.274  -1.371  0.00  0.00    -0.324 N 
ATOM      3  C   UNL     1      -2.597  -2.148  -1.619  0.00  0.00    +0.121 A 
ATOM      4  C   UNL     1      -3.280  -2.725  -0.549  0.00  0.00    +0.045 A 
ATOM      5  C   UNL     1      -4.326  -3.593  -0.803  0.00  0.00    +0.026 A 
ATOM      6  C   UNL     1      -4.662  -3.862  -2.124  0.00  0.00    +0.077 A 
ATOM      7  C   UNL     1      -3.938  -3.252  -3.147  0.00  0.00    +0.160 A 
ATOM      8  N   UNL     1      -2.941  -2.418  -2.865  0.00  0.00    -0.220 NA
ATOM      9 CL   UNL     1      -5.966  -4.945  -2.496  0.00  0.00    -0.081 Cl
ATOM     10  H   UNL     1      -1.067  -0.867  -2.111  0.00  0.00    +0.148 HD
BRANCH   7  11
ATOM     11  C   UNL     1      -4.274  -3.521  -4.512  0.00  0.00    +0.121 C 
ATOM     12  N   UNL     1      -4.541  -3.735  -5.596  0.00  0.00    -0.189 NA
ENDBRANCH   7  11
ENDBRANCH   1   2
BRANCH   1  17
ATOM     13  C   UNL     1      -0.016   1.351   0.009  0.00  0.00    +0.015 A 
ATOM     14  C   UNL     1       1.183   2.038   0.002  0.00  0.00    +0.036 A 
ATOM     15  C   UNL     1       2.343   1.336  -0.013  0.00  0.00    +0.142 A 
ATOM     16  S   UNL     1       1.754  -0.349  -0.017  0.00  0.00    -0.072 S 
ATOM     17  C   UNL     1       0.002  -0.004   0.002  0.00  0.00    +0.009 A 
BRANCH  15  18
ATOM     18  S   UNL     1       4.001   1.932  -0.026  0.00  0.00    +0.062 S 
ATOM     19  O   UNL     1       4.799   0.900  -0.590  0.00  0.00    -0.153 OA
ATOM     20  O   UNL     1       3.957   3.244  -0.570  0.00  0.00    -0.153 OA
BRANCH  18  21
ATOM     21  N   UNL     1       4.477   2.089   1.552  0.00  0.00    -0.203 NA
ATOM     22  H   UNL     1       3.864   1.863   2.268  0.00  0.00    +0.144 HD
ATOM     23  H   UNL     1       5.369   2.408   1.760  0.00  0.00    +0.144 HD
ENDBRANCH  18  21
ENDBRANCH  15  18
ENDBRANCH   1  17
TORSDOF 5
