REMARK  Name = ZINC39638140
REMARK  10 active torsions:
REMARK  status: ('A' for Active; 'I' for Inactive)
REMARK    1  A    between atoms: C_1  and  C_2
REMARK    2  A    between atoms: C_2  and  C_3
REMARK    3  A    between atoms: C_3  and  C_5
REMARK    4  A    between atoms: C_3  and  N_8
REMARK    5  A    between atoms: C_5  and  O_6
REMARK    6  A    between atoms: O_6  and  C_7
REMARK    7  A    between atoms: C_9  and  C_11
REMARK    8  A    between atoms: C_22  and  C_24
REMARK    9  A    between atoms: C_29  and  O_30
REMARK   10  A    between atoms: O_30  and  C_31
REMARK                            x       y       z     vdW  Elec       q    Type
REMARK                         _______ _______ _______ _____ _____    ______ ____
ROOT
ATOM      1  C   UNL     1      -3.858   1.252  -2.823  0.00  0.00    +0.100 C 
ATOM      2  C   UNL     1      -2.685   1.467  -3.805  0.00  0.00    +0.121 C 
ATOM      3  N   UNL     1      -3.045   2.694  -4.554  0.00  0.00    -0.296 N 
ATOM      4  C   UNL     1      -3.649   3.585  -3.534  0.00  0.00    +0.115 C 
ATOM      5  C   UNL     1      -4.488   2.644  -2.647  0.00  0.00    -0.004 C 
ATOM      6  C   UNL     1      -4.404   3.081  -1.188  0.00  0.00    -0.010 C 
ATOM      7  C   UNL     1      -5.088   4.442  -1.028  0.00  0.00    -0.082 C 
ATOM      8  N   UNL     1      -6.490   4.340  -1.449  0.00  0.00    +0.379 N 
ATOM      9  C   UNL     1      -6.561   4.010  -2.878  0.00  0.00    -0.082 C 
ATOM     10  C   UNL     1      -5.939   2.631  -3.116  0.00  0.00    -0.010 C 
ATOM     11  C   UNL     1      -2.864   2.944  -5.866  0.00  0.00    +0.252 C 
ATOM     12  O   UNL     1      -3.128   4.041  -6.318  0.00  0.00    -0.270 OA
ATOM     13  H   UNL     1      -6.949   3.617  -0.915  0.00  0.00    -0.086 HD
ATOM     14  H   UNL     1      -6.954   5.221  -1.286  0.00  0.00    -0.086 HD
ENDROOT
BRANCH  11  15
ATOM     15  C   UNL     1      -2.346   1.885  -6.754  0.00  0.00    +0.099 A 
ATOM     16  C   UNL     1      -1.406   0.960  -6.286  0.00  0.00    +0.020 A 
ATOM     17  C   UNL     1      -0.953  -0.014  -7.158  0.00  0.00    +0.021 A 
ATOM     18  C   UNL     1      -1.436  -0.045  -8.454  0.00  0.00    +0.114 A 
ATOM     19  N   UNL     1      -2.321   0.837  -8.874  0.00  0.00    -0.220 NA
ATOM     20  C   UNL     1      -2.792   1.784  -8.080  0.00  0.00    +0.233 A 
BRANCH  20  21
ATOM     21  O   UNL     1      -3.706   2.666  -8.552  0.00  0.00    -0.437 OA
BRANCH  21  22
ATOM     22  C   UNL     1      -4.040   2.596  -9.868  0.00  0.00    +0.130 A 
ATOM     23  C   UNL     1      -4.928   1.625 -10.308  0.00  0.00    +0.048 A 
ATOM     24  C   UNL     1      -5.267   1.555 -11.646  0.00  0.00    +0.023 A 
ATOM     25  C   UNL     1      -4.721   2.453 -12.546  0.00  0.00    +0.041 A 
ATOM     26  C   UNL     1      -3.834   3.421 -12.109  0.00  0.00    +0.023 A 
ATOM     27  C   UNL     1      -3.498   3.498 -10.772  0.00  0.00    +0.048 A 
ATOM     28 CL   UNL     1      -5.147   2.363 -14.226  0.00  0.00    -0.084 Cl
ENDBRANCH  21  22
ENDBRANCH  20  21
ENDBRANCH  11  15
BRANCH   1  30
ATOM     29  N   UNL     1      -4.151  -0.007  -0.714  0.00  0.00    -0.310 N 
ATOM     30  C   UNL     1      -3.349   0.736  -1.502  0.00  0.00    +0.218 C 
ATOM     31  O   UNL     1      -2.217   0.989  -1.148  0.00  0.00    -0.275 OA
ATOM     32  H   UNL     1      -5.056  -0.210  -0.997  0.00  0.00    +0.149 HD
BRANCH  29  33
ATOM     33  C   UNL     1      -3.655  -0.509   0.570  0.00  0.00    +0.098 C 
BRANCH  33  35
ATOM     34  C   UNL     1      -1.652  -1.557  -0.492  0.00  0.00    +0.006 C 
ATOM     35  C   UNL     1      -2.902  -1.822   0.349  0.00  0.00    +0.021 C 
ENDBRANCH  33  35
BRANCH  33  36
ATOM     36  C   UNL     1      -4.836  -0.751   1.513  0.00  0.00    +0.181 C 
BRANCH  36  37
ATOM     37  O   UNL     1      -5.657  -1.797   0.990  0.00  0.00    -0.381 OA
ATOM     38  C   UNL     1      -6.794  -2.103   1.799  0.00  0.00    +0.194 C 
ENDBRANCH  36  37
ENDBRANCH  33  36
ENDBRANCH  29  33
ENDBRANCH   1  30
TORSDOF 8
