REMARK  Name = ZINC15047631
REMARK  7 active torsions:
REMARK  status: ('A' for Active; 'I' for Inactive)
REMARK    1  A    between atoms: C_1  and  C_2
REMARK    2  A    between atoms: C_2  and  C_4
REMARK    3  A    between atoms: C_2  and  N_17
REMARK    4  A    between atoms: N_6  and  C_7
REMARK    5  A    between atoms: C_10  and  S_13
REMARK    6  A    between atoms: S_13  and  N_16
REMARK    7  A    between atoms: C_21  and  C_22
REMARK                            x       y       z     vdW  Elec       q    Type
REMARK                         _______ _______ _______ _____ _____    ______ ____
ROOT
ATOM      1  C   UNL     1      -2.459  -0.946  -1.194  0.00  0.00    +0.038 C 
ATOM      2  C   UNL     1      -2.389   0.104  -0.084  0.00  0.00    +0.166 C 
ENDROOT
BRANCH   2   3
ATOM      3  N   UNL     1      -3.410   1.129  -0.315  0.00  0.00    -0.244 N 
ATOM      4  C   UNL     1      -4.346   1.326   0.598  0.00  0.00    +0.259 C 
ATOM      5  O   UNL     1      -4.382   0.678   1.628  0.00  0.00    -0.269 OA
ATOM      6  C   UNL     1      -5.343   2.377   0.307  0.00  0.00    +0.077 C 
ATOM      7  C   UNL     1      -6.399   2.796   1.049  0.00  0.00    +0.031 C 
ATOM      8  S   UNL     1      -4.780   2.938  -1.294  0.00  0.00    -0.061 S 
ATOM      9  C   UNL     1      -3.378   1.845  -1.457  0.00  0.00    +0.121 C 
ATOM     10  S   UNL     1      -2.261   1.735  -2.750  0.00  0.00    -0.027 S 
BRANCH   7  11
ATOM     11  C   UNL     1      -7.382   3.722   0.470  0.00  0.00    +0.011 A 
ATOM     12  C   UNL     1      -7.477   3.870  -0.919  0.00  0.00    +0.011 A 
ATOM     13  C   UNL     1      -8.405   4.737  -1.454  0.00  0.00    +0.001 A 
ATOM     14  C   UNL     1      -9.236   5.469  -0.623  0.00  0.00    +0.003 A 
ATOM     15  C   UNL     1      -9.148   5.334   0.750  0.00  0.00    +0.039 A 
ATOM     16  C   UNL     1      -8.226   4.466   1.305  0.00  0.00    +0.131 A 
ATOM     17  F   UNL     1      -8.140   4.336   2.647  0.00  0.00    -0.205 F 
ENDBRANCH   7  11
ENDBRANCH   2   3
BRANCH   2  18
ATOM     18  C   UNL     1      -1.025   0.746  -0.084  0.00  0.00    +0.238 C 
ATOM     19  O   UNL     1      -0.917   1.941  -0.260  0.00  0.00    -0.273 OA
ATOM     20  N   UNL     1       0.075  -0.009   0.111  0.00  0.00    -0.284 N 
ATOM     21  H   UNL     1      -0.005  -0.973   0.178  0.00  0.00    +0.155 HD
BRANCH  20  22
ATOM     22  C   UNL     1       1.331   0.599   0.212  0.00  0.00    +0.034 A 
ATOM     23  C   UNL     1       2.454  -0.037  -0.301  0.00  0.00    +0.025 A 
ATOM     24  C   UNL     1       3.692   0.568  -0.204  0.00  0.00    +0.030 A 
ATOM     25  C   UNL     1       3.816   1.800   0.412  0.00  0.00    +0.105 A 
ATOM     26  C   UNL     1       2.700   2.433   0.928  0.00  0.00    +0.030 A 
ATOM     27  C   UNL     1       1.458   1.836   0.830  0.00  0.00    +0.025 A 
BRANCH  25  28
ATOM     28  S   UNL     1       5.398   2.564   0.539  0.00  0.00    +0.056 S 
ATOM     29  O   UNL     1       6.197   2.022  -0.504  0.00  0.00    -0.153 OA
ATOM     30  O   UNL     1       5.165   3.960   0.674  0.00  0.00    -0.153 OA
BRANCH  28  31
ATOM     31  N   UNL     1       6.073   2.058   1.964  0.00  0.00    -0.204 NA
ATOM     32  H   UNL     1       7.037   1.982   2.045  0.00  0.00    +0.144 HD
ATOM     33  H   UNL     1       5.505   1.837   2.719  0.00  0.00    +0.144 HD
ENDBRANCH  28  31
ENDBRANCH  25  28
ENDBRANCH  20  22
ENDBRANCH   2  18
TORSDOF 6
