REMARK  Name = ZINC57510573
REMARK  6 active torsions:
REMARK  status: ('A' for Active; 'I' for Inactive)
REMARK    1  A    between atoms: C_1  and  C_2
REMARK    2  A    between atoms: C_2  and  N_3
REMARK    3  A    between atoms: C_15  and  C_23
REMARK    4  A    between atoms: C_17  and  C_21
REMARK    5  A    between atoms: C_18  and  N_20
REMARK    6  A    between atoms: C_26  and  C_29
REMARK                            x       y       z     vdW  Elec       q    Type
REMARK                         _______ _______ _______ _____ _____    ______ ____
ROOT
ATOM      1  N   UNL     1      -1.372  -0.511   0.012  0.00  0.00    -0.203 N 
ATOM      2  C   UNL     1      -2.085  -0.668   1.207  0.00  0.00    +0.062 A 
ATOM      3  C   UNL     1      -1.383  -0.968   2.368  0.00  0.00    +0.025 A 
ATOM      4  C   UNL     1      -2.057  -1.136   3.562  0.00  0.00    +0.002 A 
ATOM      5  C   UNL     1      -3.435  -1.008   3.604  0.00  0.00    +0.001 A 
ATOM      6  C   UNL     1      -4.142  -0.708   2.461  0.00  0.00    +0.013 A 
ATOM      7  C   UNL     1      -3.473  -0.530   1.243  0.00  0.00    +0.042 A 
ATOM      8  C   UNL     1      -4.286  -0.191   0.050  0.00  0.00    +0.162 C 
ATOM      9  C   UNL     1      -3.808  -0.328  -1.183  0.00  0.00    +0.141 C 
ATOM     10  S   UNL     1      -2.159  -0.921  -1.397  0.00  0.00    +0.075 S 
ATOM     11  O   UNL     1      -2.233  -2.339  -1.434  0.00  0.00    -0.150 OA
ATOM     12  O   UNL     1      -1.573  -0.152  -2.438  0.00  0.00    -0.150 OA
ATOM     13  C   UNL     1      -4.630   0.014  -2.394  0.00  0.00    +0.118 C 
ATOM     14  C   UNL     1      -5.792   0.886  -2.003  0.00  0.00    +0.099 C 
ATOM     15  C   UNL     1      -6.182   0.963  -0.705  0.00  0.00    +0.199 C 
ATOM     16  O   UNL     1      -5.551   0.267   0.254  0.00  0.00    -0.439 OA
ENDROOT
BRANCH  13  17
ATOM     17  C   UNL     1      -5.151  -1.254  -3.019  0.00  0.00    -0.033 A 
ATOM     18  C   UNL     1      -5.968  -2.099  -2.291  0.00  0.00    +0.005 A 
ATOM     19  C   UNL     1      -6.445  -3.263  -2.864  0.00  0.00    +0.012 A 
ATOM     20  C   UNL     1      -6.105  -3.582  -4.165  0.00  0.00    +0.055 A 
ATOM     21  C   UNL     1      -5.288  -2.737  -4.893  0.00  0.00    +0.012 A 
ATOM     22  C   UNL     1      -4.815  -1.571  -4.322  0.00  0.00    +0.005 A 
BRANCH  20  23
ATOM     23  C   UNL     1      -6.625  -4.851  -4.790  0.00  0.00    +0.417 C 
ATOM     24  F   UNL     1      -7.847  -4.595  -5.420  0.00  0.00    -0.166 F 
ATOM     25  F   UNL     1      -5.703  -5.318  -5.733  0.00  0.00    -0.166 F 
ATOM     26  F   UNL     1      -6.806  -5.820  -3.796  0.00  0.00    -0.166 F 
ENDBRANCH  20  23
ENDBRANCH  13  17
BRANCH  15  27
ATOM     27  N   UNL     1      -7.242   1.766  -0.367  0.00  0.00    -0.328 N 
ATOM     28  H   UNL     1      -7.705   2.273  -1.052  0.00  0.00    +0.145 HD
ATOM     29  H   UNL     1      -7.528   1.827   0.558  0.00  0.00    +0.145 HD
ENDBRANCH  15  27
BRANCH   1  31
ATOM     30  C   UNL     1      -0.019   1.526   0.010  0.00  0.00    +0.026 C 
ATOM     31  C   UNL     1       0.002  -0.004   0.002  0.00  0.00    +0.128 C 
ENDBRANCH   1  31
BRANCH  14  32
ATOM     32  C   UNL     1      -6.488   1.639  -3.003  0.00  0.00    +0.101 C 
ATOM     33  N   UNL     1      -7.040   2.236  -3.796  0.00  0.00    -0.191 NA
ENDBRANCH  14  32
TORSDOF 5
