REMARK  Name = ZINC34670421
REMARK  5 active torsions:
REMARK  status: ('A' for Active; 'I' for Inactive)
REMARK    1  A    between atoms: C_1  and  C_2
REMARK    2  A    between atoms: N_7  and  C_8
REMARK    3  A    between atoms: C_8  and  C_9
REMARK    4  A    between atoms: N_11  and  C_12
REMARK    5  A    between atoms: C_17  and  N_18
REMARK                            x       y       z     vdW  Elec       q    Type
REMARK                         _______ _______ _______ _____ _____    ______ ____
ROOT
ATOM      1  C   UNL     1      -1.393   0.181   2.914  0.00  0.00    +0.237 C 
ATOM      2  O   UNL     1      -2.316  -0.205   2.229  0.00  0.00    -0.274 OA
ATOM      3  N   UNL     1      -1.636   0.792   4.091  0.00  0.00    -0.282 N 
ATOM      4  H   UNL     1      -0.900   1.029   4.676  0.00  0.00    +0.155 HD
ENDROOT
BRANCH   3   5
ATOM      5  C   UNL     1      -2.953   1.087   4.468  0.00  0.00    +0.056 A 
ATOM      6  C   UNL     1      -3.935   1.243   3.501  0.00  0.00    +0.045 A 
ATOM      7  C   UNL     1      -5.235   1.534   3.876  0.00  0.00    +0.043 A 
ATOM      8  C   UNL     1      -5.559   1.669   5.215  0.00  0.00    +0.022 A 
ATOM      9  C   UNL     1      -4.586   1.515   6.184  0.00  0.00    +0.026 A 
ATOM     10  C   UNL     1      -3.281   1.218   5.817  0.00  0.00    +0.046 A 
ATOM     11 CL   UNL     1      -6.462   1.729   2.664  0.00  0.00    -0.083 Cl
BRANCH  10  12
ATOM     12  N   UNL     1      -2.296   1.055   6.798  0.00  0.00    -0.357 N 
ATOM     13  H   UNL     1      -1.384   0.851   6.539  0.00  0.00    +0.142 HD
ATOM     14  H   UNL     1      -2.526   1.146   7.736  0.00  0.00    +0.142 HD
ENDBRANCH  10  12
ENDBRANCH   3   5
BRANCH   1  15
ATOM     15  C   UNL     1       0.026  -0.024   2.451  0.00  0.00    +0.221 C 
BRANCH  15  22
ATOM     16  C   UNL     1      -0.038   1.519   0.005  0.00  0.00    +0.064 C 
ATOM     17  C   UNL     1      -0.007   0.013  -0.005  0.00  0.00    +0.027 A 
ATOM     18  C   UNL     1      -0.002  -0.676  -1.149  0.00  0.00    +0.071 A 
ATOM     19  S   UNL     1       0.038  -2.360  -0.564  0.00  0.00    -0.035 S 
ATOM     20  C   UNL     1       0.045  -2.053   1.090  0.00  0.00    +0.291 A 
ATOM     21  O   UNL     1       0.069  -2.854   2.007  0.00  0.00    -0.259 OA
ATOM     22  N   UNL     1       0.023  -0.706   1.154  0.00  0.00    -0.298 N 
ENDBRANCH  15  22
ENDBRANCH   1  15
TORSDOF 4
