REMARK  Name = ZINC32906587
REMARK  5 active torsions:
REMARK  status: ('A' for Active; 'I' for Inactive)
REMARK    1  A    between atoms: C_9  and  C_18
REMARK    2  A    between atoms: C_18  and  N_19
REMARK    3  A    between atoms: C_20  and  C_22
REMARK    4  A    between atoms: C_22  and  C_23
REMARK    5  A    between atoms: C_23  and  C_24
REMARK                            x       y       z     vdW  Elec       q    Type
REMARK                         _______ _______ _______ _____ _____    ______ ____
ROOT
ATOM      1  C   UNL     1       0.224  -3.312  -3.609  0.00  0.00    +0.000 A 
ATOM      2  C   UNL     1       0.865  -3.714  -2.452  0.00  0.00    +0.000 A 
ATOM      3  C   UNL     1       0.373  -3.337  -1.208  0.00  0.00    +0.004 A 
ATOM      4  C   UNL     1      -0.750  -2.563  -1.151  0.00  0.00    -0.036 A 
ATOM      5  C   UNL     1      -1.396  -2.158  -2.318  0.00  0.00    -0.036 A 
ATOM      6  C   UNL     1      -0.919  -2.525  -3.544  0.00  0.00    +0.004 A 
ATOM      7  C   UNL     1      -2.630  -1.300  -2.087  0.00  0.00    +0.050 C 
ATOM      8  C   UNL     1      -2.140  -0.089  -1.265  0.00  0.00    +0.018 C 
ATOM      9  C   UNL     1      -1.433  -0.534   0.013  0.00  0.00    +0.019 C 
ATOM     10  C   UNL     1      -1.403  -2.073   0.132  0.00  0.00    +0.054 C 
ATOM     11  C   UNL     1      -2.855  -2.513   0.030  0.00  0.00    -0.036 A 
ATOM     12  C   UNL     1      -3.500  -2.107  -1.136  0.00  0.00    -0.036 A 
ATOM     13  C   UNL     1      -4.808  -2.431  -1.360  0.00  0.00    +0.004 A 
ATOM     14  C   UNL     1      -5.486  -3.175  -0.403  0.00  0.00    +0.000 A 
ATOM     15  C   UNL     1      -4.846  -3.579   0.754  0.00  0.00    +0.000 A 
ATOM     16  C   UNL     1      -3.516  -3.245   0.975  0.00  0.00    +0.004 A 
ENDROOT
BRANCH   9  17
ATOM     17  C   UNL     1       0.002  -0.004   0.002  0.00  0.00    +0.108 C 
BRANCH  17  18
ATOM     18  N   UNL     1      -0.018   1.461   0.010  0.00  0.00    -0.315 N 
ATOM     19  C   UNL     1       1.140   2.151   0.003  0.00  0.00    +0.213 C 
ATOM     20  O   UNL     1       2.199   1.558  -0.011  0.00  0.00    -0.276 OA
ATOM     21  H   UNL     1      -0.978   1.998   0.022  0.00  0.00    +0.149 HD
BRANCH  19  22
ATOM     22  C   UNL     1       1.120   3.657   0.011  0.00  0.00    +0.098 C 
BRANCH  22  23
ATOM     23  C   UNL     1       2.555   4.187   0.000  0.00  0.00    +0.041 C 
BRANCH  23  24
ATOM     24  C   UNL     1       2.534   5.717   0.009  0.00  0.00    +0.161 C 
ATOM     25  C   UNL     1       3.946   6.269   0.034  0.00  0.00    +0.241 C 
ATOM     26  O   UNL     1       4.782   6.102   0.896  0.00  0.00    -0.273 OA
ATOM     27  N   UNL     1       4.074   6.985  -1.104  0.00  0.00    -0.239 N 
ATOM     28  C   UNL     1       2.952   6.963  -1.832  0.00  0.00    +0.307 C 
ATOM     29  O   UNL     1       2.825   7.536  -2.896  0.00  0.00    -0.252 OA
ATOM     30  N   UNL     1       1.979   6.234  -1.254  0.00  0.00    -0.288 N 
ATOM     31  H   UNL     1       5.023   7.495  -1.329  0.00  0.00    +0.159 HD
ATOM     32  H   UNL     1       0.946   5.990  -1.542  0.00  0.00    +0.151 HD
ENDBRANCH  23  24
ENDBRANCH  22  23
ENDBRANCH  19  22
ENDBRANCH  17  18
ENDBRANCH   9  17
TORSDOF 5
