REMARK  Name = ZINC50466536
REMARK  4 active torsions:
REMARK  status: ('A' for Active; 'I' for Inactive)
REMARK    1  A    between atoms: C_1  and  C_2
REMARK    2  A    between atoms: C_7  and  N_8
REMARK    3  A    between atoms: C_9  and  C_11
REMARK    4  A    between atoms: C_11  and  N_12
REMARK                            x       y       z     vdW  Elec       q    Type
REMARK                         _______ _______ _______ _____ _____    ______ ____
ROOT
ATOM      1  N   UNL     1       0.025  -0.014   2.417  0.00  0.00    -0.284 N 
ATOM      2  C   UNL     1      -0.056  -0.694   3.578  0.00  0.00    +0.239 C 
ATOM      3  O   UNL     1      -0.040  -1.906   3.574  0.00  0.00    -0.273 OA
ATOM      4  H   UNL     1       0.078   0.954   2.425  0.00  0.00    +0.155 HD
ENDROOT
BRANCH   1  11
ATOM      5  C   UNL     1      -1.264   1.184   0.181  0.00  0.00    +0.045 C 
ATOM      6  C   UNL     1      -0.584  -0.158   0.084  0.00  0.00    -0.029 A 
ATOM      7  C   UNL     1      -0.569  -0.840  -1.117  0.00  0.00    +0.006 A 
ATOM      8  C   UNL     1       0.055  -2.070  -1.207  0.00  0.00    +0.015 A 
ATOM      9  C   UNL     1       0.667  -2.622  -0.095  0.00  0.00    +0.020 A 
ATOM     10  C   UNL     1       0.655  -1.944   1.109  0.00  0.00    +0.038 A 
ATOM     11  C   UNL     1       0.034  -0.706   1.201  0.00  0.00    +0.037 A 
ATOM     12 BR   UNL     1       1.518  -4.306  -0.223  0.00  0.00    -0.050 Br
ENDBRANCH   1  11
BRANCH   2  13
ATOM     13  C   UNL     1      -0.168   0.053   4.882  0.00  0.00    +0.239 C 
BRANCH  13  14
ATOM     14  N   UNL     1      -0.241  -0.904   5.989  0.00  0.00    -0.261 N 
ATOM     15  C   UNL     1       0.569  -0.932   7.067  0.00  0.00    +0.111 A 
ATOM     16  C   UNL     1       0.177  -1.960   7.854  0.00  0.00    +0.064 A 
ATOM     17  C   UNL     1      -0.917  -2.585   7.233  0.00  0.00    +0.138 A 
ATOM     18  N   UNL     1      -1.169  -1.945   6.115  0.00  0.00    -0.156 NA
ATOM     19  N   UNL     1      -1.618  -3.693   7.723  0.00  0.00    -0.342 N 
ATOM     20  H   UNL     1      -1.358  -4.098   8.565  0.00  0.00    +0.144 HD
ATOM     21  H   UNL     1      -2.364  -4.056   7.220  0.00  0.00    +0.144 HD
ENDBRANCH  13  14
ENDBRANCH   2  13
TORSDOF 3
