REMARK  Name = ZINC39532135
REMARK  12 active torsions:
REMARK  status: ('A' for Active; 'I' for Inactive)
REMARK    1  A    between atoms: C_1  and  C_2
REMARK    2  A    between atoms: C_2  and  C_3
REMARK    3  A    between atoms: C_6  and  C_9
REMARK    4  A    between atoms: C_9  and  C_11
REMARK    5  A    between atoms: C_9  and  N_19
REMARK    6  A    between atoms: C_11  and  N_12
REMARK    7  A    between atoms: N_12  and  S_13
REMARK    8  A    between atoms: S_13  and  C_16
REMARK    9  A    between atoms: C_16  and  C_17
REMARK   10  A    between atoms: C_16  and  C_18
REMARK   11  A    between atoms: C_23  and  C_26
REMARK   12  A    between atoms: C_31  and  O_32
REMARK                            x       y       z     vdW  Elec       q    Type
REMARK                         _______ _______ _______ _____ _____    ______ ____
ROOT
ATOM      1  C   UNL     1       2.797  -1.919   4.683  0.00  0.00    +0.102 C 
ENDROOT
BRANCH   1   2
ATOM      2  N   UNL     1       2.340  -1.176   5.865  0.00  0.00    -0.297 NA
ATOM      3  C   UNL     1       0.915  -1.423   6.124  0.00  0.00    +0.066 C 
ATOM      4  C   UNL     1       0.494  -0.680   7.394  0.00  0.00    -0.066 C 
ATOM      5  N   UNL     1       0.736   0.759   7.223  0.00  0.00    +0.385 N 
ATOM      6  C   UNL     1       2.167   0.992   6.990  0.00  0.00    -0.023 C 
ATOM      7  C   UNL     1       2.602   0.263   5.717  0.00  0.00    +0.074 C 
ATOM      8  H   UNL     1       0.207   1.097   6.433  0.00  0.00    -0.085 HD
ATOM      9  H   UNL     1       0.447   1.250   8.056  0.00  0.00    -0.085 HD
BRANCH   6  10
ATOM     10  C   UNL     1       2.417   2.470   6.833  0.00  0.00    -0.019 A 
ATOM     11  C   UNL     1       1.373   3.317   6.511  0.00  0.00    +0.005 A 
ATOM     12  C   UNL     1       1.601   4.672   6.366  0.00  0.00    +0.000 A 
ATOM     13  C   UNL     1       2.874   5.185   6.543  0.00  0.00    +0.004 A 
ATOM     14  C   UNL     1       3.920   4.342   6.865  0.00  0.00    +0.045 A 
ATOM     15  C   UNL     1       3.692   2.982   7.017  0.00  0.00    +0.118 A 
BRANCH  15  16
ATOM     16  O   UNL     1       4.719   2.152   7.339  0.00  0.00    -0.507 OA
ATOM     17  H   UNL     1       5.188   1.791   6.575  0.00  0.00    +0.292 HD
ENDBRANCH  15  16
ENDBRANCH   6  10
ENDBRANCH   1   2
BRANCH   1  21
ATOM     18  C   UNL     1       0.471  -0.765   1.292  0.00  0.00    -0.048 A 
ATOM     19  C   UNL     1      -0.098  -1.531   2.292  0.00  0.00    +0.004 A 
ATOM     20  C   UNL     1       0.654  -1.905   3.389  0.00  0.00    +0.005 A 
ATOM     21  C   UNL     1       1.976  -1.512   3.486  0.00  0.00    -0.029 A 
ATOM     22  C   UNL     1       2.546  -0.747   2.486  0.00  0.00    +0.005 A 
ATOM     23  C   UNL     1       1.794  -0.377   1.386  0.00  0.00    +0.004 A 
BRANCH  18  25
ATOM     24  C   UNL     1      -0.226  -1.424  -0.995  0.00  0.00    +0.009 C 
ATOM     25  C   UNL     1      -0.350  -0.358   0.095  0.00  0.00    +0.032 C 
ENDBRANCH  18  25
ENDBRANCH   1  21
BRANCH   1  26
ATOM     26  C   UNL     1       2.631  -3.420   4.929  0.00  0.00    +0.129 C 
BRANCH  26  27
ATOM     27  N   UNL     1       3.332  -3.793   6.161  0.00  0.00    -0.192 NA
ATOM     28  H   UNL     1       3.974  -3.184   6.557  0.00  0.00    +0.148 HD
BRANCH  27  29
ATOM     29  S   UNL     1       3.026  -5.255   6.877  0.00  0.00    +0.032 S 
ATOM     30  O   UNL     1       3.846  -5.268   8.038  0.00  0.00    -0.158 OA
ATOM     31  O   UNL     1       1.611  -5.314   6.989  0.00  0.00    -0.158 OA
BRANCH  29  32
ATOM     32  C   UNL     1       3.611  -6.490   5.684  0.00  0.00    +0.142 C 
ATOM     33  C   UNL     1       5.106  -6.286   5.430  0.00  0.00    +0.033 C 
ATOM     34  C   UNL     1       3.376  -7.893   6.246  0.00  0.00    +0.033 C 
ENDBRANCH  29  32
ENDBRANCH  27  29
ENDBRANCH  26  27
ENDBRANCH   1  26
TORSDOF 9
