REMARK  Name = ZINC48380177
REMARK  8 active torsions:
REMARK  status: ('A' for Active; 'I' for Inactive)
REMARK    1  A    between atoms: C_1  and  C_2
REMARK    2  A    between atoms: C_2  and  C_4
REMARK    3  A    between atoms: C_2  and  S_11
REMARK    4  A    between atoms: N_9  and  C_10
REMARK    5  A    between atoms: S_11  and  C_12
REMARK    6  A    between atoms: C_13  and  C_20
REMARK    7  A    between atoms: C_14  and  N_19
REMARK    8  A    between atoms: C_16  and  N_18
REMARK                            x       y       z     vdW  Elec       q    Type
REMARK                         _______ _______ _______ _____ _____    ______ ____
ROOT
ATOM      1  C   UNL     1      -2.365  -0.093  -1.525  0.00  0.00    +0.119 A 
ATOM      2  C   UNL     1      -3.695  -0.404  -1.858  0.00  0.00    +0.104 A 
ATOM      3  C   UNL     1      -4.206   0.038  -3.097  0.00  0.00    +0.048 A 
ATOM      4  C   UNL     1      -3.367   0.762  -3.935  0.00  0.00    +0.067 A 
ATOM      5  C   UNL     1      -2.065   1.027  -3.532  0.00  0.00    +0.119 A 
ATOM      6  N   UNL     1      -1.609   0.605  -2.359  0.00  0.00    -0.225 NA
ENDROOT
BRANCH   5   7
ATOM      7  N   UNL     1      -1.227   1.749  -4.367  0.00  0.00    -0.343 N 
ATOM      8  H   UNL     1      -1.552   2.065  -5.225  0.00  0.00    +0.144 HD
ATOM      9  H   UNL     1      -0.316   1.939  -4.094  0.00  0.00    +0.144 HD
ENDBRANCH   5   7
BRANCH   3  10
ATOM     10  N   UNL     1      -5.512  -0.244  -3.468  0.00  0.00    -0.357 N 
ATOM     11  H   UNL     1      -6.087  -0.751  -2.874  0.00  0.00    +0.142 HD
ATOM     12  H   UNL     1      -5.851   0.065  -4.323  0.00  0.00    +0.142 HD
ENDBRANCH   3  10
BRANCH   2  13
ATOM     13  C   UNL     1      -4.516  -1.154  -0.956  0.00  0.00    +0.104 C 
ATOM     14  N   UNL     1      -5.167  -1.750  -0.241  0.00  0.00    -0.191 NA
ENDBRANCH   2  13
BRANCH   1  15
ATOM     15  S   UNL     1      -1.700  -0.632   0.015  0.00  0.00    -0.092 S 
BRANCH  15  17
ATOM     16  C   UNL     1      -0.019   1.526   0.010  0.00  0.00    +0.029 C 
ATOM     17  C   UNL     1       0.002  -0.004   0.002  0.00  0.00    +0.136 C 
BRANCH  17  18
ATOM     18  C   UNL     1       0.731  -0.503   1.223  0.00  0.00    +0.233 C 
ATOM     19  O   UNL     1       0.105  -0.891   2.186  0.00  0.00    -0.274 OA
ATOM     20  N   UNL     1       2.079  -0.519   1.244  0.00  0.00    -0.239 N 
ATOM     21  C   UNL     1       2.730  -0.965   2.336  0.00  0.00    +0.306 C 
ATOM     22  O   UNL     1       2.103  -1.354   3.301  0.00  0.00    -0.252 OA
ATOM     23  N   UNL     1       4.078  -0.981   2.357  0.00  0.00    -0.302 N 
ATOM     24  C   UNL     1       4.786  -1.466   3.544  0.00  0.00    +0.129 C 
ATOM     25  H   UNL     1       2.579  -0.208   0.473  0.00  0.00    +0.159 HD
ATOM     26  H   UNL     1       4.579  -0.670   1.586  0.00  0.00    +0.150 HD
ENDBRANCH  17  18
ENDBRANCH  15  17
ENDBRANCH   1  15
TORSDOF 6
