REMARK  Name = ZINC37175511
REMARK  5 active torsions:
REMARK  status: ('A' for Active; 'I' for Inactive)
REMARK    1  A    between atoms: C_1  and  C_2
REMARK    2  A    between atoms: C_5  and  O_18
REMARK    3  A    between atoms: C_6  and  C_8
REMARK    4  A    between atoms: N_10  and  C_11
REMARK    5  A    between atoms: N_10  and  C_12
REMARK                            x       y       z     vdW  Elec       q    Type
REMARK                         _______ _______ _______ _____ _____    ______ ____
ROOT
ATOM      1  C   UNL     1      -1.964   0.850  -0.249  0.00  0.00    +0.044 C 
ATOM      2  C   UNL     1      -1.020  -0.318  -0.117  0.00  0.00    -0.050 A 
ATOM      3  C   UNL     1      -0.227  -0.688  -1.191  0.00  0.00    +0.007 A 
ATOM      4  C   UNL     1       0.641  -1.756  -1.083  0.00  0.00    +0.046 A 
ATOM      5  C   UNL     1       0.725  -2.466   0.106  0.00  0.00    +0.129 A 
ATOM      6  C   UNL     1      -0.075  -2.094   1.195  0.00  0.00    +0.078 A 
ATOM      7  C   UNL     1      -0.946  -1.008   1.073  0.00  0.00    +0.020 A 
ENDROOT
BRANCH   6   8
ATOM      8  C   UNL     1       0.006  -2.841   2.464  0.00  0.00    +0.250 C 
ATOM      9  O   UNL     1      -0.059  -4.056   2.460  0.00  0.00    -0.270 OA
ATOM     10  N   UNL     1       0.152  -2.178   3.628  0.00  0.00    -0.297 N 
ATOM     11  C   UNL     1       0.133  -0.714   3.645  0.00  0.00    +0.132 C 
BRANCH  10  12
ATOM     12  C   UNL     1       0.331  -2.922   4.878  0.00  0.00    +0.087 C 
ATOM     13  C   UNL     1      -0.847  -2.616   5.803  0.00  0.00    +0.034 C 
ATOM     14  C   UNL     1      -0.414  -2.755   7.289  0.00  0.00    +0.071 C 
ATOM     15  S   UNL     1       1.273  -2.010   7.189  0.00  0.00    -0.159 S 
ATOM     16  C   UNL     1       1.697  -2.549   5.484  0.00  0.00    +0.091 C 
ENDBRANCH  10  12
ENDBRANCH   6   8
BRANCH   5  17
ATOM     17  O   UNL     1       1.577  -3.516   0.214  0.00  0.00    -0.506 OA
ATOM     18  H   UNL     1       2.460  -3.275   0.525  0.00  0.00    +0.292 HD
ENDBRANCH   5  17
TORSDOF 3
