REMARK  Name = ZINC41569018
REMARK  2 active torsions:
REMARK  status: ('A' for Active; 'I' for Inactive)
REMARK    1  A    between atoms: C_1  and  N_2
REMARK    2  A    between atoms: C_7  and  N_12
REMARK                            x       y       z     vdW  Elec       q    Type
REMARK                         _______ _______ _______ _____ _____    ______ ____
ROOT
ATOM      1  C   UNL     1      -0.018   1.461   0.010  0.00  0.00    +0.156 C 
ATOM      2  N   UNL     1       0.002  -0.004   0.002  0.00  0.00    -0.277 N 
ATOM      3  C   UNL     1      -1.111  -0.844   0.003  0.00  0.00    +0.093 A 
ATOM      4  C   UNL     1      -2.479  -0.611   0.011  0.00  0.00    +0.045 A 
ATOM      5  C   UNL     1      -3.361  -1.675   0.010  0.00  0.00    +0.022 A 
ATOM      6  C   UNL     1      -2.884  -2.974  -0.000  0.00  0.00    +0.041 A 
ATOM      7  C   UNL     1      -1.519  -3.217  -0.009  0.00  0.00    +0.071 A 
ATOM      8  C   UNL     1      -0.626  -2.149  -0.008  0.00  0.00    +0.178 A 
ATOM      9  O   UNL     1       0.729  -2.076  -0.014  0.00  0.00    -0.406 OA
ATOM     10  C   UNL     1       1.100  -0.786  -0.013  0.00  0.00    +0.421 A 
ATOM     11  O   UNL     1       2.248  -0.385  -0.022  0.00  0.00    -0.223 OA
ATOM     12 BR   UNL     1      -5.225  -1.354   0.023  0.00  0.00    -0.050 Br
ENDROOT
BRANCH   7  13
ATOM     13  N   UNL     1      -1.040  -4.531  -0.019  0.00  0.00    -0.355 N 
ATOM     14  H   UNL     1      -1.663  -5.275  -0.020  0.00  0.00    +0.142 HD
ATOM     15  H   UNL     1      -0.085  -4.699  -0.025  0.00  0.00    +0.142 HD
ENDBRANCH   7  13
TORSDOF 1
