REMARK  Name = ZINC00241316
REMARK  0 active torsions:
REMARK  status: ('A' for Active; 'I' for Inactive)
REMARK                            x       y       z     vdW  Elec       q    Type
REMARK                         _______ _______ _______ _____ _____    ______ ____
ROOT
ATOM      1  C   UNL     1      -0.017   1.374   0.010  0.00  0.00    +0.002 A 
ATOM      2  C   UNL     1       1.168   2.089   0.002  0.00  0.00    +0.002 A 
ATOM      3  C   UNL     1       2.376   1.416  -0.018  0.00  0.00    +0.029 A 
ATOM      4  C   UNL     1       2.399   0.037  -0.026  0.00  0.00    +0.115 A 
ATOM      5  C   UNL     1       1.216  -0.691  -0.012  0.00  0.00    +0.057 A 
ATOM      6  C   UNL     1       0.002  -0.004   0.002  0.00  0.00    +0.025 A 
ATOM      7  N   UNL     1       1.206  -2.077   0.001  0.00  0.00    -0.312 N 
ATOM      8  C   UNL     1       2.227  -2.914  -0.421  0.00  0.00    +0.057 A 
ATOM      9  C   UNL     1       1.923  -4.227  -0.780  0.00  0.00    +0.025 A 
ATOM     10  C   UNL     1       2.920  -5.084  -1.194  0.00  0.00    +0.002 A 
ATOM     11  C   UNL     1       4.232  -4.649  -1.258  0.00  0.00    +0.002 A 
ATOM     12  C   UNL     1       4.542  -3.348  -0.907  0.00  0.00    +0.029 A 
ATOM     13  C   UNL     1       3.547  -2.487  -0.494  0.00  0.00    +0.115 A 
ATOM     14  S   UNL     1       3.940  -0.823  -0.059  0.00  0.00    +0.029 S 
ATOM     15  O   UNL     1       4.425  -0.850   1.277  0.00  0.00    -0.164 OA
ATOM     16  O   UNL     1       4.691  -0.281  -1.137  0.00  0.00    -0.164 OA
ATOM     17  H   UNL     1       0.403  -2.504   0.339  0.00  0.00    +0.152 HD
ENDROOT
TORSDOF 0
