REMARK  Name = ZINC04357076
REMARK  8 active torsions:
REMARK  status: ('A' for Active; 'I' for Inactive)
REMARK    1  A    between atoms: C_1  and  C_2
REMARK    2  A    between atoms: C_2  and  C_10
REMARK    3  A    between atoms: C_3  and  C_4
REMARK    4  A    between atoms: N_14  and  C_18
REMARK    5  A    between atoms: C_18  and  C_20
REMARK    6  A    between atoms: C_18  and  C_24
REMARK    7  A    between atoms: C_20  and  C_21
REMARK    8  A    between atoms: C_21  and  C_22
REMARK                            x       y       z     vdW  Elec       q    Type
REMARK                         _______ _______ _______ _____ _____    ______ ____
ROOT
ATOM      1  C   UNL     1      -0.035  -0.839   1.278  0.00  0.00    +0.023 C 
ATOM      2  C   UNL     1       0.109  -0.211   2.481  0.00  0.00    +0.077 C 
ATOM      3  C   UNL     1      -0.146  -0.717   3.842  0.00  0.00    +0.259 C 
ATOM      4  O   UNL     1      -0.547  -1.849   4.038  0.00  0.00    -0.269 OA
ATOM      5  N   UNL     1       0.083   0.121   4.840  0.00  0.00    -0.241 N 
ATOM      6  C   UNL     1       0.528   1.375   4.618  0.00  0.00    +0.121 C 
ATOM      7  S   UNL     1       0.881   2.596   5.765  0.00  0.00    -0.027 S 
ATOM      8  S   UNL     1       0.667   1.450   2.840  0.00  0.00    -0.061 S 
ENDROOT
BRANCH   1  10
ATOM      9  C   UNL     1       1.143   1.104   0.174  0.00  0.00    +0.044 C 
ATOM     10  C   UNL     1       0.415  -0.214   0.098  0.00  0.00    -0.049 C 
ATOM     11  C   UNL     1       0.195  -0.797  -1.103  0.00  0.00    +0.011 C 
BRANCH  11  12
ATOM     12  C   UNL     1       0.498  -0.065  -2.342  0.00  0.00    -0.025 A 
ATOM     13  C   UNL     1       0.301   1.319  -2.408  0.00  0.00    +0.008 A 
ATOM     14  C   UNL     1       0.592   1.998  -3.572  0.00  0.00    +0.001 A 
ATOM     15  C   UNL     1       1.069   1.313  -4.677  0.00  0.00    +0.000 A 
ATOM     16  C   UNL     1       1.261  -0.057  -4.621  0.00  0.00    +0.001 A 
ATOM     17  C   UNL     1       0.980  -0.750  -3.463  0.00  0.00    +0.008 A 
ENDBRANCH  11  12
ENDBRANCH   1  10
BRANCH   5  18
ATOM     18  C   UNL     1      -0.151  -0.324   6.216  0.00  0.00    +0.196 C 
BRANCH  18  19
ATOM     19  C   UNL     1       1.135  -0.239   6.997  0.00  0.00    +0.376 C 
ATOM     20  O   UNL     1       2.144   0.152   6.459  0.00  0.00    -0.244 OA
ATOM     21  O   UNL     1       1.160  -0.598   8.290  0.00  0.00    -0.244 OA
ENDBRANCH  18  19
BRANCH  18  22
ATOM     22  C   UNL     1      -1.204   0.574   6.869  0.00  0.00    +0.046 C 
BRANCH  22  23
ATOM     23  C   UNL     1      -2.544   0.393   6.152  0.00  0.00    +0.127 C 
BRANCH  23  24
ATOM     24  C   UNL     1      -3.581   1.277   6.795  0.00  0.00    +0.356 C 
ATOM     25  O   UNL     1      -3.280   1.979   7.731  0.00  0.00    -0.246 OA
ATOM     26  O   UNL     1      -4.840   1.284   6.328  0.00  0.00    -0.246 OA
ENDBRANCH  23  24
ENDBRANCH  22  23
ENDBRANCH  18  22
ENDBRANCH   5  18
TORSDOF 7
