REMARK  Name = ZINC39672314
REMARK  5 active torsions:
REMARK  status: ('A' for Active; 'I' for Inactive)
REMARK    1  A    between atoms: C_1  and  N_2
REMARK    2  A    between atoms: C_10  and  C_12
REMARK    3  A    between atoms: C_12  and  N_13
REMARK    4  A    between atoms: C_14  and  C_16
REMARK    5  A    between atoms: C_27  and  C_29
REMARK                            x       y       z     vdW  Elec       q    Type
REMARK                         _______ _______ _______ _____ _____    ______ ____
ROOT
ATOM      1  C   UNL     1       7.121  -2.818   2.419  0.00  0.00    +0.100 C 
ATOM      2  C   UNL     1       7.253  -1.318   2.768  0.00  0.00    +0.121 C 
ATOM      3  N   UNL     1       8.531  -1.217   3.510  0.00  0.00    -0.300 N 
ATOM      4  C   UNL     1       9.444  -2.145   2.799  0.00  0.00    +0.115 C 
ATOM      5  C   UNL     1       8.561  -3.356   2.441  0.00  0.00    -0.004 C 
ATOM      6  C   UNL     1       8.703  -4.445   3.500  0.00  0.00    -0.010 C 
ATOM      7  C   UNL     1      10.128  -5.004   3.463  0.00  0.00    -0.082 C 
ATOM      8  N   UNL     1      10.406  -5.552   2.130  0.00  0.00    +0.379 N 
ATOM      9  C   UNL     1      10.359  -4.480   1.128  0.00  0.00    -0.082 C 
ATOM     10  C   UNL     1       8.944  -3.898   1.067  0.00  0.00    -0.010 C 
ATOM     11  C   UNL     1       8.803  -0.455   4.588  0.00  0.00    +0.219 C 
ATOM     12  O   UNL     1       9.908  -0.482   5.086  0.00  0.00    -0.275 OA
ATOM     13  H   UNL     1      11.323  -5.974   2.126  0.00  0.00    -0.086 HD
ATOM     14  H   UNL     1       9.716  -6.252   1.905  0.00  0.00    -0.086 HD
ENDROOT
BRANCH  11  15
ATOM     15  C   UNL     1       7.734   0.431   5.173  0.00  0.00    +0.079 C 
ATOM     16  C   UNL     1       7.276   1.445   4.120  0.00  0.00    +0.041 C 
ATOM     17  C   UNL     1       6.248   2.391   4.746  0.00  0.00    +0.160 C 
ATOM     18  O   UNL     1       6.826   3.037   5.882  0.00  0.00    -0.380 OA
ATOM     19  C   UNL     1       7.230   2.141   6.920  0.00  0.00    +0.160 C 
ATOM     20  C   UNL     1       8.298   1.186   6.380  0.00  0.00    +0.041 C 
ENDBRANCH  11  15
BRANCH   1  22
ATOM     21  N   UNL     1       5.814  -4.098   0.754  0.00  0.00    -0.311 N 
ATOM     22  C   UNL     1       6.518  -2.987   1.049  0.00  0.00    +0.218 C 
ATOM     23  O   UNL     1       6.665  -2.123   0.210  0.00  0.00    -0.275 OA
ATOM     24  H   UNL     1       5.696  -4.789   1.425  0.00  0.00    +0.149 HD
BRANCH  21  25
ATOM     25  C   UNL     1       5.228  -4.262  -0.578  0.00  0.00    +0.139 C 
BRANCH  25  35
ATOM     26  C   UNL     1       1.159  -9.349  -0.191  0.00  0.00    +0.129 C 
ATOM     27  N   UNL     1       2.472  -9.214  -0.825  0.00  0.00    -0.333 N 
ATOM     28  C   UNL     1       3.080 -10.349  -1.532  0.00  0.00    +0.105 C 
ATOM     29  C   UNL     1       4.554 -10.428  -1.114  0.00  0.00    +0.024 C 
ATOM     30  C   UNL     1       5.265  -9.154  -1.572  0.00  0.00    +0.038 C 
ATOM     31  C   UNL     1       4.509  -7.935  -1.115  0.00  0.00    -0.026 A 
ATOM     32  C   UNL     1       3.166  -8.000  -0.772  0.00  0.00    +0.033 A 
ATOM     33  C   UNL     1       2.494  -6.853  -0.364  0.00  0.00    +0.024 A 
ATOM     34  C   UNL     1       3.161  -5.646  -0.303  0.00  0.00    +0.007 A 
ATOM     35  C   UNL     1       4.499  -5.580  -0.647  0.00  0.00    -0.030 A 
ATOM     36  C   UNL     1       5.173  -6.722  -1.044  0.00  0.00    +0.010 A 
ENDBRANCH  25  35
ENDBRANCH  21  25
ENDBRANCH   1  22
TORSDOF 4
