REMARK  Name = ZINC21813150
REMARK  4 active torsions:
REMARK  status: ('A' for Active; 'I' for Inactive)
REMARK    1  A    between atoms: C_4  and  N_20
REMARK    2  A    between atoms: C_6  and  S_7
REMARK    3  A    between atoms: S_7  and  N_10
REMARK    4  A    between atoms: N_10  and  C_11
REMARK                            x       y       z     vdW  Elec       q    Type
REMARK                         _______ _______ _______ _____ _____    ______ ____
ROOT
ATOM      1  S   UNL     1      -0.017   1.417   0.010  0.00  0.00    +0.059 S 
ATOM      2  O   UNL     1       0.002  -0.004   0.002  0.00  0.00    -0.153 OA
ATOM      3  O   UNL     1       1.172   2.195   0.003  0.00  0.00    -0.153 OA
ENDROOT
BRANCH   1   9
ATOM      4  C   UNL     1      -0.758   3.168  -1.947  0.00  0.00    +0.031 A 
ATOM      5  C   UNL     1      -1.491   3.564  -3.052  0.00  0.00    +0.042 A 
ATOM      6  C   UNL     1      -2.422   2.708  -3.608  0.00  0.00    +0.144 A 
ATOM      7  C   UNL     1      -2.621   1.446  -3.056  0.00  0.00    +0.062 A 
ATOM      8  C   UNL     1      -1.879   1.051  -1.951  0.00  0.00    +0.054 A 
ATOM      9  C   UNL     1      -0.954   1.915  -1.397  0.00  0.00    +0.107 A 
ATOM     10  F   UNL     1      -3.139   3.095  -4.686  0.00  0.00    -0.204 F 
BRANCH   7  11
ATOM     11  N   UNL     1      -3.562   0.576  -3.615  0.00  0.00    -0.356 N 
ATOM     12  H   UNL     1      -3.718  -0.421  -3.178  0.00  0.00    +0.142 HD
ATOM     13  H   UNL     1      -4.146   0.889  -4.493  0.00  0.00    +0.142 HD
ENDBRANCH   7  11
ENDBRANCH   1   9
BRANCH   1  14
ATOM     14  N   UNL     1      -0.872   1.871   1.353  0.00  0.00    -0.188 NA
ATOM     15  H   UNL     1      -0.535   2.742   1.936  0.00  0.00    +0.148 HD
BRANCH  14  16
ATOM     16  C   UNL     1      -2.174   1.261   1.634  0.00  0.00    +0.063 C 
ATOM     17  C   UNL     1      -3.288   2.151   1.075  0.00  0.00    -0.058 C 
ATOM     18  N   UNL     1      -4.167   2.579   2.172  0.00  0.00    +0.381 N 
ATOM     19  C   UNL     1      -3.428   3.380   3.157  0.00  0.00    -0.078 C 
ATOM     20  C   UNL     1      -2.317   2.526   3.775  0.00  0.00    -0.014 C 
ATOM     21  C   UNL     1      -2.363   1.126   3.150  0.00  0.00    +0.002 C 
ATOM     22  C   UNL     1      -3.743   0.515   3.419  0.00  0.00    -0.014 C 
ATOM     23  C   UNL     1      -4.814   1.425   2.811  0.00  0.00    -0.078 C 
ATOM     24  H   UNL     1      -4.955   3.214   1.742  0.00  0.00    -0.082 HD
ENDBRANCH  14  16
ENDBRANCH   1  14
TORSDOF 4
