REMARK  Name = ZINC43769443
REMARK  8 active torsions:
REMARK  status: ('A' for Active; 'I' for Inactive)
REMARK    1  A    between atoms: C_1  and  C_2
REMARK    2  A    between atoms: C_7  and  C_39
REMARK    3  A    between atoms: C_12  and  O_26
REMARK    4  A    between atoms: C_14  and  C_16
REMARK    5  A    between atoms: C_16  and  C_17
REMARK    6  A    between atoms: C_22  and  O_25
REMARK    7  A    between atoms: C_29  and  C_32
REMARK    8  A    between atoms: C_32  and  C_33
REMARK                            x       y       z     vdW  Elec       q    Type
REMARK                         _______ _______ _______ _____ _____    ______ ____
ROOT
ATOM      1  C   UNL     1       0.171   1.526  -0.010  0.00  0.00    +0.012 C 
ATOM      2  C   UNL     1       0.162  -0.018  -0.008  0.00  0.00    -0.023 C 
ATOM      3  C   UNL     1      -1.288  -0.490   0.008  0.00  0.00    +0.010 C 
ATOM      4  C   UNL     1      -1.965  -0.040   1.305  0.00  0.00    +0.033 C 
ATOM      5  C   UNL     1      -1.264  -0.694   2.496  0.00  0.00    +0.130 C 
ATOM      6  C   UNL     1       0.213  -0.332   2.538  0.00  0.00    +0.021 C 
ATOM      7  C   UNL     1       0.916  -0.552   1.200  0.00  0.00    +0.006 C 
ATOM      8  C   UNL     1       1.196  -2.052   1.055  0.00  0.00    +0.007 C 
ATOM      9  C   UNL     1       1.975  -2.341  -0.225  0.00  0.00    +0.032 C 
ATOM     10  C   UNL     1       1.134  -1.901  -1.425  0.00  0.00    +0.119 C 
ATOM     11  C   UNL     1       0.859  -0.411  -1.313  0.00  0.00    +0.032 C 
ATOM     12  C   UNL     1       0.909  -1.199   3.607  0.00  0.00    +0.172 C 
ATOM     13  O   UNL     1       0.556  -2.566   3.496  0.00  0.00    -0.350 OA
ATOM     14  C   UNL     1      -0.831  -2.874   3.442  0.00  0.00    +0.255 C 
ATOM     15  O   UNL     1      -1.459  -2.103   2.425  0.00  0.00    -0.347 OA
ATOM     16  C   UNL     1       0.371   1.125   3.014  0.00  0.00    +0.016 C 
ENDROOT
BRANCH  10  17
ATOM     17  O   UNL     1      -0.076  -2.651  -1.482  0.00  0.00    -0.391 OA
ATOM     18  H   UNL     1       0.056  -3.604  -1.570  0.00  0.00    +0.210 HD
ENDBRANCH  10  17
BRANCH  11  19
ATOM     19  C   UNL     1       0.052   0.068  -2.521  0.00  0.00    +0.102 C 
BRANCH  19  20
ATOM     20  C   UNL     1       0.820  -0.223  -3.785  0.00  0.00    +0.216 C 
ATOM     21  O   UNL     1       1.905  -0.760  -3.725  0.00  0.00    -0.276 OA
ATOM     22  N   UNL     1       0.300   0.114  -4.982  0.00  0.00    -0.299 N 
ATOM     23  C   UNL     1      -1.000   0.775  -5.199  0.00  0.00    +0.110 C 
ATOM     24  C   UNL     1      -0.861   1.482  -6.570  0.00  0.00    +0.052 C 
ATOM     25  C   UNL     1      -0.010   0.457  -7.364  0.00  0.00    +0.133 C 
ATOM     26  C   UNL     1       0.939  -0.110  -6.287  0.00  0.00    +0.139 C 
BRANCH  25  27
ATOM     27  O   UNL     1       0.731   1.109  -8.398  0.00  0.00    -0.390 OA
ATOM     28  H   UNL     1       0.180   1.550  -9.059  0.00  0.00    +0.210 HD
ENDBRANCH  25  27
ENDBRANCH  19  20
ENDBRANCH  11  19
BRANCH  14  29
ATOM     29  C   UNL     1      -1.490  -2.622   4.798  0.00  0.00    +0.096 C 
BRANCH  29  30
ATOM     30  C   UNL     1      -0.922  -3.576   5.817  0.00  0.00    -0.043 A 
ATOM     31  C   UNL     1      -1.513  -4.811   6.012  0.00  0.00    +0.004 A 
ATOM     32  C   UNL     1      -0.992  -5.686   6.947  0.00  0.00    +0.000 A 
ATOM     33  C   UNL     1       0.120  -5.327   7.686  0.00  0.00    +0.000 A 
ATOM     34  C   UNL     1       0.711  -4.093   7.490  0.00  0.00    +0.000 A 
ATOM     35  C   UNL     1       0.193  -3.220   6.552  0.00  0.00    +0.004 A 
ENDBRANCH  29  30
ENDBRANCH  14  29
TORSDOF 6
