REMARK  Name = ZINC37358772
REMARK  6 active torsions:
REMARK  status: ('A' for Active; 'I' for Inactive)
REMARK    1  A    between atoms: C_5  and  C_7
REMARK    2  A    between atoms: C_7  and  C_8
REMARK    3  A    between atoms: C_8  and  N_9
REMARK    4  A    between atoms: C_12  and  C_27
REMARK    5  A    between atoms: C_14  and  N_26
REMARK    6  A    between atoms: N_15  and  C_19
REMARK                            x       y       z     vdW  Elec       q    Type
REMARK                         _______ _______ _______ _____ _____    ______ ____
ROOT
ATOM      1  N   UNL     1       2.668  -4.140  -0.981  0.00  0.00    -0.313 N 
ATOM      2  C   UNL     1       3.132  -4.799  -2.105  0.00  0.00    +0.218 A 
ATOM      3  N   UNL     1       3.157  -6.127  -2.088  0.00  0.00    -0.213 NA
ATOM      4  C   UNL     1       3.587  -6.840  -3.126  0.00  0.00    +0.095 A 
ATOM      5  C   UNL     1       4.030  -6.144  -4.278  0.00  0.00    +0.087 A 
ATOM      6  C   UNL     1       4.534  -6.500  -5.521  0.00  0.00    +0.131 A 
ATOM      7  N   UNL     1       4.778  -5.362  -6.201  0.00  0.00    -0.216 N 
ATOM      8  N   UNL     1       4.437  -4.256  -5.414  0.00  0.00    -0.144 NA
ATOM      9  C   UNL     1       3.984  -4.672  -4.252  0.00  0.00    +0.189 A 
ATOM     10  N   UNL     1       3.520  -4.075  -3.136  0.00  0.00    -0.193 NA
ATOM     11  H   UNL     1       2.376  -4.647  -0.207  0.00  0.00    +0.149 HD
ENDROOT
BRANCH   7  12
ATOM     12  C   UNL     1       5.295  -5.296  -7.500  0.00  0.00    +0.070 A 
ATOM     13  C   UNL     1       6.226  -6.234  -7.927  0.00  0.00    +0.028 A 
ATOM     14  C   UNL     1       6.734  -6.168  -9.209  0.00  0.00    +0.005 A 
ATOM     15  C   UNL     1       6.319  -5.168 -10.069  0.00  0.00    +0.038 A 
ATOM     16  C   UNL     1       5.391  -4.230  -9.648  0.00  0.00    +0.125 A 
ATOM     17  C   UNL     1       4.874  -4.295  -8.366  0.00  0.00    +0.066 A 
ATOM     18  F   UNL     1       4.987  -3.254 -10.490  0.00  0.00    -0.205 F 
ENDBRANCH   7  12
BRANCH   4  19
ATOM     19  C   UNL     1       3.604  -8.309  -3.078  0.00  0.00    +0.038 A 
ATOM     20  C   UNL     1       4.600  -9.184  -3.478  0.00  0.00    +0.017 A 
ATOM     21  C   UNL     1       4.324 -10.522  -3.308  0.00  0.00    +0.008 A 
ATOM     22  C   UNL     1       3.132 -10.886  -2.777  0.00  0.00    +0.046 A 
ATOM     23  S   UNL     1       2.350  -9.429  -2.484  0.00  0.00    -0.095 S 
ENDBRANCH   4  19
BRANCH   6  24
ATOM     24  N   UNL     1       4.747  -7.787  -5.979  0.00  0.00    -0.342 N 
ATOM     25  H   UNL     1       4.430  -8.544  -5.462  0.00  0.00    +0.144 HD
ATOM     26  H   UNL     1       5.214  -7.933  -6.816  0.00  0.00    +0.144 HD
ENDBRANCH   6  24
BRANCH   1  27
ATOM     27  C   UNL     1       2.618  -2.676  -0.959  0.00  0.00    +0.110 C 
BRANCH  27  28
ATOM     28  C   UNL     1       2.070  -2.204   0.390  0.00  0.00    +0.074 C 
BRANCH  28  33
ATOM     29  C   UNL     1       0.790   1.326   0.718  0.00  0.00    +0.003 A 
ATOM     30  C   UNL     1       1.958   2.021   0.444  0.00  0.00    +0.020 A 
ATOM     31  C   UNL     1       3.112   1.314   0.165  0.00  0.00    +0.111 A 
ATOM     32  N   UNL     1       3.111  -0.005   0.156  0.00  0.00    -0.260 NA
ATOM     33  C   UNL     1       2.018  -0.698   0.412  0.00  0.00    +0.043 A 
ATOM     34  C   UNL     1       0.827  -0.060   0.700  0.00  0.00    +0.023 A 
ENDBRANCH  28  33
ENDBRANCH  27  28
ENDBRANCH   1  27
TORSDOF 6
