REMARK  Name = ZINC43418807
REMARK  10 active torsions:
REMARK  status: ('A' for Active; 'I' for Inactive)
REMARK    1  A    between atoms: C_1  and  C_2
REMARK    2  A    between atoms: C_2  and  C_3
REMARK    3  A    between atoms: C_2  and  C_4
REMARK    4  A    between atoms: C_4  and  N_5
REMARK    5  A    between atoms: N_5  and  C_6
REMARK    6  A    between atoms: N_5  and  C_12
REMARK    7  A    between atoms: C_6  and  C_7
REMARK    8  A    between atoms: C_7  and  C_8
REMARK    9  A    between atoms: N_9  and  O_10
REMARK   10  A    between atoms: C_12  and  C_13
REMARK                            x       y       z     vdW  Elec       q    Type
REMARK                         _______ _______ _______ _____ _____    ______ ____
ROOT
ATOM      1  N   UNL     1      -0.138  -0.190   2.397  0.00  0.00    +0.383 N 
ATOM      2  H   UNL     1      -0.509   0.748   2.414  0.00  0.00    -0.081 HD
ENDROOT
BRANCH   1   3
ATOM      3  C   UNL     1       0.640  -0.387   1.167  0.00  0.00    -0.075 C 
BRANCH   3   5
ATOM      4  C   UNL     1      -0.539   1.467  -0.023  0.00  0.00    +0.005 C 
ATOM      5  C   UNL     1      -0.224  -0.030  -0.045  0.00  0.00    -0.034 C 
ATOM      6  C   UNL     1       0.533  -0.373  -1.330  0.00  0.00    +0.005 C 
ENDBRANCH   3   5
ENDBRANCH   1   3
BRANCH   1   7
ATOM      7  C   UNL     1       0.732  -0.393   3.564  0.00  0.00    -0.071 C 
BRANCH   7   8
ATOM      8  C   UNL     1       1.812   0.690   3.589  0.00  0.00    +0.056 C 
BRANCH   8   9
ATOM      9  C   UNL     1       2.704   0.482   4.786  0.00  0.00    +0.130 C 
ATOM     10  N   UNL     1       2.484  -0.502   5.593  0.00  0.00    -0.077 NA
ATOM     11  N   UNL     1       3.755   1.341   5.019  0.00  0.00    -0.344 N 
ATOM     12  H   UNL     1       3.921   2.080   4.413  0.00  0.00    +0.143 HD
ATOM     13  H   UNL     1       4.330   1.207   5.789  0.00  0.00    +0.143 HD
BRANCH  10  14
ATOM     14  O   UNL     1       3.322  -0.698   6.717  0.00  0.00    -0.408 OA
ATOM     15  H   UNL     1       3.079  -1.459   7.261  0.00  0.00    +0.328 HD
ENDBRANCH  10  14
ENDBRANCH   8   9
ENDBRANCH   7   8
ENDBRANCH   1   7
BRANCH   1  16
ATOM     16  C   UNL     1      -1.244  -1.156   2.438  0.00  0.00    -0.042 C 
BRANCH  16  17
ATOM     17  C   UNL     1      -2.096  -0.894   3.652  0.00  0.00    -0.047 A 
ATOM     18  C   UNL     1      -1.941  -1.670   4.786  0.00  0.00    +0.041 A 
ATOM     19  C   UNL     1      -2.724  -1.429   5.902  0.00  0.00    +0.124 A 
ATOM     20  C   UNL     1      -3.662  -0.410   5.882  0.00  0.00    +0.039 A 
ATOM     21  C   UNL     1      -3.816   0.365   4.748  0.00  0.00    +0.018 A 
ATOM     22  C   UNL     1      -3.029   0.127   3.635  0.00  0.00    +0.019 A 
ATOM     23 BR   UNL     1      -3.235   1.193   2.087  0.00  0.00    -0.050 Br
ATOM     24  F   UNL     1      -2.573  -2.187   7.010  0.00  0.00    -0.205 F 
ENDBRANCH  16  17
ENDBRANCH   1  16
TORSDOF 8
