REMARK  Name = ZINC50631721
REMARK  5 active torsions:
REMARK  status: ('A' for Active; 'I' for Inactive)
REMARK    1  A    between atoms: C_1  and  N_2
REMARK    2  A    between atoms: N_2  and  C_3
REMARK    3  A    between atoms: C_8  and  S_9
REMARK    4  A    between atoms: S_9  and  N_12
REMARK    5  A    between atoms: N_12  and  C_13
REMARK                            x       y       z     vdW  Elec       q    Type
REMARK                         _______ _______ _______ _____ _____    ______ ____
ROOT
ATOM      1  S   UNL     1      -0.133  -2.870   0.482  0.00  0.00    +0.074 S 
ATOM      2  O   UNL     1      -1.375  -2.223   0.724  0.00  0.00    -0.150 OA
ATOM      3  O   UNL     1      -0.033  -4.272   0.272  0.00  0.00    -0.150 OA
ENDROOT
BRANCH   1   9
ATOM      4  C   UNL     1       1.824  -2.484  -1.390  0.00  0.00    +0.054 A 
ATOM      5  C   UNL     1       2.372  -1.876  -2.513  0.00  0.00    +0.025 A 
ATOM      6  C   UNL     1       1.670  -0.886  -3.171  0.00  0.00    +0.002 A 
ATOM      7  C   UNL     1       0.423  -0.499  -2.714  0.00  0.00    +0.002 A 
ATOM      8  C   UNL     1      -0.125  -1.102  -1.597  0.00  0.00    +0.031 A 
ATOM      9  C   UNL     1       0.569  -2.097  -0.937  0.00  0.00    +0.129 A 
BRANCH   4  11
ATOM     10  C   UNL     1       3.896  -3.821  -1.136  0.00  0.00    +0.125 C 
ATOM     11  N   UNL     1       2.531  -3.487  -0.722  0.00  0.00    -0.345 N 
ATOM     12  H   UNL     1       2.118  -3.962   0.016  0.00  0.00    +0.146 HD
ENDBRANCH   4  11
ENDBRANCH   1   9
BRANCH   1  13
ATOM     13  N   UNL     1       0.846  -2.513   1.769  0.00  0.00    -0.216 N 
ATOM     14  H   UNL     1       1.351  -3.218   2.204  0.00  0.00    +0.174 HD
BRANCH  13  15
ATOM     15  C   UNL     1       0.944  -1.195   2.229  0.00  0.00    +0.052 A 
ATOM     16  C   UNL     1       1.097  -0.154   1.324  0.00  0.00    +0.028 A 
ATOM     17  C   UNL     1       1.194   1.148   1.777  0.00  0.00    +0.051 A 
ATOM     18  C   UNL     1       1.138   1.418   3.134  0.00  0.00    +0.166 A 
ATOM     19  C   UNL     1       0.984   0.376   4.045  0.00  0.00    +0.168 A 
ATOM     20  C   UNL     1       0.882  -0.929   3.590  0.00  0.00    +0.074 A 
ATOM     21  O   UNL     1       0.958   0.898   5.306  0.00  0.00    -0.453 OA
ATOM     22  C   UNL     1       1.507   2.223   5.185  0.00  0.00    +0.466 C 
ATOM     23  O   UNL     1       1.209   2.594   3.826  0.00  0.00    -0.453 OA
ENDBRANCH  13  15
ENDBRANCH   1  13
TORSDOF 4
