REMARK  Name = ZINC39277002
REMARK  6 active torsions:
REMARK  status: ('A' for Active; 'I' for Inactive)
REMARK    1  A    between atoms: C_1  and  C_2
REMARK    2  A    between atoms: C_6  and  C_7
REMARK    3  A    between atoms: C_7  and  C_9
REMARK    4  A    between atoms: C_7  and  C_16
REMARK    5  A    between atoms: C_17  and  C_23
REMARK    6  A    between atoms: C_20  and  O_22
REMARK                            x       y       z     vdW  Elec       q    Type
REMARK                         _______ _______ _______ _____ _____    ______ ____
ROOT
ATOM      1  C   UNL     1       0.025  -0.160   2.489  0.00  0.00    +0.089 C 
ENDROOT
BRANCH   1   7
ATOM      2  C   UNL     1      -2.339  -1.302   0.716  0.00  0.00    +0.068 C 
ATOM      3  C   UNL     1      -0.876  -1.318   0.355  0.00  0.00    +0.068 A 
ATOM      4  N   UNL     1      -0.364  -1.800  -0.748  0.00  0.00    -0.176 NA
ATOM      5  N   UNL     1       1.025  -1.625  -0.703  0.00  0.00    -0.243 N 
ATOM      6  C   UNL     1       1.330  -1.021   0.467  0.00  0.00    +0.271 A 
ATOM      7  C   UNL     1       0.167  -0.813   1.139  0.00  0.00    +0.052 A 
ATOM      8  O   UNL     1       2.573  -0.677   0.891  0.00  0.00    -0.266 OA
ATOM      9  H   UNL     1       1.657  -1.892  -1.389  0.00  0.00    +0.192 HD
ENDBRANCH   1   7
BRANCH   1  10
ATOM     10  C   UNL     1      -1.072  -0.841   3.265  0.00  0.00    -0.022 A 
ATOM     11  C   UNL     1      -1.014  -2.204   3.492  0.00  0.00    +0.005 A 
ATOM     12  C   UNL     1      -2.021  -2.829   4.204  0.00  0.00    +0.000 A 
ATOM     13  C   UNL     1      -3.086  -2.092   4.689  0.00  0.00    +0.001 A 
ATOM     14  C   UNL     1      -3.144  -0.730   4.462  0.00  0.00    +0.014 A 
ATOM     15  C   UNL     1      -2.134  -0.103   3.755  0.00  0.00    +0.017 A 
ATOM     16  I   UNL     1      -2.217   1.963   3.418  0.00  0.00    -0.044 I 
ENDBRANCH   1  10
BRANCH   1  17
ATOM     17  C   UNL     1       1.324  -0.281   3.244  0.00  0.00    +0.017 C 
ATOM     18  C   UNL     1       2.163   0.695   3.598  0.00  0.00    +0.065 C 
ATOM     19  N   UNL     1       3.226   0.195   4.267  0.00  0.00    -0.156 NA
ATOM     20  N   UNL     1       3.209  -1.030   4.412  0.00  0.00    -0.151 NA
ATOM     21  C   UNL     1       1.979  -1.540   3.783  0.00  0.00    +0.284 C 
ATOM     22  C   UNL     1       1.954   2.156   3.295  0.00  0.00    +0.067 C 
BRANCH  21  23
ATOM     23  O   UNL     1       2.293  -2.442   2.720  0.00  0.00    -0.366 OA
ATOM     24  H   UNL     1       2.714  -3.262   3.012  0.00  0.00    +0.212 HD
ENDBRANCH  21  23
ENDBRANCH   1  17
TORSDOF 4
