REMARK  Name = ZINC36743535
REMARK  5 active torsions:
REMARK  status: ('A' for Active; 'I' for Inactive)
REMARK    1  A    between atoms: C_1  and  C_2
REMARK    2  A    between atoms: C_6  and  N_17
REMARK    3  A    between atoms: C_7  and  N_8
REMARK    4  A    between atoms: N_8  and  S_9
REMARK    5  A    between atoms: S_9  and  N_12
REMARK                            x       y       z     vdW  Elec       q    Type
REMARK                         _______ _______ _______ _____ _____    ______ ____
ROOT
ATOM      1  C   UNL     1       2.804  -0.355   1.115  0.00  0.00    +0.046 C 
ATOM      2  C   UNL     1       1.549  -0.914   0.498  0.00  0.00    -0.025 A 
ATOM      3  C   UNL     1       1.519  -1.223  -0.850  0.00  0.00    +0.020 A 
ATOM      4  C   UNL     1       0.368  -1.736  -1.421  0.00  0.00    +0.020 A 
ATOM      5  C   UNL     1      -0.759  -1.944  -0.646  0.00  0.00    +0.040 A 
ATOM      6  C   UNL     1      -0.737  -1.638   0.706  0.00  0.00    +0.049 A 
ATOM      7  C   UNL     1       0.425  -1.125   1.282  0.00  0.00    +0.073 A 
ATOM      8 BR   UNL     1       0.336  -2.154  -3.264  0.00  0.00    -0.050 Br
ENDROOT
BRANCH   6   9
ATOM      9  N   UNL     1      -1.877  -1.848   1.492  0.00  0.00    -0.356 N 
ATOM     10  H   UNL     1      -2.580  -2.437   1.179  0.00  0.00    +0.142 HD
ATOM     11  H   UNL     1      -1.962  -1.404   2.350  0.00  0.00    +0.142 HD
ENDBRANCH   6   9
BRANCH   7  12
ATOM     12  N   UNL     1       0.456  -0.819   2.649  0.00  0.00    -0.204 N 
ATOM     13  H   UNL     1       0.574   0.099   2.938  0.00  0.00    +0.175 HD
BRANCH  12  14
ATOM     14  S   UNL     1       0.290  -2.025   3.772  0.00  0.00    +0.112 S 
ATOM     15  O   UNL     1       0.443  -1.417   5.047  0.00  0.00    -0.138 OA
ATOM     16  O   UNL     1      -0.874  -2.758   3.412  0.00  0.00    -0.138 OA
BRANCH  14  17
ATOM     17  N   UNL     1       1.574  -3.052   3.580  0.00  0.00    -0.164 NA
ATOM     18  C   UNL     1       1.568  -4.295   2.794  0.00  0.00    +0.111 C 
ATOM     19  C   UNL     1       2.970  -4.927   2.926  0.00  0.00    +0.018 C 
ATOM     20  C   UNL     1       3.512  -4.300   4.237  0.00  0.00    +0.018 C 
ATOM     21  C   UNL     1       2.915  -2.870   4.165  0.00  0.00    +0.111 C 
ENDBRANCH  14  17
ENDBRANCH  12  14
ENDBRANCH   7  12
TORSDOF 4
