REMARK  Name = ZINC48498581
REMARK  3 active torsions:
REMARK  status: ('A' for Active; 'I' for Inactive)
REMARK    1  A    between atoms: C_1  and  N_2
REMARK    2  A    between atoms: C_3  and  C_5
REMARK    3  A    between atoms: N_7  and  C_8
REMARK                            x       y       z     vdW  Elec       q    Type
REMARK                         _______ _______ _______ _____ _____    ______ ____
ROOT
ATOM      1  C   UNL     1       0.607  -2.158  -1.025  0.00  0.00    +0.303 C 
ATOM      2  O   UNL     1       0.106  -2.776  -0.109  0.00  0.00    -0.265 OA
ATOM      3  N   UNL     1       1.188  -2.818  -2.046  0.00  0.00    -0.278 N 
ATOM      4  H   UNL     1       1.529  -2.327  -2.810  0.00  0.00    +0.155 HD
ENDROOT
BRANCH   3   5
ATOM      5  C   UNL     1       1.300  -4.210  -2.004  0.00  0.00    +0.037 A 
ATOM      6  C   UNL     1       2.417  -4.835  -2.544  0.00  0.00    +0.043 A 
ATOM      7  C   UNL     1       2.525  -6.213  -2.500  0.00  0.00    +0.044 A 
ATOM      8  C   UNL     1       1.522  -6.969  -1.919  0.00  0.00    +0.040 A 
ATOM      9  C   UNL     1       0.408  -6.349  -1.381  0.00  0.00    +0.044 A 
ATOM     10  C   UNL     1       0.297  -4.972  -1.417  0.00  0.00    +0.043 A 
ATOM     11 CL   UNL     1      -0.848  -7.301  -0.654  0.00  0.00    -0.083 Cl
ATOM     12 CL   UNL     1       3.921  -6.995  -3.175  0.00  0.00    -0.083 Cl
ENDBRANCH   3   5
BRANCH   1  15
ATOM     13  C   UNL     1      -0.029   1.461   0.003  0.00  0.00    +0.128 C 
ATOM     14  N   UNL     1      -0.002  -0.004  -0.001  0.00  0.00    -0.311 N 
ATOM     15  C   UNL     1       0.580  -0.664  -1.022  0.00  0.00    +0.299 C 
ATOM     16  O   UNL     1       1.080  -0.046  -1.938  0.00  0.00    -0.265 OA
ATOM     17  H   UNL     1      -0.402  -0.498   0.732  0.00  0.00    +0.149 HD
ENDBRANCH   1  15
TORSDOF 2
