REMARK  Name = ZINC20791014
REMARK  6 active torsions:
REMARK  status: ('A' for Active; 'I' for Inactive)
REMARK    1  A    between atoms: C_1  and  C_2
REMARK    2  A    between atoms: C_3  and  C_18
REMARK    3  A    between atoms: C_4  and  C_10
REMARK    4  A    between atoms: N_20  and  C_21
REMARK    5  A    between atoms: C_26  and  O_27
REMARK    6  A    between atoms: O_27  and  C_28
REMARK                            x       y       z     vdW  Elec       q    Type
REMARK                         _______ _______ _______ _____ _____    ______ ____
ROOT
ATOM      1  C   UNL     1       7.390  -0.167  -0.040  0.00  0.00    +0.061 C 
ATOM      2  C   UNL     1       7.373   1.339  -0.058  0.00  0.00    +0.017 C 
ATOM      3  C   UNL     1       6.191   1.991  -0.051  0.00  0.00    +0.056 C 
ATOM      4  C   UNL     1       6.220   3.506  -0.064  0.00  0.00    +0.141 C 
ATOM      5  N   UNL     1       7.545   4.147  -0.088  0.00  0.00    -0.315 N 
ATOM      6  C   UNL     1       8.639   3.360  -0.097  0.00  0.00    +0.135 C 
ATOM      7  S   UNL     1      10.187   4.092  -0.126  0.00  0.00    -0.019 S 
ATOM      8  N   UNL     1       8.555   2.024  -0.085  0.00  0.00    -0.300 N 
ATOM      9  H   UNL     1       7.625   5.245  -0.098  0.00  0.00    +0.149 HD
ATOM     10  H   UNL     1       9.508   1.475  -0.099  0.00  0.00    +0.154 HD
ENDROOT
BRANCH   4  11
ATOM     11  C   UNL     1       5.490   3.995   1.160  0.00  0.00    -0.003 A 
ATOM     12  C   UNL     1       6.181   4.201   2.340  0.00  0.00    +0.007 A 
ATOM     13  C   UNL     1       5.513   4.655   3.462  0.00  0.00    +0.002 A 
ATOM     14  C   UNL     1       4.152   4.892   3.409  0.00  0.00    +0.021 A 
ATOM     15  C   UNL     1       3.459   4.681   2.231  0.00  0.00    +0.060 A 
ATOM     16  C   UNL     1       4.129   4.232   1.105  0.00  0.00    +0.064 A 
ATOM     17 CL   UNL     1       3.260   3.966  -0.375  0.00  0.00    -0.082 Cl
ATOM     18 CL   UNL     1       1.750   4.979   2.163  0.00  0.00    -0.082 Cl
ENDBRANCH   4  11
BRANCH   3  19
ATOM     19  C   UNL     1       4.965   1.282  -0.028  0.00  0.00    +0.248 C 
ATOM     20  O   UNL     1       4.284   1.211  -1.034  0.00  0.00    -0.270 OA
ATOM     21  N   UNL     1       4.553   0.687   1.109  0.00  0.00    -0.279 N 
ATOM     22  H   UNL     1       5.158   0.769   2.024  0.00  0.00    +0.155 HD
BRANCH  21  23
ATOM     23  C   UNL     1       3.354  -0.038   1.125  0.00  0.00    +0.076 A 
ATOM     24  C   UNL     1       2.390   0.192   0.154  0.00  0.00    +0.027 A 
ATOM     25  C   UNL     1       1.208  -0.524   0.172  0.00  0.00    +0.002 A 
ATOM     26  C   UNL     1       0.984  -1.471   1.155  0.00  0.00    +0.004 A 
ATOM     27  C   UNL     1       1.940  -1.705   2.125  0.00  0.00    +0.047 A 
ATOM     28  C   UNL     1       3.127  -0.991   2.115  0.00  0.00    +0.141 A 
BRANCH  28  29
ATOM     29  O   UNL     1       4.069  -1.220   3.069  0.00  0.00    -0.493 OA
ATOM     30  C   UNL     1       3.768  -2.212   4.052  0.00  0.00    +0.277 C 
ENDBRANCH  28  29
ENDBRANCH  21  23
ENDBRANCH   3  19
TORSDOF 4
