REMARK  Name = ZINC42013707
REMARK  4 active torsions:
REMARK  status: ('A' for Active; 'I' for Inactive)
REMARK    1  A    between atoms: C_1  and  O_2
REMARK    2  A    between atoms: O_2  and  C_3
REMARK    3  A    between atoms: C_6  and  C_10
REMARK    4  A    between atoms: N_11  and  N_12
REMARK                            x       y       z     vdW  Elec       q    Type
REMARK                         _______ _______ _______ _____ _____    ______ ____
ROOT
ATOM      1  C   UNL     1       0.606  -0.607  -1.056  0.00  0.00    +0.134 A 
ATOM      2  C   UNL     1       1.172   0.164  -2.062  0.00  0.00    +0.047 A 
ATOM      3  C   UNL     1       1.785  -0.443  -3.136  0.00  0.00    +0.015 A 
ATOM      4  C   UNL     1       1.837  -1.837  -3.213  0.00  0.00    +0.015 A 
ATOM      5  C   UNL     1       1.266  -2.609  -2.200  0.00  0.00    +0.030 A 
ATOM      6  C   UNL     1       0.659  -1.994  -1.125  0.00  0.00    +0.060 A 
ATOM      7 BR   UNL     1      -0.107  -3.038   0.253  0.00  0.00    -0.046 Br
ENDROOT
BRANCH   4   8
ATOM      8  C   UNL     1       2.493  -2.492  -4.364  0.00  0.00    +0.113 C 
ATOM      9  N   UNL     1       2.081  -3.658  -4.770  0.00  0.00    -0.301 N 
ATOM     10  N   UNL     1       3.552  -1.860  -5.015  0.00  0.00    -0.343 N 
ATOM     11  H   UNL     1       3.859  -0.991  -4.713  0.00  0.00    +0.144 HD
ATOM     12  H   UNL     1       3.983  -2.290  -5.771  0.00  0.00    +0.144 HD
ATOM     13  H   UNL     1       1.344  -4.097  -4.317  0.00  0.00    +0.185 HD
BRANCH   9  14
ATOM     14  N   UNL     1       2.703  -4.279  -5.861  0.00  0.00    -0.304 N 
ATOM     15  H   UNL     1       3.440  -3.840  -6.314  0.00  0.00    +0.162 HD
ATOM     16  H   UNL     1       2.397  -5.149  -6.164  0.00  0.00    +0.162 HD
ENDBRANCH   9  14
ENDBRANCH   4   8
BRANCH   1  18
ATOM     17  C   UNL     1      -0.017   1.425   0.010  0.00  0.00    +0.277 C 
ATOM     18  O   UNL     1       0.002  -0.004   0.002  0.00  0.00    -0.494 OA
ENDBRANCH   1  18
TORSDOF 3
