REMARK  Name = ZINC39444771
REMARK  4 active torsions:
REMARK  status: ('A' for Active; 'I' for Inactive)
REMARK    1  A    between atoms: C_1  and  C_2
REMARK    2  A    between atoms: C_5  and  C_31
REMARK    3  A    between atoms: C_6  and  C_8
REMARK    4  A    between atoms: C_19  and  C_21
REMARK                            x       y       z     vdW  Elec       q    Type
REMARK                         _______ _______ _______ _____ _____    ______ ____
ROOT
ATOM      1  C   UNL     1      -0.258  -3.113   2.938  0.00  0.00    +0.218 C 
ATOM      2  N   UNL     1       0.453  -2.183   3.819  0.00  0.00    -0.360 N 
ATOM      3  C   UNL     1       1.574  -2.728   4.193  0.00  0.00    +0.060 C 
ATOM      4  C   UNL     1       2.655  -2.231   5.069  0.00  0.00    +0.029 C 
ATOM      5  C   UNL     1       3.728  -3.009   5.297  0.00  0.00    +0.025 C 
ATOM      6  C   UNL     1       3.826  -4.338   4.684  0.00  0.00    +0.035 C 
ATOM      7  C   UNL     1       2.806  -4.826   3.847  0.00  0.00    +0.050 C 
ATOM      8  C   UNL     1       1.703  -4.073   3.589  0.00  0.00    +0.075 C 
ATOM      9  N   UNL     1       0.583  -4.312   2.821  0.00  0.00    -0.220 NA
ATOM     10  N   UNL     1       4.900  -5.095   4.923  0.00  0.00    -0.285 N 
ATOM     11  C   UNL     1       5.814  -4.694   5.803  0.00  0.00    +0.223 C 
ATOM     12  O   UNL     1       5.486  -4.434   6.944  0.00  0.00    -0.275 OA
ATOM     13  H   UNL     1       5.014  -5.936   4.455  0.00  0.00    +0.155 HD
ATOM     14  H   UNL     1       0.139  -1.304   4.080  0.00  0.00    +0.162 HD
ENDROOT
BRANCH  11  15
ATOM     15  C   UNL     1       7.256  -4.563   5.386  0.00  0.00    +0.048 C 
ATOM     16  C   UNL     1       7.774  -5.921   4.907  0.00  0.00    +0.019 C 
ATOM     17  C   UNL     1       9.238  -5.788   4.483  0.00  0.00    -0.009 C 
ATOM     18  C   UNL     1      10.073  -5.315   5.675  0.00  0.00    +0.007 C 
ATOM     19  C   UNL     1       9.555  -3.957   6.153  0.00  0.00    -0.009 C 
ATOM     20  C   UNL     1       8.091  -4.090   6.577  0.00  0.00    +0.019 C 
ATOM     21  C   UNL     1       9.666  -2.939   5.016  0.00  0.00    +0.007 C 
ATOM     22  C   UNL     1       8.831  -3.413   3.824  0.00  0.00    -0.009 C 
ATOM     23  C   UNL     1       9.349  -4.771   3.346  0.00  0.00    +0.007 C 
ATOM     24  C   UNL     1       7.367  -3.546   4.248  0.00  0.00    +0.019 C 
ENDBRANCH  11  15
BRANCH   1  30
ATOM     25  C   UNL     1      -0.723   0.961   0.068  0.00  0.00    +0.044 C 
ATOM     26  C   UNL     1      -0.680  -0.539   0.208  0.00  0.00    -0.050 A 
ATOM     27  C   UNL     1      -0.824  -1.342  -0.908  0.00  0.00    +0.003 A 
ATOM     28  C   UNL     1      -0.785  -2.718  -0.780  0.00  0.00    +0.004 A 
ATOM     29  C   UNL     1      -0.602  -3.291   0.465  0.00  0.00    -0.044 A 
ATOM     30  C   UNL     1      -0.457  -2.489   1.581  0.00  0.00    -0.003 A 
ATOM     31  C   UNL     1      -0.492  -1.112   1.452  0.00  0.00    +0.011 A 
ATOM     32  C   UNL     1      -0.560  -4.791   0.605  0.00  0.00    +0.044 C 
ENDBRANCH   1  30
TORSDOF 2
