REMARK  Name = ZINC62531602
REMARK  5 active torsions:
REMARK  status: ('A' for Active; 'I' for Inactive)
REMARK    1  A    between atoms: C_1  and  C_2
REMARK    2  A    between atoms: C_3  and  C_17
REMARK    3  A    between atoms: C_6  and  C_9
REMARK    4  A    between atoms: C_7  and  N_8
REMARK    5  A    between atoms: N_15  and  C_16
REMARK                            x       y       z     vdW  Elec       q    Type
REMARK                         _______ _______ _______ _____ _____    ______ ____
ROOT
ATOM      1  C   UNL     1      -0.018   1.503   0.010  0.00  0.00    +0.046 C 
ATOM      2  C   UNL     1       0.002  -0.004   0.002  0.00  0.00    -0.025 A 
ATOM      3  C   UNL     1       0.006  -0.688  -1.200  0.00  0.00    -0.021 A 
ATOM      4  C   UNL     1       0.023  -2.073  -1.207  0.00  0.00    +0.082 A 
ATOM      5  C   UNL     1       0.035  -2.779  -0.005  0.00  0.00    +0.147 A 
ATOM      6  C   UNL     1       0.034  -2.093   1.197  0.00  0.00    +0.014 A 
ATOM      7  C   UNL     1       0.023  -0.704   1.201  0.00  0.00    +0.034 A 
ATOM      8  C   UNL     1       0.051  -2.852   2.499  0.00  0.00    +0.049 C 
ATOM      9  O   UNL     1       0.042  -4.138  -0.021  0.00  0.00    -0.489 OA
ATOM     10  C   UNL     1      -1.183  -4.791  -0.345  0.00  0.00    +0.238 C 
ATOM     11  C   UNL     1      -1.857  -4.105  -1.531  0.00  0.00    +0.137 C 
ATOM     12  C   UNL     1      -0.839  -3.798  -2.599  0.00  0.00    +0.223 C 
ATOM     13  O   UNL     1      -0.801  -4.461  -3.614  0.00  0.00    -0.275 OA
ATOM     14  N   UNL     1       0.032  -2.780  -2.420  0.00  0.00    -0.271 N 
ATOM     15  C   UNL     1       0.976  -2.418  -3.481  0.00  0.00    +0.138 C 
ATOM     16  C   UNL     1      -0.009   0.073  -2.500  0.00  0.00    +0.046 C 
ENDROOT
BRANCH   7  17
ATOM     17  N   UNL     1       0.027  -0.009   2.415  0.00  0.00    -0.357 N 
ATOM     18  H   UNL     1       0.015   0.961   2.419  0.00  0.00    +0.142 HD
ATOM     19  H   UNL     1       0.042  -0.497   3.253  0.00  0.00    +0.142 HD
ENDBRANCH   7  17
TORSDOF 1
