REMARK  Name = ZINC39935661
REMARK  8 active torsions:
REMARK  status: ('A' for Active; 'I' for Inactive)
REMARK    1  A    between atoms: C_1  and  C_2
REMARK    2  A    between atoms: C_5  and  C_27
REMARK    3  A    between atoms: C_8  and  C_10
REMARK    4  A    between atoms: N_11  and  N_12
REMARK    5  A    between atoms: C_27  and  C_28
REMARK    6  A    between atoms: C_28  and  C_29
REMARK    7  A    between atoms: C_30  and  C_31
REMARK    8  A    between atoms: C_30  and  C_32
REMARK                            x       y       z     vdW  Elec       q    Type
REMARK                         _______ _______ _______ _____ _____    ______ ____
ROOT
ATOM      1  N   UNL     1       4.198   1.544  -1.489  0.00  0.00    -0.206 N 
ATOM      2  C   UNL     1       5.314   0.773  -1.753  0.00  0.00    +0.227 C 
ATOM      3  N   UNL     1       5.205  -0.529  -1.643  0.00  0.00    -0.220 NA
ATOM      4  C   UNL     1       6.409  -1.331  -1.847  0.00  0.00    +0.253 C 
ATOM      5  C   UNL     1       7.294  -0.541  -2.799  0.00  0.00    +0.115 C 
ATOM      6  C   UNL     1       7.671  -1.423  -3.765  0.00  0.00    +0.025 A 
ATOM      7  C   UNL     1       8.570  -1.315  -4.855  0.00  0.00    +0.012 A 
ATOM      8  C   UNL     1       8.711  -2.401  -5.660  0.00  0.00    +0.001 A 
ATOM      9  C   UNL     1       8.029  -3.608  -5.479  0.00  0.00    +0.002 A 
ATOM     10  C   UNL     1       7.149  -3.827  -4.465  0.00  0.00    +0.026 A 
ATOM     11  C   UNL     1       6.936  -2.705  -3.536  0.00  0.00    +0.046 A 
ATOM     12  N   UNL     1       6.185  -2.623  -2.480  0.00  0.00    -0.358 N 
ATOM     13  N   UNL     1       7.450   0.780  -2.665  0.00  0.00    -0.171 NA
ATOM     14  N   UNL     1       6.456   1.406  -2.115  0.00  0.00    -0.247 N 
ATOM     15  H   UNL     1       4.247   2.510  -1.565  0.00  0.00    +0.177 HD
ATOM     16  H   UNL     1       6.535   2.359  -1.954  0.00  0.00    +0.192 HD
ATOM     17  H   UNL     1       5.576  -3.308  -2.166  0.00  0.00    +0.162 HD
ENDROOT
BRANCH   1  19
ATOM     18  C   UNL     1       1.962   1.645  -0.867  0.00  0.00    +0.107 C 
ATOM     19  N   UNL     1       2.996   0.931  -1.111  0.00  0.00    -0.192 NA
BRANCH  18  26
ATOM     20  C   UNL     1      -0.756   2.821  -1.393  0.00  0.00    +0.008 C 
ATOM     21  C   UNL     1      -0.426   1.330  -1.477  0.00  0.00    -0.001 C 
ATOM     22  C   UNL     1      -1.674   0.508  -1.146  0.00  0.00    +0.034 C 
ATOM     23  C   UNL     1      -2.005   0.634   0.312  0.00  0.00    -0.073 C 
ATOM     24  C   UNL     1      -1.176   1.063   1.209  0.00  0.00    -0.027 C 
ATOM     25  C   UNL     1       0.228   1.502   0.915  0.00  0.00    +0.036 C 
ATOM     26  C   UNL     1       0.670   0.985  -0.461  0.00  0.00    +0.039 C 
BRANCH  23  27
ATOM     27  C   UNL     1      -3.389   0.238   0.760  0.00  0.00    +0.034 C 
BRANCH  27  28
ATOM     28  C   UNL     1      -4.343   1.419   0.573  0.00  0.00    +0.031 C 
BRANCH  28  29
ATOM     29  C   UNL     1      -5.726   1.023   1.020  0.00  0.00    -0.028 C 
ATOM     30  C   UNL     1      -6.325   1.697   1.971  0.00  0.00    -0.080 C 
ATOM     31  C   UNL     1      -5.583   2.782   2.708  0.00  0.00    +0.038 C 
ATOM     32  C   UNL     1      -7.756   1.387   2.328  0.00  0.00    +0.038 C 
ENDBRANCH  28  29
ENDBRANCH  27  28
ENDBRANCH  23  27
ENDBRANCH  18  26
ENDBRANCH   1  19
TORSDOF 5
