REMARK  Name = ZINC65355976
REMARK  3 active torsions:
REMARK  status: ('A' for Active; 'I' for Inactive)
REMARK    1  A    between atoms: C_1  and  O_2
REMARK    2  A    between atoms: O_2  and  C_3
REMARK    3  A    between atoms: C_8  and  C_9
REMARK                            x       y       z     vdW  Elec       q    Type
REMARK                         _______ _______ _______ _____ _____    ______ ____
ROOT
ATOM      1  C   UNL     1       0.605  -0.607  -1.055  0.00  0.00    +0.131 A 
ATOM      2  C   UNL     1       1.172   0.159  -2.061  0.00  0.00    +0.066 A 
ATOM      3  C   UNL     1       1.786  -0.456  -3.137  0.00  0.00    +0.044 A 
ATOM      4  C   UNL     1       1.838  -1.838  -3.216  0.00  0.00    +0.021 A 
ATOM      5  C   UNL     1       1.277  -2.612  -2.220  0.00  0.00    +0.015 A 
ATOM      6  C   UNL     1       0.662  -2.002  -1.129  0.00  0.00    +0.040 A 
ATOM      7 CL   UNL     1       2.494   0.508  -4.396  0.00  0.00    -0.083 Cl
ENDROOT
BRANCH   6   8
ATOM      8  C   UNL     1       0.064  -2.829  -0.054  0.00  0.00    +0.050 A 
ATOM      9  C   UNL     1       0.198  -2.434   1.276  0.00  0.00    +0.030 A 
ATOM     10  C   UNL     1      -0.364  -3.214   2.270  0.00  0.00    +0.054 A 
ATOM     11  C   UNL     1      -1.046  -4.370   1.901  0.00  0.00    +0.195 A 
ATOM     12  C   UNL     1      -1.141  -4.702   0.556  0.00  0.00    +0.134 A 
ATOM     13  N   UNL     1      -0.599  -3.935  -0.367  0.00  0.00    -0.357 N 
ATOM     14  O   UNL     1      -1.613  -5.165   2.846  0.00  0.00    -0.286 OA
ATOM     15  H   UNL     1      -0.682  -4.188  -1.300  0.00  0.00    +0.165 HD
ENDBRANCH   6   8
BRANCH   1  17
ATOM     16  C   UNL     1      -0.017   1.425   0.010  0.00  0.00    +0.277 C 
ATOM     17  O   UNL     1       0.002  -0.004   0.002  0.00  0.00    -0.494 OA
ENDBRANCH   1  17
TORSDOF 2
