REMARK  Name = ZINC00036132
REMARK  2 active torsions:
REMARK  status: ('A' for Active; 'I' for Inactive)
REMARK    1  A    between atoms: C_6  and  C_7
REMARK    2  A    between atoms: C_7  and  C_8
REMARK                            x       y       z     vdW  Elec       q    Type
REMARK                         _______ _______ _______ _____ _____    ______ ____
ROOT
ATOM      1  C   UNL     1      -4.403   4.323   0.046  0.00  0.00    +0.100 C 
ENDROOT
BRANCH   1   2
ATOM      2  C   UNL     1      -3.342   3.253   0.035  0.00  0.00    +0.108 A 
ATOM      3  N   UNL     1      -3.463   1.941   0.029  0.00  0.00    -0.144 NA
ATOM      4  N   UNL     1      -2.462   1.173   0.021  0.00  0.00    -0.126 NA
ATOM      5  C   UNL     1      -1.222   1.643   0.017  0.00  0.00    +0.179 A 
ATOM      6  S   UNL     1      -1.558   3.401   0.035  0.00  0.00    -0.036 S 
ATOM      7  N   UNL     1      -0.011   0.966   0.007  0.00  0.00    -0.336 N 
ATOM      8  H   UNL     1       0.002  -0.004   0.002  0.00  0.00    +0.144 HD
ATOM      9  H   UNL     1       0.822   1.462   0.002  0.00  0.00    +0.144 HD
ENDBRANCH   1   2
BRANCH   1  15
ATOM     10  C   UNL     1      -5.762   3.994   2.122  0.00  0.00    +0.005 A 
ATOM     11  C   UNL     1      -6.077   4.311   3.430  0.00  0.00    +0.015 A 
ATOM     12  C   UNL     1      -5.386   5.316   4.083  0.00  0.00    +0.018 A 
ATOM     13  C   UNL     1      -4.376   5.998   3.429  0.00  0.00    +0.015 A 
ATOM     14  C   UNL     1      -4.058   5.676   2.123  0.00  0.00    +0.005 A 
ATOM     15  C   UNL     1      -4.750   4.673   1.470  0.00  0.00    -0.041 A 
ATOM     16 BR   UNL     1      -5.820   5.755   5.871  0.00  0.00    -0.050 Br
ENDBRANCH   1  15
TORSDOF 2
