REMARK  Name = ZINC38828367
REMARK  3 active torsions:
REMARK  status: ('A' for Active; 'I' for Inactive)
REMARK    1  A    between atoms: C_5  and  C_6
REMARK    2  A    between atoms: N_8  and  C_9
REMARK    3  A    between atoms: C_10  and  C_14
REMARK                            x       y       z     vdW  Elec       q    Type
REMARK                         _______ _______ _______ _____ _____    ______ ____
ROOT
ATOM      1  C   UNL     1      -1.171  -0.881   0.009  0.00  0.00    +0.284 C 
ATOM      2  O   UNL     1      -2.290  -0.401   0.023  0.00  0.00    -0.266 OA
ATOM      3  N   UNL     1      -1.013  -2.219   0.000  0.00  0.00    -0.273 N 
ATOM      4  H   UNL     1      -0.122  -2.602  -0.011  0.00  0.00    +0.156 HD
ENDROOT
BRANCH   1   9
ATOM      5  C   UNL     1      -0.017   1.362   0.009  0.00  0.00    +0.056 A 
ATOM      6  C   UNL     1       1.321   1.784  -0.001  0.00  0.00    +0.058 A 
ATOM      7  C   UNL     1       2.090   0.671  -0.014  0.00  0.00    +0.171 A 
ATOM      8  O   UNL     1       1.291  -0.404  -0.012  0.00  0.00    -0.444 OA
ATOM      9  C   UNL     1       0.002  -0.004   0.002  0.00  0.00    +0.191 A 
ATOM     10 BR   UNL     1       3.981   0.638  -0.034  0.00  0.00    -0.008 Br
ENDBRANCH   1   9
BRANCH   3  11
ATOM     11  C   UNL     1      -2.122  -3.048   0.007  0.00  0.00    +0.084 A 
ATOM     12  C   UNL     1      -2.151  -4.436   0.005  0.00  0.00    +0.065 A 
ATOM     13  C   UNL     1      -3.457  -5.055   0.013  0.00  0.00    +0.022 A 
ATOM     14  C   UNL     1      -4.506  -4.212   0.022  0.00  0.00    +0.048 A 
ATOM     15  S   UNL     1      -3.741  -2.605   0.026  0.00  0.00    -0.081 S 
BRANCH  12  16
ATOM     16  C   UNL     1      -0.920  -5.232  -0.005  0.00  0.00    +0.244 C 
ATOM     17  O   UNL     1       0.163  -4.677  -0.012  0.00  0.00    -0.270 OA
ATOM     18  N   UNL     1      -0.988  -6.578  -0.006  0.00  0.00    -0.325 N 
ATOM     19  H   UNL     1      -1.852  -7.020  -0.000  0.00  0.00    +0.145 HD
ATOM     20  H   UNL     1      -0.174  -7.105  -0.012  0.00  0.00    +0.145 HD
ENDBRANCH  12  16
ENDBRANCH   3  11
TORSDOF 3
