REMARK  Name = ZINC05594122
REMARK  3 active torsions:
REMARK  status: ('A' for Active; 'I' for Inactive)
REMARK    1  A    between atoms: C_7  and  N_15
REMARK    2  A    between atoms: N_18  and  C_19
REMARK    3  A    between atoms: C_19  and  C_20
REMARK                            x       y       z     vdW  Elec       q    Type
REMARK                         _______ _______ _______ _____ _____    ______ ____
ROOT
ATOM      1  C   UNL     1      -1.358  -6.141  -0.941  0.00  0.00    +0.001 A 
ATOM      2  C   UNL     1      -2.597  -6.775  -1.014  0.00  0.00    +0.002 A 
ATOM      3  C   UNL     1      -3.758  -6.105  -0.789  0.00  0.00    +0.028 A 
ATOM      4  C   UNL     1      -3.720  -4.731  -0.471  0.00  0.00    +0.073 A 
ATOM      5  C   UNL     1      -2.417  -4.070  -0.395  0.00  0.00    +0.022 A 
ATOM      6  C   UNL     1      -1.253  -4.820  -0.639  0.00  0.00    +0.012 A 
ATOM      7  C   UNL     1      -2.352  -2.700  -0.079  0.00  0.00    +0.053 A 
ATOM      8  C   UNL     1      -3.563  -2.026   0.156  0.00  0.00    +0.022 A 
ATOM      9  C   UNL     1      -3.588  -0.656   0.471  0.00  0.00    +0.012 A 
ATOM     10  C   UNL     1      -4.780  -0.038   0.686  0.00  0.00    +0.001 A 
ATOM     11  C   UNL     1      -5.986  -0.732   0.596  0.00  0.00    +0.002 A 
ATOM     12  C   UNL     1      -6.029  -2.055   0.290  0.00  0.00    +0.028 A 
ATOM     13  C   UNL     1      -4.828  -2.757   0.055  0.00  0.00    +0.073 A 
ATOM     14  N   UNL     1      -4.843  -4.053  -0.246  0.00  0.00    -0.247 NA
ENDROOT
BRANCH   7  15
ATOM     15  N   UNL     1      -1.137  -2.041   0.002  0.00  0.00    -0.268 N 
ATOM     16  C   UNL     1      -0.562  -1.548  -1.113  0.00  0.00    +0.304 C 
ATOM     17  O   UNL     1      -1.071  -1.749  -2.199  0.00  0.00    -0.252 OA
ATOM     18  N   UNL     1       0.576  -0.833  -1.024  0.00  0.00    -0.294 N 
ATOM     19  H   UNL     1      -0.700  -1.934   0.861  0.00  0.00    +0.156 HD
ATOM     20  H   UNL     1       0.982  -0.673  -0.157  0.00  0.00    +0.151 HD
BRANCH  18  21
ATOM     21  C   UNL     1       1.201  -0.297  -2.235  0.00  0.00    +0.154 C 
BRANCH  21  22
ATOM     22  C   UNL     1       2.452   0.458  -1.864  0.00  0.00    +0.047 C 
ATOM     23  C   UNL     1       3.624   0.023  -2.264  0.00  0.00    +0.096 C 
ATOM     24 CL   UNL     1       5.064   0.892  -1.836  0.00  0.00    -0.091 Cl
ATOM     25 CL   UNL     1       2.342   1.902  -0.907  0.00  0.00    -0.086 Cl
ENDBRANCH  21  22
ENDBRANCH  18  21
ENDBRANCH   7  15
TORSDOF 3
