REMARK  Name = ZINC52309927
REMARK  6 active torsions:
REMARK  status: ('A' for Active; 'I' for Inactive)
REMARK    1  A    between atoms: C_1  and  C_2
REMARK    2  A    between atoms: C_4  and  S_8
REMARK    3  A    between atoms: N_5  and  C_7
REMARK    4  A    between atoms: S_8  and  C_9
REMARK    5  A    between atoms: C_12  and  C_15
REMARK    6  A    between atoms: N_16  and  O_17
REMARK                            x       y       z     vdW  Elec       q    Type
REMARK                         _______ _______ _______ _____ _____    ______ ____
ROOT
ATOM      1  C   UNL     1       0.424  -4.891  -0.806  0.00  0.00    +0.014 A 
ATOM      2  C   UNL     1       0.451  -4.645   0.564  0.00  0.00    +0.016 A 
ATOM      3  C   UNL     1       0.696  -5.675   1.445  0.00  0.00    +0.012 A 
ATOM      4  C   UNL     1       0.916  -6.967   0.963  0.00  0.00    +0.018 A 
ATOM      5  C   UNL     1       0.888  -7.211  -0.412  0.00  0.00    +0.012 A 
ATOM      6  C   UNL     1       0.638  -6.179  -1.288  0.00  0.00    +0.016 A 
ENDROOT
BRANCH   4   7
ATOM      7  C   UNL     1       1.180  -8.074   1.906  0.00  0.00    +0.162 C 
ATOM      8  N   UNL     1       1.207  -7.845   3.187  0.00  0.00    -0.072 NA
ATOM      9  N   UNL     1       1.398  -9.355   1.427  0.00  0.00    -0.340 N 
ATOM     10  H   UNL     1       1.378  -9.526   0.472  0.00  0.00    +0.144 HD
ATOM     11  H   UNL     1       1.571 -10.082   2.046  0.00  0.00    +0.144 HD
BRANCH   8  12
ATOM     12  O   UNL     1       1.459  -8.906   4.091  0.00  0.00    -0.408 OA
ATOM     13  H   UNL     1       1.460  -8.639   5.020  0.00  0.00    +0.328 HD
ENDBRANCH   8  12
ENDBRANCH   4   7
BRANCH   1  14
ATOM     14  S   UNL     1       0.110  -3.571  -1.930  0.00  0.00    -0.070 S 
BRANCH  14  18
ATOM     15  C   UNL     1      -0.017   1.212   0.446  0.00  0.00    +0.067 C 
ATOM     16  C   UNL     1      -0.357  -0.214   0.095  0.00  0.00    +0.061 A 
ATOM     17  C   UNL     1       0.281  -0.991  -0.874  0.00  0.00    +0.059 A 
ATOM     18  C   UNL     1      -0.315  -2.215  -0.888  0.00  0.00    +0.099 A 
ATOM     19  N   UNL     1      -1.300  -2.199   0.049  0.00  0.00    -0.260 N 
ATOM     20  N   UNL     1      -1.298  -0.934   0.650  0.00  0.00    -0.176 NA
ATOM     21  C   UNL     1      -2.199  -3.309   0.375  0.00  0.00    +0.173 C 
ENDBRANCH  14  18
ENDBRANCH   1  14
TORSDOF 4
