REMARK  Name = ZINC42193957
REMARK  5 active torsions:
REMARK  status: ('A' for Active; 'I' for Inactive)
REMARK    1  A    between atoms: C_1  and  C_2
REMARK    2  A    between atoms: C_2  and  C_4
REMARK    3  A    between atoms: C_2  and  S_10
REMARK    4  A    between atoms: S_10  and  C_13
REMARK    5  A    between atoms: C_16  and  N_20
REMARK                            x       y       z     vdW  Elec       q    Type
REMARK                         _______ _______ _______ _____ _____    ______ ____
ROOT
ATOM      1  S   UNL     1       0.851  -0.589  -1.490  0.00  0.00    +0.013 S 
ATOM      2  O   UNL     1       1.037  -1.996  -1.428  0.00  0.00    -0.168 OA
ATOM      3  O   UNL     1       0.285   0.016  -2.645  0.00  0.00    -0.168 OA
ENDROOT
BRANCH   1   4
ATOM      4  C   UNL     1       2.476   0.084  -1.381  0.00  0.00    +0.159 A 
ATOM      5  C   UNL     1       2.747   1.329  -1.924  0.00  0.00    +0.153 A 
ATOM      6  C   UNL     1       4.021   1.859  -1.839  0.00  0.00    +0.063 A 
ATOM      7  C   UNL     1       5.030   1.143  -1.208  0.00  0.00    +0.030 A 
ATOM      8  C   UNL     1       4.756  -0.105  -0.664  0.00  0.00    +0.063 A 
ATOM      9  C   UNL     1       3.478  -0.630  -0.746  0.00  0.00    +0.153 A 
ATOM     10  F   UNL     1       3.210  -1.841  -0.212  0.00  0.00    -0.203 F 
ATOM     11  F   UNL     1       1.765   2.026  -2.537  0.00  0.00    -0.203 F 
BRANCH   7  12
ATOM     12  N   UNL     1       6.318   1.676  -1.122  0.00  0.00    -0.358 N 
ATOM     13  H   UNL     1       6.508   2.547  -1.502  0.00  0.00    +0.142 HD
ATOM     14  H   UNL     1       7.022   1.175  -0.681  0.00  0.00    +0.142 HD
ENDBRANCH   7  12
ENDBRANCH   1   4
BRANCH   1  16
ATOM     15  C   UNL     1      -0.019   1.526   0.010  0.00  0.00    +0.042 C 
ATOM     16  C   UNL     1       0.002  -0.004   0.002  0.00  0.00    +0.219 C 
BRANCH  16  17
ATOM     17  C   UNL     1      -1.412  -0.526   0.013  0.00  0.00    +0.245 C 
ATOM     18  O   UNL     1      -1.927  -0.901  -1.018  0.00  0.00    -0.273 OA
ATOM     19  N   UNL     1      -2.103  -0.575   1.169  0.00  0.00    -0.239 N 
ATOM     20  C   UNL     1      -3.368  -1.042   1.178  0.00  0.00    +0.303 C 
ATOM     21  O   UNL     1      -3.884  -1.418   0.144  0.00  0.00    -0.253 OA
ATOM     22  N   UNL     1      -4.059  -1.091   2.334  0.00  0.00    -0.313 N 
ATOM     23  H   UNL     1      -1.691  -0.275   1.994  0.00  0.00    +0.159 HD
ATOM     24  H   UNL     1      -3.647  -0.790   3.159  0.00  0.00    +0.146 HD
ATOM     25  H   UNL     1      -4.969  -1.427   2.341  0.00  0.00    +0.146 HD
ENDBRANCH  16  17
ENDBRANCH   1  16
TORSDOF 4
