REMARK  Name = ZINC24779482
REMARK  10 active torsions:
REMARK  status: ('A' for Active; 'I' for Inactive)
REMARK    1  A    between atoms: C_1  and  C_2
REMARK    2  A    between atoms: C_5  and  N_9
REMARK    3  A    between atoms: C_6  and  C_8
REMARK    4  A    between atoms: C_13  and  S_14
REMARK    5  A    between atoms: S_14  and  C_15
REMARK    6  A    between atoms: C_15  and  C_17
REMARK    7  A    between atoms: C_15  and  C_18
REMARK    8  A    between atoms: N_20  and  C_21
REMARK    9  A    between atoms: C_24  and  S_27
REMARK   10  A    between atoms: S_27  and  N_30
REMARK                            x       y       z     vdW  Elec       q    Type
REMARK                         _______ _______ _______ _____ _____    ______ ____
ROOT
ATOM      1  C   UNL     1      -4.877   3.433   3.309  0.00  0.00    +0.137 C 
ATOM      2  C   UNL     1      -6.032   2.893   2.464  0.00  0.00    +0.029 C 
ENDROOT
BRANCH   1   3
ATOM      3  C   UNL     1      -4.972   2.875   4.706  0.00  0.00    +0.230 C 
ATOM      4  O   UNL     1      -4.277   1.937   5.032  0.00  0.00    -0.274 OA
ATOM      5  N   UNL     1      -5.830   3.419   5.592  0.00  0.00    -0.285 N 
ATOM      6  H   UNL     1      -6.404   4.317   5.321  0.00  0.00    +0.155 HD
BRANCH   5   7
ATOM      7  C   UNL     1      -5.989   2.842   6.856  0.00  0.00    +0.034 A 
ATOM      8  C   UNL     1      -7.232   2.853   7.475  0.00  0.00    +0.025 A 
ATOM      9  C   UNL     1      -7.387   2.277   8.720  0.00  0.00    +0.030 A 
ATOM     10  C   UNL     1      -6.303   1.700   9.357  0.00  0.00    +0.105 A 
ATOM     11  C   UNL     1      -5.063   1.692   8.746  0.00  0.00    +0.030 A 
ATOM     12  C   UNL     1      -4.902   2.261   7.498  0.00  0.00    +0.025 A 
BRANCH  10  13
ATOM     13  S   UNL     1      -6.504   0.973  10.949  0.00  0.00    +0.056 S 
ATOM     14  O   UNL     1      -7.877   0.625  11.067  0.00  0.00    -0.153 OA
ATOM     15  O   UNL     1      -5.462   0.018  11.094  0.00  0.00    -0.153 OA
BRANCH  13  16
ATOM     16  N   UNL     1      -6.218   2.159  12.069  0.00  0.00    -0.204 NA
ATOM     17  H   UNL     1      -6.334   1.743  13.081  0.00  0.00    +0.144 HD
ATOM     18  H   UNL     1      -6.936   2.979  11.925  0.00  0.00    +0.144 HD
ENDBRANCH  13  16
ENDBRANCH  10  13
ENDBRANCH   5   7
ENDBRANCH   1   3
BRANCH   1  19
ATOM     19  S   UNL     1      -3.303   2.936   2.567  0.00  0.00    -0.073 S 
BRANCH  19  24
ATOM     20  N   UNL     1      -2.446   3.829   0.054  0.00  0.00    -0.277 N 
ATOM     21  C   UNL     1      -2.945   4.649  -0.923  0.00  0.00    +0.230 A 
ATOM     22  N   UNL     1      -4.099   5.088  -0.508  0.00  0.00    -0.137 NA
ATOM     23  N   UNL     1      -4.364   4.608   0.654  0.00  0.00    -0.122 NA
ATOM     24  C   UNL     1      -3.387   3.823   1.047  0.00  0.00    +0.197 A 
BRANCH  20  29
ATOM     25  C   UNL     1       2.487   1.022  -0.009  0.00  0.00    +0.044 C 
ATOM     26  C   UNL     1       1.178   1.767   0.007  0.00  0.00    -0.050 A 
ATOM     27  C   UNL     1       1.171   3.150   0.021  0.00  0.00    +0.005 A 
ATOM     28  C   UNL     1      -0.028   3.836   0.036  0.00  0.00    +0.027 A 
ATOM     29  C   UNL     1      -1.227   3.135   0.038  0.00  0.00    +0.053 A 
ATOM     30  C   UNL     1      -1.217   1.748   0.019  0.00  0.00    -0.026 A 
ATOM     31  C   UNL     1      -0.015   1.067   0.009  0.00  0.00    +0.008 A 
ATOM     32  C   UNL     1      -2.516   0.984   0.016  0.00  0.00    +0.046 C 
ENDBRANCH  20  29
ENDBRANCH  19  24
ENDBRANCH   1  19
TORSDOF 7
