REMARK  Name = ZINC01228450
REMARK  3 active torsions:
REMARK  status: ('A' for Active; 'I' for Inactive)
REMARK    1  A    between atoms: C_6  and  C_7
REMARK    2  A    between atoms: C_7  and  C_9
REMARK    3  A    between atoms: C_10  and  N_22
REMARK                            x       y       z     vdW  Elec       q    Type
REMARK                         _______ _______ _______ _____ _____    ______ ____
ROOT
ATOM      1  C   UNL     1      -3.671   2.127  -0.144  0.00  0.00    +0.083 A 
ATOM      2  C   UNL     1      -2.638   1.251  -0.415  0.00  0.00    +0.052 A 
ATOM      3  C   UNL     1      -1.301   1.796  -0.595  0.00  0.00    +0.029 A 
ATOM      4  C   UNL     1      -0.093   1.113  -0.868  0.00  0.00    +0.017 A 
ATOM      5  C   UNL     1       1.082   1.828  -0.997  0.00  0.00    -0.025 A 
ATOM      6  C   UNL     1       1.074   3.203  -0.854  0.00  0.00    +0.046 A 
ATOM      7  N   UNL     1      -0.061   3.836  -0.589  0.00  0.00    -0.244 NA
ATOM      8  C   UNL     1      -1.202   3.200  -0.458  0.00  0.00    +0.111 A 
ATOM      9  S   UNL     1      -2.865   3.717  -0.115  0.00  0.00    -0.064 S 
ATOM     10  C   UNL     1       2.320   4.039  -0.991  0.00  0.00    +0.056 C 
ATOM     11  C   UNL     1       3.568   3.168  -0.861  0.00  0.00    +0.006 C 
ATOM     12  C   UNL     1       3.431   1.981  -1.821  0.00  0.00    +0.005 C 
ATOM     13  C   UNL     1       2.341   1.053  -1.288  0.00  0.00    +0.037 C 
ENDROOT
BRANCH   2  14
ATOM     14  N   UNL     1      -2.869  -0.111  -0.520  0.00  0.00    -0.356 N 
ATOM     15  H   UNL     1      -3.767  -0.461  -0.402  0.00  0.00    +0.142 HD
ATOM     16  H   UNL     1      -2.135  -0.715  -0.711  0.00  0.00    +0.142 HD
ENDBRANCH   2  14
BRANCH   1  17
ATOM     17  C   UNL     1      -5.039   1.833   0.062  0.00  0.00    +0.202 C 
ATOM     18  O   UNL     1      -5.409   0.675   0.133  0.00  0.00    -0.286 OA
BRANCH  17  24
ATOM     19  C   UNL     1      -7.208   2.732   0.896  0.00  0.00    +0.013 A 
ATOM     20  C   UNL     1      -8.117   3.762   1.017  0.00  0.00    +0.016 A 
ATOM     21  C   UNL     1      -7.858   4.990   0.432  0.00  0.00    +0.018 A 
ATOM     22  C   UNL     1      -6.684   5.194  -0.274  0.00  0.00    +0.016 A 
ATOM     23  C   UNL     1      -5.764   4.173  -0.397  0.00  0.00    +0.013 A 
ATOM     24  C   UNL     1      -6.020   2.933   0.191  0.00  0.00    +0.023 A 
ATOM     25 BR   UNL     1      -9.112   6.396   0.597  0.00  0.00    -0.050 Br
ENDBRANCH  17  24
ENDBRANCH   1  17
TORSDOF 3
