REMARK  Name = ZINC39666628
REMARK  10 active torsions:
REMARK  status: ('A' for Active; 'I' for Inactive)
REMARK    1  A    between atoms: C_1  and  C_2
REMARK    2  A    between atoms: C_2  and  O_3
REMARK    3  A    between atoms: O_3  and  C_4
REMARK    4  A    between atoms: C_8  and  C_10
REMARK    5  A    between atoms: C_14  and  C_23
REMARK    6  A    between atoms: N_25  and  C_26
REMARK    7  A    between atoms: C_26  and  C_27
REMARK    8  A    between atoms: C_27  and  C_29
REMARK    9  A    between atoms: C_27  and  O_30
REMARK   10  A    between atoms: O_30  and  C_31
REMARK                            x       y       z     vdW  Elec       q    Type
REMARK                         _______ _______ _______ _____ _____    ______ ____
ROOT
ATOM      1  C   UNL     1      -2.695  -3.541   0.622  0.00  0.00    +0.247 C 
ATOM      2  O   UNL     1      -3.649  -2.789   0.574  0.00  0.00    -0.270 OA
ATOM      3  N   UNL     1      -2.831  -4.827   0.243  0.00  0.00    -0.296 N 
ATOM      4  C   UNL     1      -1.829  -5.915   0.345  0.00  0.00    +0.121 C 
ATOM      5  C   UNL     1      -2.645  -7.159   0.761  0.00  0.00    +0.100 C 
ATOM      6  C   UNL     1      -4.079  -6.865   0.287  0.00  0.00    -0.004 C 
ATOM      7  C   UNL     1      -4.018  -5.475  -0.365  0.00  0.00    +0.115 C 
ATOM      8  C   UNL     1      -4.523  -7.909  -0.733  0.00  0.00    -0.010 C 
ATOM      9  C   UNL     1      -5.971  -7.628  -1.146  0.00  0.00    -0.082 C 
ATOM     10  N   UNL     1      -6.837  -7.673   0.038  0.00  0.00    +0.379 N 
ATOM     11  C   UNL     1      -6.461  -6.606   0.973  0.00  0.00    -0.082 C 
ATOM     12  C   UNL     1      -5.034  -6.843   1.476  0.00  0.00    -0.010 C 
ATOM     13  H   UNL     1      -7.797  -7.549  -0.244  0.00  0.00    -0.086 HD
ATOM     14  H   UNL     1      -6.736  -8.568   0.493  0.00  0.00    -0.086 HD
ENDROOT
BRANCH   1  19
ATOM     15  C   UNL     1      -0.080  -1.399   2.267  0.00  0.00    +0.121 A 
ATOM     16  C   UNL     1       1.073  -2.117   1.980  0.00  0.00    +0.046 A 
ATOM     17  C   UNL     1       1.000  -3.292   1.256  0.00  0.00    +0.004 A 
ATOM     18  C   UNL     1      -0.221  -3.759   0.812  0.00  0.00    +0.013 A 
ATOM     19  C   UNL     1      -1.386  -3.044   1.096  0.00  0.00    +0.040 A 
ATOM     20  C   UNL     1      -1.311  -1.861   1.832  0.00  0.00    +0.058 A 
BRANCH  15  21
ATOM     21  O   UNL     1      -0.002  -0.244   2.979  0.00  0.00    -0.492 OA
BRANCH  21  23
ATOM     22  C   UNL     1       1.188   1.484   4.179  0.00  0.00    +0.048 C 
ATOM     23  C   UNL     1       1.300   0.174   3.396  0.00  0.00    +0.225 C 
ENDBRANCH  21  23
ENDBRANCH  15  21
ENDBRANCH   1  19
BRANCH   5  24
ATOM     24  C   UNL     1      -2.611  -7.334   2.257  0.00  0.00    +0.218 C 
ATOM     25  O   UNL     1      -2.557  -6.362   2.980  0.00  0.00    -0.275 OA
ATOM     26  N   UNL     1      -2.639  -8.571   2.792  0.00  0.00    -0.312 N 
ATOM     27  H   UNL     1      -2.759  -9.344   2.219  0.00  0.00    +0.149 HD
BRANCH  26  28
ATOM     28  C   UNL     1      -2.489  -8.747   4.239  0.00  0.00    +0.148 C 
BRANCH  28  29
ATOM     29  C   UNL     1      -2.432 -10.240   4.567  0.00  0.00    +0.187 C 
ATOM     30  C   UNL     1      -2.379 -10.426   6.085  0.00  0.00    +0.053 C 
BRANCH  29  31
ATOM     31  O   UNL     1      -1.264 -10.813   3.976  0.00  0.00    -0.486 OA
BRANCH  31  32
ATOM     32  C   UNL     1      -1.290 -12.150   3.729  0.00  0.00    +0.139 A 
ATOM     33  C   UNL     1      -2.404 -12.899   4.079  0.00  0.00    +0.047 A 
ATOM     34  C   UNL     1      -2.428 -14.257   3.826  0.00  0.00    +0.004 A 
ATOM     35  C   UNL     1      -1.344 -14.870   3.226  0.00  0.00    +0.002 A 
ATOM     36  C   UNL     1      -0.232 -14.126   2.877  0.00  0.00    +0.023 A 
ATOM     37  C   UNL     1      -0.205 -12.766   3.122  0.00  0.00    +0.083 A 
ATOM     38 CL   UNL     1       1.188 -11.831   2.676  0.00  0.00    -0.080 Cl
ENDBRANCH  31  32
ENDBRANCH  29  31
ENDBRANCH  28  29
ENDBRANCH  26  28
ENDBRANCH   5  24
TORSDOF 8
