REMARK  Name = ZINC37821652
REMARK  4 active torsions:
REMARK  status: ('A' for Active; 'I' for Inactive)
REMARK    1  A    between atoms: C_1  and  C_2
REMARK    2  A    between atoms: C_6  and  C_18
REMARK    3  A    between atoms: C_10  and  C_12
REMARK    4  A    between atoms: C_12  and  N_17
REMARK                            x       y       z     vdW  Elec       q    Type
REMARK                         _______ _______ _______ _____ _____    ______ ____
ROOT
ATOM      1  C   UNL     1       0.952   0.390   3.180  0.00  0.00    +0.028 C 
ATOM      2  C   UNL     1      -0.102  -0.715   3.078  0.00  0.00    +0.073 C 
ATOM      3  C   UNL     1      -0.699  -0.725   1.667  0.00  0.00    +0.023 C 
ATOM      4  C   UNL     1      -1.649  -1.917   1.529  0.00  0.00    +0.016 C 
ATOM      5  C   UNL     1      -0.871  -3.219   1.734  0.00  0.00    +0.092 C 
ATOM      6  C   UNL     1      -0.275  -3.236   3.145  0.00  0.00    +0.120 C 
ATOM      7  N   UNL     1       0.524  -2.018   3.339  0.00  0.00    -0.299 N 
ATOM      8  C   UNL     1       1.807  -2.095   3.746  0.00  0.00    +0.204 C 
ATOM      9  O   UNL     1       2.476  -1.088   3.834  0.00  0.00    -0.277 OA
ENDROOT
BRANCH   8  10
ATOM     10  C   UNL     1       2.409  -3.433   4.091  0.00  0.00    +0.007 C 
ATOM     11  C   UNL     1       1.500  -4.195   5.087  0.00  0.00    -0.004 C 
ATOM     12  C   UNL     1       1.872  -3.555   6.448  0.00  0.00    -0.001 C 
ATOM     13  C   UNL     1       3.395  -3.324   6.354  0.00  0.00    -0.001 C 
ATOM     14  C   UNL     1       3.736  -3.246   4.855  0.00  0.00    -0.004 C 
BRANCH  10  15
ATOM     15  N   UNL     1       2.623  -4.228   2.875  0.00  0.00    +0.388 N 
ATOM     16  H   UNL     1       3.491  -3.950   2.440  0.00  0.00    -0.089 HD
ATOM     17  H   UNL     1       2.667  -5.207   3.116  0.00  0.00    -0.089 HD
ATOM     18  H   UNL     1       1.861  -4.073   2.233  0.00  0.00    -0.089 HD
ENDBRANCH  10  15
ENDBRANCH   8  10
BRANCH   5  19
ATOM     19  C   UNL     1       0.239  -3.306   0.717  0.00  0.00    +0.215 C 
ATOM     20  O   UNL     1       1.190  -2.557   0.792  0.00  0.00    -0.276 OA
ATOM     21  N   UNL     1       0.174  -4.216  -0.275  0.00  0.00    -0.329 N 
ATOM     22  H   UNL     1      -0.587  -4.815  -0.334  0.00  0.00    +0.145 HD
ATOM     23  H   UNL     1       0.888  -4.272  -0.929  0.00  0.00    +0.145 HD
ENDBRANCH   5  19
TORSDOF 3
