REMARK  Name = ZINC62825428
REMARK  4 active torsions:
REMARK  status: ('A' for Active; 'I' for Inactive)
REMARK    1  A    between atoms: C_5  and  N_10
REMARK    2  A    between atoms: C_6  and  C_7
REMARK    3  A    between atoms: C_11  and  C_13
REMARK    4  A    between atoms: C_18  and  N_21
REMARK                            x       y       z     vdW  Elec       q    Type
REMARK                         _______ _______ _______ _____ _____    ______ ____
ROOT
ATOM      1  N   UNL     1       1.290  -2.072  -0.036  0.00  0.00    -0.284 N 
ATOM      2  C   UNL     1       2.465  -2.710   0.141  0.00  0.00    +0.220 C 
ATOM      3  O   UNL     1       3.465  -2.077   0.404  0.00  0.00    -0.275 OA
ATOM      4  H   UNL     1       0.476  -2.582  -0.167  0.00  0.00    +0.155 HD
ENDROOT
BRANCH   1   9
ATOM      5  C   UNL     1       0.625   1.409  -1.087  0.00  0.00    +0.032 A 
ATOM      6  C   UNL     1       1.162   2.098  -0.021  0.00  0.00    +0.020 A 
ATOM      7  C   UNL     1       1.740   1.412   1.036  0.00  0.00    +0.032 A 
ATOM      8  C   UNL     1       1.783   0.031   1.034  0.00  0.00    +0.041 A 
ATOM      9  C   UNL     1       1.247  -0.680  -0.032  0.00  0.00    +0.062 A 
ATOM     10  C   UNL     1       0.660   0.011  -1.104  0.00  0.00    +0.086 A 
ATOM     11 BR   UNL     1       2.575  -0.891   2.482  0.00  0.00    -0.048 Br
ATOM     12 BR   UNL     1       1.112   3.988  -0.001  0.00  0.00    -0.050 Br
BRANCH  10  13
ATOM     13  C   UNL     1       0.088  -0.731  -2.239  0.00  0.00    +0.388 C 
ATOM     14  O   UNL     1      -0.328  -0.126  -3.218  0.00  0.00    -0.241 OA
ATOM     15  O   UNL     1       0.028  -1.952  -2.203  0.00  0.00    -0.241 OA
ENDBRANCH  10  13
ENDBRANCH   1   9
BRANCH   2  16
ATOM     16  C   UNL     1       2.534  -4.210   0.012  0.00  0.00    +0.074 C 
ATOM     17  C   UNL     1       1.604  -4.854   1.042  0.00  0.00    +0.012 C 
ATOM     18  C   UNL     1       1.675  -6.377   0.912  0.00  0.00    -0.001 C 
ATOM     19  C   UNL     1       3.111  -6.844   1.158  0.00  0.00    -0.016 C 
ATOM     20  C   UNL     1       4.040  -6.200   0.128  0.00  0.00    -0.074 C 
ATOM     21  C   UNL     1       3.970  -4.677   0.258  0.00  0.00    -0.004 C 
BRANCH  20  22
ATOM     22  N   UNL     1       5.419  -6.648   0.364  0.00  0.00    +0.380 N 
ATOM     23  H   UNL     1       5.465  -7.652   0.278  0.00  0.00    -0.090 HD
ATOM     24  H   UNL     1       6.032  -6.223  -0.316  0.00  0.00    -0.090 HD
ATOM     25  H   UNL     1       5.706  -6.377   1.292  0.00  0.00    -0.090 HD
ENDBRANCH  20  22
ENDBRANCH   2  16
TORSDOF 4
