REMARK  Name = ZINC61053139
REMARK  3 active torsions:
REMARK  status: ('A' for Active; 'I' for Inactive)
REMARK    1  A    between atoms: C_3  and  O_9
REMARK    2  A    between atoms: O_9  and  C_10
REMARK    3  A    between atoms: C_11  and  N_17
REMARK                            x       y       z     vdW  Elec       q    Type
REMARK                         _______ _______ _______ _____ _____    ______ ____
ROOT
ATOM      1  C   UNL     1       3.484   3.458  -0.118  0.00  0.00    +0.246 A 
ATOM      2  C   UNL     1       4.652   4.218  -0.241  0.00  0.00    +0.125 A 
ATOM      3  C   UNL     1       4.531   5.598  -0.338  0.00  0.00    +0.157 A 
ATOM      4  N   UNL     1       3.321   6.142  -0.309  0.00  0.00    -0.222 NA
ATOM      5  C   UNL     1       2.244   5.394  -0.192  0.00  0.00    +0.226 A 
ATOM      6  N   UNL     1       2.312   4.080  -0.103  0.00  0.00    -0.199 NA
ATOM      7 CL   UNL     1       5.942   6.598  -0.493  0.00  0.00    -0.060 Cl
ENDROOT
BRANCH   2   8
ATOM      8  N   UNL     1       5.911   3.603  -0.267  0.00  0.00    -0.351 N 
ATOM      9  H   UNL     1       5.981   2.638  -0.198  0.00  0.00    +0.143 HD
ATOM     10  H   UNL     1       6.712   4.143  -0.353  0.00  0.00    +0.143 HD
ENDBRANCH   2   8
BRANCH   1  11
ATOM     11  O   UNL     1       3.548   2.107  -0.021  0.00  0.00    -0.435 OA
BRANCH  11  14
ATOM     12  C   UNL     1       0.631   0.365   1.281  0.00  0.00    +0.019 A 
ATOM     13  C   UNL     1       1.819   1.069   1.241  0.00  0.00    +0.049 A 
ATOM     14  C   UNL     1       2.380   1.414   0.020  0.00  0.00    +0.149 A 
ATOM     15  C   UNL     1       1.745   1.050  -1.160  0.00  0.00    +0.084 A 
ATOM     16  C   UNL     1       0.556   0.346  -1.116  0.00  0.00    +0.039 A 
ATOM     17  C   UNL     1      -0.000   0.004   0.104  0.00  0.00    +0.019 A 
ATOM     18 BR   UNL     1      -1.626  -0.960   0.162  0.00  0.00    -0.050 Br
ATOM     19 CL   UNL     1       2.443   1.481  -2.690  0.00  0.00    -0.080 Cl
ENDBRANCH  11  14
ENDBRANCH   1  11
TORSDOF 3
