REMARK  Name = ZINC03275070
REMARK  5 active torsions:
REMARK  status: ('A' for Active; 'I' for Inactive)
REMARK    1  A    between atoms: C_1  and  C_2
REMARK    2  A    between atoms: C_12  and  C_14
REMARK    3  A    between atoms: C_14  and  N_15
REMARK    4  A    between atoms: C_18  and  C_22
REMARK    5  A    between atoms: C_18  and  C_28
REMARK                            x       y       z     vdW  Elec       q    Type
REMARK                         _______ _______ _______ _____ _____    ______ ____
ROOT
ATOM      1  N   UNL     1      -2.842   0.540  -2.198  0.00  0.00    -0.215 N 
ATOM      2  C   UNL     1      -2.514   1.560  -1.381  0.00  0.00    +0.256 C 
ATOM      3  O   UNL     1      -2.268   2.704  -1.699  0.00  0.00    -0.272 OA
ATOM      4  C   UNL     1      -2.514   0.980   0.019  0.00  0.00    +0.164 C 
ATOM      5  N   UNL     1      -2.876  -0.433  -0.191  0.00  0.00    -0.278 N 
ATOM      6  C   UNL     1      -3.048  -0.592  -1.516  0.00  0.00    +0.310 C 
ATOM      7  O   UNL     1      -3.355  -1.647  -2.035  0.00  0.00    -0.252 OA
ATOM      8  H   UNL     1      -2.973  -1.115   0.492  0.00  0.00    +0.152 HD
ENDROOT
BRANCH   4   9
ATOM      9  C   UNL     1      -1.144   1.088   0.639  0.00  0.00    -0.011 A 
ATOM     10  C   UNL     1      -0.467   2.293   0.611  0.00  0.00    +0.006 A 
ATOM     11  C   UNL     1       0.787   2.394   1.184  0.00  0.00    +0.000 A 
ATOM     12  C   UNL     1       1.366   1.290   1.780  0.00  0.00    +0.000 A 
ATOM     13  C   UNL     1       0.691   0.084   1.803  0.00  0.00    +0.000 A 
ATOM     14  C   UNL     1      -0.563  -0.018   1.230  0.00  0.00    +0.006 A 
ENDBRANCH   4   9
BRANCH   4  15
ATOM     15  C   UNL     1      -3.540   1.671   0.880  0.00  0.00    -0.011 A 
ATOM     16  C   UNL     1      -3.571   3.052   0.943  0.00  0.00    +0.006 A 
ATOM     17  C   UNL     1      -4.516   3.686   1.728  0.00  0.00    +0.000 A 
ATOM     18  C   UNL     1      -5.421   2.940   2.459  0.00  0.00    +0.000 A 
ATOM     19  C   UNL     1      -5.386   1.559   2.400  0.00  0.00    +0.000 A 
ATOM     20  C   UNL     1      -4.445   0.925   1.611  0.00  0.00    +0.006 A 
ENDBRANCH   4  15
BRANCH   1  21
ATOM     21  C   UNL     1      -2.959   0.657  -3.654  0.00  0.00    +0.214 C 
BRANCH  21  32
ATOM     22  C   UNL     1       0.227  -1.283  -6.099  0.00  0.00    +0.029 C 
ATOM     23  C   UNL     1      -0.250   0.147  -6.362  0.00  0.00    +0.083 C 
ATOM     24  C   UNL     1      -0.610   0.326  -7.846  0.00  0.00    +0.059 C 
ATOM     25  C   UNL     1      -2.077   0.690  -7.840  0.00  0.00    -0.024 A 
ATOM     26  C   UNL     1      -2.946   0.968  -8.878  0.00  0.00    +0.005 A 
ATOM     27  C   UNL     1      -4.266   1.280  -8.614  0.00  0.00    +0.000 A 
ATOM     28  C   UNL     1      -4.717   1.313  -7.307  0.00  0.00    +0.002 A 
ATOM     29  C   UNL     1      -3.854   1.037  -6.268  0.00  0.00    +0.024 A 
ATOM     30  C   UNL     1      -2.521   0.715  -6.527  0.00  0.00    +0.040 A 
ATOM     31  N   UNL     1      -1.492   0.411  -5.630  0.00  0.00    -0.267 N 
ATOM     32  C   UNL     1      -1.624   0.364  -4.290  0.00  0.00    +0.238 C 
ATOM     33  O   UNL     1      -0.670   0.085  -3.596  0.00  0.00    -0.273 OA
ENDBRANCH  21  32
ENDBRANCH   1  21
TORSDOF 4
