REMARK  Name = ZINC05540632
REMARK  5 active torsions:
REMARK  status: ('A' for Active; 'I' for Inactive)
REMARK    1  A    between atoms: C_1  and  C_2
REMARK    2  A    between atoms: C_7  and  N_8
REMARK    3  A    between atoms: C_9  and  C_11
REMARK    4  A    between atoms: N_13  and  N_14
REMARK    5  A    between atoms: C_15  and  C_16
REMARK                            x       y       z     vdW  Elec       q    Type
REMARK                         _______ _______ _______ _____ _____    ______ ____
ROOT
ATOM      1  N   UNL     1       2.279   4.266   0.003  0.00  0.00    -0.277 N 
ATOM      2  C   UNL     1       1.121   3.576   0.008  0.00  0.00    +0.305 C 
ATOM      3  O   UNL     1       0.061   4.169   0.028  0.00  0.00    -0.265 OA
ATOM      4  H   UNL     1       3.124   3.795   0.068  0.00  0.00    +0.155 HD
ENDROOT
BRANCH   1  11
ATOM      5  C   UNL     1       4.491   5.713   1.054  0.00  0.00    +0.046 C 
ATOM      6  C   UNL     1       3.321   6.406   0.405  0.00  0.00    -0.028 A 
ATOM      7  C   UNL     1       3.303   7.784   0.302  0.00  0.00    +0.025 A 
ATOM      8  C   UNL     1       2.226   8.421  -0.288  0.00  0.00    +0.041 A 
ATOM      9  C   UNL     1       1.166   7.680  -0.782  0.00  0.00    +0.022 A 
ATOM     10  C   UNL     1       1.181   6.303  -0.687  0.00  0.00    +0.025 A 
ATOM     11  C   UNL     1       2.261   5.660  -0.095  0.00  0.00    +0.037 A 
ATOM     12 CL   UNL     1       2.204  10.152  -0.410  0.00  0.00    -0.084 Cl
ENDBRANCH   1  11
BRANCH   2  13
ATOM     13  C   UNL     1       1.141   2.086  -0.012  0.00  0.00    +0.318 C 
ATOM     14  O   UNL     1       2.201   1.494  -0.033  0.00  0.00    -0.263 OA
ATOM     15  N   UNL     1      -0.017   1.397  -0.008  0.00  0.00    -0.199 N 
ATOM     16  H   UNL     1      -0.863   1.870   0.004  0.00  0.00    +0.178 HD
BRANCH  15  17
ATOM     17  N   UNL     1       0.003  -0.004  -0.027  0.00  0.00    -0.184 NA
ATOM     18  C   UNL     1      -1.116  -0.671  -0.022  0.00  0.00    +0.176 C 
BRANCH  18  19
ATOM     19  C   UNL     1      -1.096  -2.135  -0.042  0.00  0.00    +0.147 A 
ATOM     20  C   UNL     1      -2.191  -2.953  -0.040  0.00  0.00    +0.051 A 
ATOM     21  C   UNL     1      -1.708  -4.274  -0.063  0.00  0.00    +0.042 A 
ATOM     22  C   UNL     1      -0.360  -4.204  -0.078  0.00  0.00    +0.196 A 
ATOM     23  O   UNL     1       0.005  -2.912  -0.071  0.00  0.00    -0.462 OA
ENDBRANCH  18  19
ENDBRANCH  15  17
ENDBRANCH   2  13
TORSDOF 4
