REMARK  Name = ZINC49237137
REMARK  8 active torsions:
REMARK  status: ('A' for Active; 'I' for Inactive)
REMARK    1  A    between atoms: C_1  and  C_2
REMARK    2  A    between atoms: C_7  and  N_8
REMARK    3  A    between atoms: C_9  and  C_11
REMARK    4  A    between atoms: C_11  and  C_13
REMARK    5  A    between atoms: C_11  and  N_14
REMARK    6  A    between atoms: N_14  and  C_15
REMARK    7  A    between atoms: N_14  and  C_16
REMARK    8  A    between atoms: C_16  and  C_17
REMARK                            x       y       z     vdW  Elec       q    Type
REMARK                         _______ _______ _______ _____ _____    ______ ____
ROOT
ATOM      1  N   UNL     1      -0.107  -0.055   2.414  0.00  0.00    -0.287 N 
ATOM      2  C   UNL     1      -0.310  -0.692   3.585  0.00  0.00    +0.203 C 
ATOM      3  O   UNL     1      -0.608  -1.867   3.592  0.00  0.00    -0.277 OA
ATOM      4  H   UNL     1       0.205   0.863   2.409  0.00  0.00    +0.155 HD
ENDROOT
BRANCH   1  11
ATOM      5  C   UNL     1      -1.108   1.461   0.225  0.00  0.00    +0.046 C 
ATOM      6  C   UNL     1      -0.837  -0.017   0.112  0.00  0.00    -0.028 A 
ATOM      7  C   UNL     1      -1.068  -0.673  -1.081  0.00  0.00    +0.020 A 
ATOM      8  C   UNL     1      -0.819  -2.030  -1.185  0.00  0.00    +0.018 A 
ATOM      9  C   UNL     1      -0.338  -2.734  -0.094  0.00  0.00    +0.017 A 
ATOM     10  C   UNL     1      -0.105  -2.082   1.101  0.00  0.00    +0.024 A 
ATOM     11  C   UNL     1      -0.348  -0.719   1.206  0.00  0.00    +0.036 A 
ATOM     12 BR   UNL     1      -1.137  -2.926  -2.820  0.00  0.00    -0.050 Br
ENDBRANCH   1  11
BRANCH   2  13
ATOM     13  C   UNL     1      -0.165   0.057   4.885  0.00  0.00    +0.017 C 
ATOM     14  C   UNL     1      -1.357   0.997   5.067  0.00  0.00    -0.004 C 
BRANCH  13  15
ATOM     15  N   UNL     1      -0.120  -0.900   5.999  0.00  0.00    +0.391 N 
ATOM     16  C   UNL     1       1.096  -1.718   5.894  0.00  0.00    -0.094 C 
ATOM     17  H   UNL     1      -0.932  -1.498   5.961  0.00  0.00    -0.080 HD
BRANCH  15  18
ATOM     18  C   UNL     1      -0.110  -0.168   7.272  0.00  0.00    +0.019 C 
BRANCH  18  19
ATOM     19  C   UNL     1      -0.188  -1.148   8.415  0.00  0.00    +0.194 C 
ATOM     20  O   UNL     1      -0.247  -2.338   8.190  0.00  0.00    -0.278 OA
ATOM     21  N   UNL     1      -0.193  -0.701   9.687  0.00  0.00    -0.331 N 
ATOM     22  H   UNL     1      -0.146   0.251   9.866  0.00  0.00    +0.145 HD
ATOM     23  H   UNL     1      -0.243  -1.332  10.422  0.00  0.00    +0.145 HD
ENDBRANCH  18  19
ENDBRANCH  15  18
ENDBRANCH  13  15
ENDBRANCH   2  13
TORSDOF 5
