REMARK  Name = ZINC01320402
REMARK  2 active torsions:
REMARK  status: ('A' for Active; 'I' for Inactive)
REMARK    1  A    between atoms: C_9  and  C_13
REMARK    2  A    between atoms: C_13  and  O_24
REMARK                            x       y       z     vdW  Elec       q    Type
REMARK                         _______ _______ _______ _____ _____    ______ ____
ROOT
ATOM      1  C   UNL     1       0.002  -0.004   0.002  0.00  0.00    +0.178 C 
ATOM      2  C   UNL     1      -0.021   1.507   0.009  0.00  0.00    +0.016 A 
ATOM      3  C   UNL     1       0.518   2.447   0.858  0.00  0.00    +0.024 A 
ATOM      4  C   UNL     1       0.329   3.796   0.605  0.00  0.00    +0.018 A 
ATOM      5  C   UNL     1      -0.403   4.191  -0.501  0.00  0.00    +0.017 A 
ATOM      6  C   UNL     1      -0.944   3.251  -1.353  0.00  0.00    +0.025 A 
ATOM      7  C   UNL     1      -0.757   1.892  -1.104  0.00  0.00    +0.040 A 
ATOM      8  N   UNL     1      -1.195   0.768  -1.805  0.00  0.00    -0.282 N 
ATOM      9  C   UNL     1      -0.797  -0.379  -1.228  0.00  0.00    +0.254 C 
ATOM     10  O   UNL     1      -1.029  -1.502  -1.622  0.00  0.00    -0.272 OA
ATOM     11 BR   UNL     1       1.066   5.092   1.767  0.00  0.00    -0.050 Br
ATOM     12  H   UNL     1      -1.726   0.809  -2.616  0.00  0.00    +0.155 HD
ENDROOT
BRANCH   1  21
ATOM     13  C   UNL     1      -3.428  -4.073   3.769  0.00  0.00    +0.000 A 
ATOM     14  C   UNL     1      -2.463  -4.796   3.089  0.00  0.00    +0.001 A 
ATOM     15  C   UNL     1      -1.578  -4.148   2.254  0.00  0.00    +0.011 A 
ATOM     16  C   UNL     1      -1.660  -2.761   2.097  0.00  0.00    +0.021 A 
ATOM     17  C   UNL     1      -2.631  -2.034   2.787  0.00  0.00    -0.037 A 
ATOM     18  C   UNL     1      -3.512  -2.702   3.619  0.00  0.00    +0.004 A 
ATOM     19  C   UNL     1      -2.740  -0.540   2.654  0.00  0.00    +0.036 C 
ATOM     20  C   UNL     1      -2.113  -0.053   1.350  0.00  0.00    +0.020 C 
ATOM     21  C   UNL     1      -0.666  -0.556   1.263  0.00  0.00    +0.106 C 
ATOM     22  C   UNL     1      -0.715  -2.069   1.199  0.00  0.00    +0.170 C 
ATOM     23  O   UNL     1      -0.004  -2.689   0.438  0.00  0.00    -0.292 OA
ENDBRANCH   1  21
BRANCH   1  24
ATOM     24  O   UNL     1       1.344  -0.484  -0.107  0.00  0.00    -0.374 OA
ATOM     25  H   UNL     1       1.823  -0.141  -0.873  0.00  0.00    +0.211 HD
ENDBRANCH   1  24
TORSDOF 2
