REMARK  Name = ZINC48987153
REMARK  7 active torsions:
REMARK  status: ('A' for Active; 'I' for Inactive)
REMARK    1  A    between atoms: C_1  and  N_2
REMARK    2  A    between atoms: C_4  and  C_7
REMARK    3  A    between atoms: C_7  and  N_8
REMARK    4  A    between atoms: N_8  and  C_9
REMARK    5  A    between atoms: N_8  and  S_10
REMARK    6  A    between atoms: S_10  and  C_13
REMARK    7  A    between atoms: N_19  and  N_20
REMARK                            x       y       z     vdW  Elec       q    Type
REMARK                         _______ _______ _______ _____ _____    ______ ____
ROOT
ATOM      1  S   UNL     1       2.149  -3.144  -3.247  0.00  0.00    +0.062 S 
ATOM      2  O   UNL     1       3.193  -4.064  -3.537  0.00  0.00    -0.153 OA
ATOM      3  O   UNL     1       1.104  -2.864  -4.168  0.00  0.00    -0.153 OA
ENDROOT
BRANCH   1   4
ATOM      4  C   UNL     1       2.921  -1.605  -2.877  0.00  0.00    +0.124 A 
ATOM      5  C   UNL     1       2.222  -0.415  -3.028  0.00  0.00    +0.033 A 
ATOM      6  C   UNL     1       2.865   0.772  -2.727  0.00  0.00    +0.046 A 
ATOM      7  C   UNL     1       4.184   0.734  -2.286  0.00  0.00    +0.132 A 
ATOM      8  N   UNL     1       4.817  -0.422  -2.155  0.00  0.00    -0.237 NA
ATOM      9  C   UNL     1       4.226  -1.569  -2.429  0.00  0.00    +0.141 A 
ATOM     10  N   UNL     1       4.843   1.919  -1.980  0.00  0.00    -0.268 N 
ATOM     11  H   UNL     1       4.383   2.768  -2.075  0.00  0.00    +0.167 HD
BRANCH  10  12
ATOM     12  N   UNL     1       6.138   1.888  -1.546  0.00  0.00    -0.255 NA
ATOM     13  H   UNL     1       6.729   1.407  -2.207  0.00  0.00    +0.140 HD
ATOM     14  H   UNL     1       6.481   2.820  -1.365  0.00  0.00    +0.140 HD
ENDBRANCH  10  12
ENDBRANCH   1   4
BRANCH   1  15
ATOM     15  N   UNL     1       1.424  -3.675  -1.855  0.00  0.00    -0.175 NA
ATOM     16  C   UNL     1       2.167  -4.521  -0.919  0.00  0.00    +0.132 C 
BRANCH  15  17
ATOM     17  C   UNL     1       0.039  -3.298  -1.561  0.00  0.00    +0.147 C 
BRANCH  17  21
ATOM     18  C   UNL     1      -0.018   1.461   0.010  0.00  0.00    +0.172 C 
ATOM     19  N   UNL     1       0.002  -0.004   0.002  0.00  0.00    -0.274 N 
ATOM     20  C   UNL     1       0.008  -0.792  -1.094  0.00  0.00    +0.113 A 
ATOM     21  C   UNL     1       0.027  -2.079  -0.676  0.00  0.00    +0.006 A 
ATOM     22  C   UNL     1       0.034  -2.078   0.723  0.00  0.00    +0.139 A 
ATOM     23  N   UNL     1       0.025  -0.834   1.130  0.00  0.00    -0.180 NA
ENDBRANCH  17  21
ENDBRANCH  15  17
ENDBRANCH   1  15
TORSDOF 5
