REMARK  Name = ZINC63405666
REMARK  8 active torsions:
REMARK  status: ('A' for Active; 'I' for Inactive)
REMARK    1  A    between atoms: C_1  and  C_2
REMARK    2  A    between atoms: C_2  and  C_3
REMARK    3  A    between atoms: C_2  and  C_4
REMARK    4  A    between atoms: C_2  and  C_5
REMARK    5  A    between atoms: C_10  and  N_15
REMARK    6  A    between atoms: C_16  and  C_18
REMARK    7  A    between atoms: C_18  and  N_19
REMARK    8  A    between atoms: C_20  and  C_26
REMARK                            x       y       z     vdW  Elec       q    Type
REMARK                         _______ _______ _______ _____ _____    ______ ____
ROOT
ATOM      1  N   UNL     1       1.843   2.924  -6.017  0.00  0.00    -0.284 N 
ATOM      2  C   UNL     1       0.637   3.349  -6.443  0.00  0.00    +0.237 C 
ATOM      3  O   UNL     1      -0.343   3.193  -5.745  0.00  0.00    -0.274 OA
ATOM      4  H   UNL     1       2.637   3.116  -6.539  0.00  0.00    +0.155 HD
ENDROOT
BRANCH   1   9
ATOM      5  C   UNL     1       0.805  -0.704  -1.392  0.00  0.00    +0.266 C 
ATOM      6  N   UNL     1       0.153  -0.272  -2.635  0.00  0.00    -0.306 N 
ATOM      7  C   UNL     1       1.031   0.638  -3.243  0.00  0.00    +0.074 A 
ATOM      8  C   UNL     1       0.925   1.351  -4.429  0.00  0.00    +0.050 A 
ATOM      9  C   UNL     1       1.948   2.203  -4.819  0.00  0.00    +0.035 A 
ATOM     10  C   UNL     1       3.076   2.341  -4.022  0.00  0.00    +0.027 A 
ATOM     11  C   UNL     1       3.182   1.631  -2.842  0.00  0.00    +0.049 A 
ATOM     12  C   UNL     1       2.162   0.776  -2.445  0.00  0.00    +0.144 A 
ATOM     13  O   UNL     1       2.054  -0.011  -1.338  0.00  0.00    -0.469 OA
ATOM     14  H   UNL     1      -0.711  -0.558  -2.970  0.00  0.00    +0.150 HD
BRANCH   5  16
ATOM     15  C   UNL     1      -0.271   1.187  -0.164  0.00  0.00    +0.016 C 
ATOM     16  C   UNL     1      -0.059  -0.328  -0.186  0.00  0.00    +0.016 C 
ATOM     17  C   UNL     1       0.645  -0.764   1.101  0.00  0.00    +0.016 C 
ATOM     18  C   UNL     1      -1.413  -1.032  -0.290  0.00  0.00    +0.016 C 
ENDBRANCH   5  16
ENDBRANCH   1   9
BRANCH   2  19
ATOM     19  C   UNL     1       0.507   4.019  -7.787  0.00  0.00    +0.221 C 
BRANCH  19  20
ATOM     20  N   UNL     1      -0.893   4.386  -8.016  0.00  0.00    -0.294 N 
ATOM     21  C   UNL     1      -1.851   3.590  -8.616  0.00  0.00    +0.170 A 
ATOM     22  H   UNL     1      -3.423   6.203  -7.940  0.00  0.00    +0.191 HD
ATOM     23  N   UNL     1      -2.978   4.250  -8.646  0.00  0.00    -0.153 NA
ATOM     24  N   UNL     1      -2.762   5.503  -8.056  0.00  0.00    -0.254 N 
ATOM     25  C   UNL     1      -1.470   5.554  -7.672  0.00  0.00    +0.176 A 
ATOM     26  S   UNL     1      -0.700   6.870  -6.892  0.00  0.00    -0.011 S 
BRANCH  21  27
ATOM     27  C   UNL     1      -1.637   2.228  -9.135  0.00  0.00    +0.056 A 
ATOM     28  C   UNL     1      -2.530   1.385  -9.745  0.00  0.00    +0.019 A 
ATOM     29  C   UNL     1      -2.096   0.144 -10.152  0.00  0.00    +0.008 A 
ATOM     30  C   UNL     1      -0.801  -0.207  -9.939  0.00  0.00    +0.046 A 
ATOM     31  S   UNL     1      -0.144   1.249  -9.142  0.00  0.00    -0.094 S 
ENDBRANCH  21  27
ENDBRANCH  19  20
ENDBRANCH   2  19
TORSDOF 5
