REMARK  Name = ZINC06571298
REMARK  8 active torsions:
REMARK  status: ('A' for Active; 'I' for Inactive)
REMARK    1  A    between atoms: C_1  and  C_2
REMARK    2  A    between atoms: C_3  and  C_24
REMARK    3  A    between atoms: C_7  and  N_8
REMARK    4  A    between atoms: N_8  and  C_9
REMARK    5  A    between atoms: C_9  and  N_11
REMARK    6  A    between atoms: C_12  and  C_14
REMARK    7  A    between atoms: C_14  and  O_15
REMARK    8  A    between atoms: O_15  and  C_16
REMARK                            x       y       z     vdW  Elec       q    Type
REMARK                         _______ _______ _______ _____ _____    ______ ____
ROOT
ATOM      1  C   UNL     1       3.358  -2.261  -0.005  0.00  0.00    +0.141 C 
ATOM      2  S   UNL     1       1.793  -2.954  -0.002  0.00  0.00    -0.018 S 
ENDROOT
BRANCH   1   3
ATOM      3  N   UNL     1       4.446  -3.053   0.064  0.00  0.00    -0.265 N 
ATOM      4  C   UNL     1       4.301  -4.391   0.135  0.00  0.00    +0.256 C 
ATOM      5  O   UNL     1       3.193  -4.882   0.137  0.00  0.00    -0.272 OA
ATOM      6  H   UNL     1       5.333  -2.661   0.062  0.00  0.00    +0.157 HD
BRANCH   4   7
ATOM      7  C   UNL     1       5.518  -5.278   0.212  0.00  0.00    +0.325 C 
BRANCH   7   8
ATOM      8  O   UNL     1       5.108  -6.645   0.279  0.00  0.00    -0.481 OA
BRANCH   8   9
ATOM      9  C   UNL     1       6.091  -7.581   0.354  0.00  0.00    +0.140 A 
ATOM     10  C   UNL     1       7.422  -7.192   0.362  0.00  0.00    +0.048 A 
ATOM     11  C   UNL     1       8.419  -8.144   0.438  0.00  0.00    +0.023 A 
ATOM     12  C   UNL     1       8.091  -9.487   0.505  0.00  0.00    +0.043 A 
ATOM     13  C   UNL     1       6.765  -9.879   0.496  0.00  0.00    +0.043 A 
ATOM     14  C   UNL     1       5.763  -8.928   0.427  0.00  0.00    +0.084 A 
ATOM     15 CL   UNL     1       4.098  -9.419   0.424  0.00  0.00    -0.080 Cl
ATOM     16 CL   UNL     1       9.347 -10.682   0.600  0.00  0.00    -0.083 Cl
ENDBRANCH   8   9
ENDBRANCH   7   8
ENDBRANCH   4   7
ENDBRANCH   1   3
BRANCH   1  17
ATOM     17  N   UNL     1       3.503  -0.923  -0.076  0.00  0.00    -0.296 N 
ATOM     18  H   UNL     1       4.388  -0.533  -0.146  0.00  0.00    +0.154 HD
BRANCH  17  25
ATOM     19  C   UNL     1       3.536   1.336   1.650  0.00  0.00    +0.046 C 
ATOM     20  C   UNL     1       2.350   1.017   0.777  0.00  0.00    -0.015 A 
ATOM     21  C   UNL     1       1.223   1.839   0.799  0.00  0.00    +0.068 A 
ATOM     22  C   UNL     1       0.128   1.537  -0.013  0.00  0.00    +0.015 A 
ATOM     23  C   UNL     1       0.163   0.427  -0.833  0.00  0.00    +0.003 A 
ATOM     24  C   UNL     1       1.280  -0.387  -0.855  0.00  0.00    +0.023 A 
ATOM     25  C   UNL     1       2.375  -0.095  -0.050  0.00  0.00    +0.036 A 
BRANCH  21  26
ATOM     26  C   UNL     1       1.189   3.026   1.678  0.00  0.00    +0.387 C 
ATOM     27  O   UNL     1       2.115   3.252   2.430  0.00  0.00    -0.241 OA
ATOM     28  O   UNL     1       0.130   3.858   1.646  0.00  0.00    -0.241 OA
ENDBRANCH  21  26
ENDBRANCH  17  25
ENDBRANCH   1  17
TORSDOF 7
