REMARK  Name = ZINC37578637
REMARK  9 active torsions:
REMARK  status: ('A' for Active; 'I' for Inactive)
REMARK    1  A    between atoms: C_1  and  N_2
REMARK    2  A    between atoms: C_3  and  C_5
REMARK    3  A    between atoms: C_5  and  N_6
REMARK    4  A    between atoms: N_6  and  C_7
REMARK    5  A    between atoms: N_6  and  S_8
REMARK    6  A    between atoms: S_8  and  C_11
REMARK    7  A    between atoms: C_16  and  C_17
REMARK    8  A    between atoms: C_18  and  C_19
REMARK    9  A    between atoms: C_19  and  O_20
REMARK                            x       y       z     vdW  Elec       q    Type
REMARK                         _______ _______ _______ _____ _____    ______ ____
ROOT
ATOM      1  S   UNL     1       0.699  -3.012  -3.541  0.00  0.00    +0.062 S 
ATOM      2  O   UNL     1       1.107  -3.999  -4.478  0.00  0.00    -0.153 OA
ATOM      3  O   UNL     1      -0.462  -3.160  -2.735  0.00  0.00    -0.153 OA
ENDROOT
BRANCH   1   4
ATOM      4  C   UNL     1       0.495  -1.513  -4.446  0.00  0.00    +0.121 A 
ATOM      5  C   UNL     1      -0.588  -0.696  -4.195  0.00  0.00    +0.030 A 
ATOM      6  C   UNL     1      -0.750   0.481  -4.904  0.00  0.00    +0.002 A 
ATOM      7  C   UNL     1       0.172   0.846  -5.869  0.00  0.00    +0.001 A 
ATOM      8  C   UNL     1       1.259   0.038  -6.130  0.00  0.00    +0.019 A 
ATOM      9  C   UNL     1       1.431  -1.148  -5.414  0.00  0.00    +0.051 A 
BRANCH   9  10
ATOM     10  C   UNL     1       2.560  -1.989  -5.675  0.00  0.00    -0.062 C 
ATOM     11  C   UNL     1       3.486  -2.678  -5.890  0.00  0.00    -0.069 C 
BRANCH  11  12
ATOM     12  C   UNL     1       4.647  -3.542  -6.159  0.00  0.00    +0.244 C 
BRANCH  12  13
ATOM     13  O   UNL     1       5.451  -2.955  -7.184  0.00  0.00    -0.383 OA
ATOM     14  H   UNL     1       6.235  -3.472  -7.413  0.00  0.00    +0.211 HD
ENDBRANCH  12  13
ENDBRANCH  11  12
ENDBRANCH   9  10
ENDBRANCH   1   4
BRANCH   1  15
ATOM     15  N   UNL     1       1.970  -2.788  -2.505  0.00  0.00    -0.171 NA
ATOM     16  C   UNL     1       3.311  -3.246  -2.880  0.00  0.00    +0.132 C 
BRANCH  15  17
ATOM     17  C   UNL     1       1.755  -2.133  -1.212  0.00  0.00    +0.204 C 
BRANCH  17  20
ATOM     18  C   UNL     1       2.392   1.541  -0.349  0.00  0.00    +0.128 C 
ATOM     19  N   UNL     1       1.994   0.134  -0.252  0.00  0.00    -0.317 N 
ATOM     20  C   UNL     1       2.069  -0.664  -1.335  0.00  0.00    +0.229 C 
ATOM     21  O   UNL     1       2.390  -0.200  -2.409  0.00  0.00    -0.274 OA
ATOM     22  H   UNL     1       1.676  -0.223   0.592  0.00  0.00    +0.148 HD
ENDBRANCH  17  20
ENDBRANCH  15  17
ENDBRANCH   1  15
TORSDOF 7
