REMARK  Name = ZINC39674248
REMARK  7 active torsions:
REMARK  status: ('A' for Active; 'I' for Inactive)
REMARK    1  A    between atoms: C_1  and  C_2
REMARK    2  A    between atoms: C_4  and  C_9
REMARK    3  A    between atoms: C_5  and  C_8
REMARK    4  A    between atoms: C_9  and  C_11
REMARK    5  A    between atoms: C_9  and  N_12
REMARK    6  A    between atoms: C_13  and  C_15
REMARK    7  A    between atoms: C_26  and  C_28
REMARK                            x       y       z     vdW  Elec       q    Type
REMARK                         _______ _______ _______ _____ _____    ______ ____
ROOT
ATOM      1  C   UNL     1      -4.085   2.761  -1.214  0.00  0.00    +0.100 C 
ATOM      2  C   UNL     1      -3.666   3.837  -0.188  0.00  0.00    +0.121 C 
ATOM      3  N   UNL     1      -4.756   4.840  -0.231  0.00  0.00    -0.296 N 
ATOM      4  C   UNL     1      -5.994   4.034  -0.358  0.00  0.00    +0.115 C 
ATOM      5  C   UNL     1      -5.614   2.892  -1.322  0.00  0.00    -0.004 C 
ATOM      6  C   UNL     1      -6.288   1.593  -0.892  0.00  0.00    -0.010 C 
ATOM      7  C   UNL     1      -7.803   1.728  -1.063  0.00  0.00    -0.082 C 
ATOM      8  N   UNL     1      -8.115   2.023  -2.467  0.00  0.00    +0.379 N 
ATOM      9  C   UNL     1      -7.541   3.320  -2.845  0.00  0.00    -0.082 C 
ATOM     10  C   UNL     1      -6.014   3.252  -2.750  0.00  0.00    -0.010 C 
ATOM     11  C   UNL     1      -4.647   6.182  -0.168  0.00  0.00    +0.247 C 
ATOM     12  O   UNL     1      -3.549   6.703  -0.165  0.00  0.00    -0.270 OA
ATOM     13  H   UNL     1      -7.727   1.300  -3.055  0.00  0.00    -0.086 HD
ATOM     14  H   UNL     1      -9.116   2.051  -2.589  0.00  0.00    -0.086 HD
ENDROOT
BRANCH  11  15
ATOM     15  C   UNL     1      -5.864   7.020  -0.103  0.00  0.00    +0.040 A 
ATOM     16  C   UNL     1      -7.067   6.474   0.346  0.00  0.00    +0.033 A 
ATOM     17  C   UNL     1      -8.200   7.262   0.404  0.00  0.00    +0.043 A 
ATOM     18  C   UNL     1      -8.143   8.591   0.018  0.00  0.00    +0.040 A 
ATOM     19  C   UNL     1      -6.952   9.137  -0.428  0.00  0.00    +0.043 A 
ATOM     20  C   UNL     1      -5.811   8.361  -0.485  0.00  0.00    +0.033 A 
ATOM     21 CL   UNL     1      -6.891  10.804  -0.910  0.00  0.00    -0.083 Cl
ATOM     22 CL   UNL     1      -9.698   6.585   0.962  0.00  0.00    -0.083 Cl
ENDBRANCH  11  15
BRANCH   1  24
ATOM     23  N   UNL     1      -3.445   0.403  -1.598  0.00  0.00    -0.309 N 
ATOM     24  C   UNL     1      -3.710   1.388  -0.718  0.00  0.00    +0.219 C 
ATOM     25  O   UNL     1      -3.647   1.171   0.474  0.00  0.00    -0.275 OA
ATOM     26  H   UNL     1      -3.496   0.576  -2.551  0.00  0.00    +0.149 HD
BRANCH  23  27
ATOM     27  C   UNL     1      -3.081  -0.932  -1.115  0.00  0.00    +0.100 C 
ATOM     28  C   UNL     1      -4.351  -1.721  -0.790  0.00  0.00    +0.033 C 
BRANCH  27  31
ATOM     29  C   UNL     1      -3.048  -0.736  -4.391  0.00  0.00    +0.039 C 
ATOM     30  C   UNL     1      -2.740  -2.004  -3.591  0.00  0.00    +0.154 C 
ATOM     31  C   UNL     1      -2.299  -1.655  -2.181  0.00  0.00    -0.001 C 
ATOM     32  C   UNL     1      -1.057  -2.138  -2.104  0.00  0.00    +0.063 C 
ATOM     33  N   UNL     1      -0.697  -2.724  -3.268  0.00  0.00    -0.159 NA
ATOM     34  N   UNL     1      -1.567  -2.699  -4.147  0.00  0.00    -0.180 NA
ATOM     35  C   UNL     1      -0.175  -2.044  -0.886  0.00  0.00    +0.067 C 
ENDBRANCH  27  31
ENDBRANCH  23  27
ENDBRANCH   1  24
TORSDOF 4
