REMARK  Name = ZINC35185317
REMARK  7 active torsions:
REMARK  status: ('A' for Active; 'I' for Inactive)
REMARK    1  A    between atoms: C_1  and  C_2
REMARK    2  A    between atoms: C_9  and  C_13
REMARK    3  A    between atoms: C_13  and  S_14
REMARK    4  A    between atoms: S_14  and  C_15
REMARK    5  A    between atoms: C_15  and  C_16
REMARK    6  A    between atoms: C_16  and  C_18
REMARK    7  A    between atoms: C_16  and  N_21
REMARK                            x       y       z     vdW  Elec       q    Type
REMARK                         _______ _______ _______ _____ _____    ______ ____
ROOT
ATOM      1  C   UNK     1      -0.018   1.503   0.010  0.00  0.00    +0.047 C 
ATOM      2  C   UNK     1       0.002  -0.004   0.002  0.00  0.00    -0.008 A 
ATOM      3  C   UNK     1       0.006  -0.685  -1.179  0.00  0.00    +0.008 A 
ATOM      4  C   UNK     1       0.025  -2.086  -1.169  0.00  0.00    +0.019 A 
ATOM      5  C   UNK     1       0.039  -2.757   0.005  0.00  0.00    +0.096 A 
ATOM      6  N   UNK     1       0.035  -2.087   1.190  0.00  0.00    -0.268 N 
ATOM      7  C   UNK     1       0.023  -0.720   1.213  0.00  0.00    +0.143 A 
ATOM      8  N   UNK     1       0.025  -0.056   2.368  0.00  0.00    -0.233 NA
ATOM      9  C   UNK     1       0.045  -0.693   3.528  0.00  0.00    +0.059 A 
ATOM     10  C   UNK     1       0.064  -2.074   3.559  0.00  0.00    +0.094 A 
ATOM     11  C   UNK     1       0.050  -2.779   2.349  0.00  0.00    +0.259 A 
ATOM     12  O   UNK     1       0.066  -3.999   2.343  0.00  0.00    -0.267 OA
ENDROOT
BRANCH   9  13
ATOM     13  C   UNK     1       0.047   0.089   4.816  0.00  0.00    +0.124 C 
BRANCH  13  14
ATOM     14  S   UNK     1       1.692   0.803   5.088  0.00  0.00    -0.156 S 
BRANCH  14  15
ATOM     15  C   UNK     1       1.528   1.699   6.656  0.00  0.00    +0.064 C 
BRANCH  15  16
ATOM     16  C   UNK     1       2.863   2.359   7.008  0.00  0.00    +0.050 C 
BRANCH  16  17
ATOM     17  N   UNK     1       3.900   1.326   7.141  0.00  0.00    +0.388 N 
ATOM     18  H   UNK     1       3.991   0.827   6.268  0.00  0.00    -0.089 HD
ATOM     19  H   UNK     1       4.780   1.761   7.373  0.00  0.00    -0.089 HD
ATOM     20  H   UNK     1       3.640   0.681   7.872  0.00  0.00    -0.089 HD
ENDBRANCH  16  17
BRANCH  16  21
ATOM     21  C   UNK     1       2.727   3.103   8.312  0.00  0.00    +0.343 C 
ATOM     22  O   UNK     1       3.290   2.691   9.311  0.00  0.00    -0.248 OA
ATOM     23  O   UNK     1       2.054   4.118   8.366  0.00  0.00    -0.248 OA
ENDBRANCH  16  21
ENDBRANCH  15  16
ENDBRANCH  14  15
ENDBRANCH  13  14
ENDBRANCH   9  13
TORSDOF 6
