REMARK  Name = ZINC48943898
REMARK  7 active torsions:
REMARK  status: ('A' for Active; 'I' for Inactive)
REMARK    1  A    between atoms: C_1  and  C_2
REMARK    2  A    between atoms: C_4  and  C_8
REMARK    3  A    between atoms: N_10  and  C_11
REMARK    4  A    between atoms: C_14  and  C_23
REMARK    5  A    between atoms: C_18  and  C_20
REMARK    6  A    between atoms: C_20  and  C_21
REMARK    7  A    between atoms: C_20  and  C_22
REMARK                            x       y       z     vdW  Elec       q    Type
REMARK                         _______ _______ _______ _____ _____    ______ ____
ROOT
ATOM      1  C   UNL     1      -0.448  -3.287  -1.667  0.00  0.00    +0.263 C 
ATOM      2  O   UNL     1      -0.430  -3.393  -2.878  0.00  0.00    -0.269 OA
ATOM      3  N   UNL     1      -0.204  -4.363  -0.892  0.00  0.00    -0.307 N 
ATOM      4  H   UNL     1      -0.219  -4.279   0.074  0.00  0.00    +0.149 HD
ENDROOT
BRANCH   1   8
ATOM      5  C   UNL     1      -1.539   1.604  -0.881  0.00  0.00    +0.068 C 
ATOM      6  C   UNL     1      -1.212   0.145  -0.686  0.00  0.00    +0.074 A 
ATOM      7  C   UNL     1      -1.006  -0.794  -1.700  0.00  0.00    +0.070 A 
ATOM      8  C   UNL     1      -0.737  -1.985  -1.047  0.00  0.00    +0.134 A 
ATOM      9  N   UNL     1      -0.794  -1.708   0.291  0.00  0.00    -0.271 N 
ATOM     10  H   UNL     1      -0.647  -2.351   1.002  0.00  0.00    +0.189 HD
ATOM     11  N   UNL     1      -1.066  -0.464   0.462  0.00  0.00    -0.177 NA
ATOM     12 BR   UNL     1      -1.079  -0.502  -3.567  0.00  0.00    -0.046 Br
ENDBRANCH   1   8
BRANCH   3  13
ATOM     13  C   UNL     1       0.083  -5.660  -1.510  0.00  0.00    +0.077 C 
ATOM     14  C   UNL     1       1.580  -5.762  -1.809  0.00  0.00    +0.026 C 
ATOM     15  C   UNL     1       1.880  -7.117  -2.454  0.00  0.00    -0.012 C 
ATOM     16  C   UNL     1       1.473  -8.239  -1.496  0.00  0.00    +0.004 C 
ATOM     17  C   UNL     1      -0.024  -8.137  -1.198  0.00  0.00    +0.006 C 
ATOM     18  C   UNL     1      -0.324  -6.782  -0.553  0.00  0.00    +0.012 C 
ATOM     19  C   UNL     1       3.377  -7.219  -2.752  0.00  0.00    +0.007 C 
BRANCH  18  20
ATOM     20  C   UNL     1      -1.821  -6.680  -0.254  0.00  0.00    -0.012 C 
ATOM     21  C   UNL     1      -2.616  -6.946  -1.534  0.00  0.00    +0.007 C 
ATOM     22  C   UNL     1      -2.202  -7.715   0.806  0.00  0.00    +0.007 C 
ENDBRANCH  18  20
ENDBRANCH   3  13
TORSDOF 3
