REMARK  Name = ZINC62363724
REMARK  3 active torsions:
REMARK  status: ('A' for Active; 'I' for Inactive)
REMARK    1  A    between atoms: C_1  and  C_2
REMARK    2  A    between atoms: C_6  and  C_18
REMARK    3  A    between atoms: C_11  and  N_17
REMARK                            x       y       z     vdW  Elec       q    Type
REMARK                         _______ _______ _______ _____ _____    ______ ____
ROOT
ATOM      1  C   UNL     1      -0.063   1.494   0.047  0.00  0.00    +0.028 C 
ATOM      2  C   UNL     1      -0.037  -0.035   0.073  0.00  0.00    +0.072 C 
ATOM      3  C   UNL     1      -1.469  -0.572   0.154  0.00  0.00    +0.023 C 
ATOM      4  C   UNL     1      -2.090  -0.158   1.491  0.00  0.00    +0.016 C 
ATOM      5  C   UNL     1      -1.281  -0.764   2.640  0.00  0.00    +0.092 C 
ATOM      6  C   UNL     1       0.154  -0.229   2.587  0.00  0.00    +0.119 C 
ATOM      7  N   UNL     1       0.711  -0.495   1.250  0.00  0.00    -0.310 N 
ATOM      8  C   UNL     1       1.916  -1.169   1.104  0.00  0.00    +0.147 A 
ATOM      9  C   UNL     1       1.947  -2.569   1.041  0.00  0.00    +0.102 A 
ATOM     10  C   UNL     1       3.178  -3.192   0.894  0.00  0.00    +0.155 A 
ATOM     11  N   UNL     1       4.274  -2.447   0.819  0.00  0.00    -0.222 NA
ATOM     12  C   UNL     1       4.207  -1.133   0.882  0.00  0.00    +0.225 A 
ATOM     13  N   UNL     1       3.059  -0.498   1.016  0.00  0.00    -0.219 NA
ATOM     14 CL   UNL     1       3.284  -4.923   0.809  0.00  0.00    -0.060 Cl
ENDROOT
BRANCH   5  15
ATOM     15  C   UNL     1      -1.911  -0.383   3.954  0.00  0.00    +0.215 C 
ATOM     16  O   UNL     1      -1.277   0.251   4.771  0.00  0.00    -0.276 OA
ATOM     17  N   UNL     1      -3.181  -0.747   4.223  0.00  0.00    -0.329 N 
ATOM     18  H   UNL     1      -3.689  -1.254   3.571  0.00  0.00    +0.145 HD
ATOM     19  H   UNL     1      -3.587  -0.502   5.069  0.00  0.00    +0.145 HD
ENDBRANCH   5  15
BRANCH   9  20
ATOM     20  N   UNL     1       0.766  -3.319   1.124  0.00  0.00    -0.353 N 
ATOM     21  H   UNL     1      -0.094  -2.870   1.134  0.00  0.00    +0.143 HD
ATOM     22  H   UNL     1       0.808  -4.287   1.171  0.00  0.00    +0.143 HD
ENDBRANCH   9  20
TORSDOF 2
