REMARK  Name = ZINC41036664
REMARK  5 active torsions:
REMARK  status: ('A' for Active; 'I' for Inactive)
REMARK    1  A    between atoms: C_1  and  C_2
REMARK    2  A    between atoms: C_7  and  C_9
REMARK    3  A    between atoms: C_7  and  N_12
REMARK    4  A    between atoms: C_13  and  C_15
REMARK    5  A    between atoms: C_15  and  N_21
REMARK                            x       y       z     vdW  Elec       q    Type
REMARK                         _______ _______ _______ _____ _____    ______ ____
ROOT
ATOM      1  N   UNL     1       1.268  -2.532  -0.068  0.00  0.00    -0.301 N 
ATOM      2  C   UNL     1       1.588  -3.835  -0.194  0.00  0.00    +0.202 C 
ATOM      3  O   UNL     1       1.308  -4.617   0.690  0.00  0.00    -0.277 OA
ATOM      4  H   UNL     1       1.492  -1.907  -0.775  0.00  0.00    +0.150 HD
ENDROOT
BRANCH   1  10
ATOM      5  C   UNL     1      -0.774   1.241  -0.308  0.00  0.00    +0.007 C 
ATOM      6  C   UNL     1      -0.530  -0.265  -0.198  0.00  0.00    -0.012 C 
ATOM      7  C   UNL     1      -1.870  -0.990  -0.057  0.00  0.00    +0.003 C 
ATOM      8  C   UNL     1      -1.626  -2.496   0.053  0.00  0.00    +0.003 C 
ATOM      9  C   UNL     1      -0.758  -2.784   1.279  0.00  0.00    +0.037 C 
ATOM     10  C   UNL     1       0.582  -2.060   1.138  0.00  0.00    +0.136 C 
ATOM     11  C   UNL     1       0.338  -0.553   1.028  0.00  0.00    +0.040 C 
BRANCH  10  12
ATOM     12  C   UNL     1       1.437  -2.344   2.346  0.00  0.00    +0.379 C 
ATOM     13  O   UNL     1       2.519  -2.890   2.212  0.00  0.00    -0.244 OA
ATOM     14  O   UNL     1       1.047  -2.027   3.457  0.00  0.00    -0.244 OA
ENDBRANCH  10  12
ENDBRANCH   1  10
BRANCH   2  15
ATOM     15  C   UNL     1       2.293  -4.321  -1.434  0.00  0.00    +0.007 C 
ATOM     16  C   UNL     1       1.276  -4.499  -2.563  0.00  0.00    -0.004 C 
ATOM     17  C   UNL     1       0.220  -5.523  -2.142  0.00  0.00    -0.001 C 
ATOM     18  C   UNL     1       0.898  -6.864  -1.851  0.00  0.00    -0.000 C 
ATOM     19  C   UNL     1       1.915  -6.686  -0.722  0.00  0.00    -0.001 C 
ATOM     20  C   UNL     1       2.971  -5.662  -1.143  0.00  0.00    -0.004 C 
BRANCH  15  21
ATOM     21  N   UNL     1       3.306  -3.338  -1.838  0.00  0.00    +0.388 N 
ATOM     22  H   UNL     1       3.977  -3.220  -1.093  0.00  0.00    -0.089 HD
ATOM     23  H   UNL     1       3.779  -3.663  -2.668  0.00  0.00    -0.089 HD
ATOM     24  H   UNL     1       2.859  -2.454  -2.030  0.00  0.00    -0.089 HD
ENDBRANCH  15  21
ENDBRANCH   2  15
TORSDOF 4
