REMARK  Name = ZINC59148065
REMARK  4 active torsions:
REMARK  status: ('A' for Active; 'I' for Inactive)
REMARK    1  A    between atoms: C_6  and  C_11
REMARK    2  A    between atoms: N_12  and  N_13
REMARK    3  A    between atoms: C_14  and  C_16
REMARK    4  A    between atoms: C_21  and  O_22
REMARK                            x       y       z     vdW  Elec       q    Type
REMARK                         _______ _______ _______ _____ _____    ______ ____
ROOT
ATOM      1  N   UNL     1       8.316  -0.974  -0.081  0.00  0.00    -0.203 N 
ATOM      2  C   UNL     1       9.497  -0.324  -0.088  0.00  0.00    +0.267 C 
ATOM      3  O   UNL     1       9.522   0.892  -0.082  0.00  0.00    -0.268 OA
ATOM      4  H   UNL     1       8.296  -1.944  -0.086  0.00  0.00    +0.178 HD
ENDROOT
BRANCH   2   5
ATOM      5  C   UNL     1      10.759  -1.088  -0.104  0.00  0.00    +0.081 A 
ATOM      6  C   UNL     1      10.735  -2.485  -0.117  0.00  0.00    +0.032 A 
ATOM      7  C   UNL     1      11.918  -3.192  -0.132  0.00  0.00    +0.019 A 
ATOM      8  C   UNL     1      13.132  -2.524  -0.133  0.00  0.00    +0.019 A 
ATOM      9  C   UNL     1      13.170  -1.144  -0.120  0.00  0.00    +0.047 A 
ATOM     10  C   UNL     1      11.989  -0.416  -0.111  0.00  0.00    +0.129 A 
ATOM     11 BR   UNL     1      11.884  -5.083  -0.149  0.00  0.00    -0.050 Br
BRANCH  10  12
ATOM     12  O   UNL     1      12.025   0.940  -0.105  0.00  0.00    -0.506 OA
ATOM     13  H   UNL     1      12.043   1.329   0.781  0.00  0.00    +0.292 HD
ENDBRANCH  10  12
ENDBRANCH   2   5
BRANCH   1  15
ATOM     14  C   UNL     1       5.981  -0.875  -0.059  0.00  0.00    +0.138 C 
ATOM     15  N   UNL     1       7.118  -0.249  -0.066  0.00  0.00    -0.187 NA
BRANCH  14  21
ATOM     16  C   UNL     1      -0.017   1.389   0.010  0.00  0.00    +0.020 A 
ATOM     17  C   UNL     1       1.158   2.087   0.002  0.00  0.00    +0.011 A 
ATOM     18  C   UNL     1       2.363   1.362  -0.013  0.00  0.00    +0.000 A 
ATOM     19  C   UNL     1       3.607   2.018  -0.021  0.00  0.00    +0.010 A 
ATOM     20  C   UNL     1       4.755   1.295  -0.035  0.00  0.00    +0.010 A 
ATOM     21  C   UNL     1       4.720  -0.112  -0.043  0.00  0.00    -0.003 A 
ATOM     22  C   UNL     1       3.509  -0.786  -0.036  0.00  0.00    +0.037 A 
ATOM     23  C   UNL     1       2.311  -0.055  -0.020  0.00  0.00    +0.072 A 
ATOM     24  N   UNL     1       1.127  -0.678  -0.012  0.00  0.00    -0.255 NA
ATOM     25  C   UNL     1       0.002  -0.004   0.002  0.00  0.00    +0.111 A 
ENDBRANCH  14  21
ENDBRANCH   1  15
TORSDOF 4
