REMARK  Name = ZINC33426610
REMARK  7 active torsions:
REMARK  status: ('A' for Active; 'I' for Inactive)
REMARK    1  A    between atoms: C_1  and  C_2
REMARK    2  A    between atoms: C_2  and  O_3
REMARK    3  A    between atoms: O_3  and  C_4
REMARK    4  A    between atoms: C_4  and  C_6
REMARK    5  A    between atoms: C_7  and  C_20
REMARK    6  A    between atoms: C_8  and  C_13
REMARK    7  A    between atoms: C_11  and  N_12
REMARK                            x       y       z     vdW  Elec       q    Type
REMARK                         _______ _______ _______ _____ _____    ______ ____
ROOT
ATOM      1  C   UNL     1      -1.248  -2.095   0.003  0.00  0.00    +0.101 A 
ATOM      2  C   UNL     1      -1.294  -2.969  -1.174  0.00  0.00    -0.009 A 
ATOM      3  C   UNL     1      -1.338  -4.242  -0.710  0.00  0.00    +0.052 A 
ATOM      4  N   UNL     1      -1.324  -4.218   0.669  0.00  0.00    -0.342 N 
ATOM      5  H   UNL     1      -1.360  -5.161   1.236  0.00  0.00    +0.167 HD
ATOM      6  C   UNL     1      -1.264  -2.938   1.113  0.00  0.00    +0.109 A 
ATOM      7  C   UNL     1      -1.290  -2.536  -2.617  0.00  0.00    +0.047 C 
ENDROOT
BRANCH   3   8
ATOM      8  C   UNL     1      -1.393  -5.459  -1.546  0.00  0.00    -0.001 A 
ATOM      9  C   UNL     1      -2.264  -5.522  -2.635  0.00  0.00    +0.011 A 
ATOM     10  C   UNL     1      -2.307  -6.658  -3.416  0.00  0.00    +0.016 A 
ATOM     11  C   UNL     1      -1.496  -7.739  -3.115  0.00  0.00    +0.018 A 
ATOM     12  C   UNL     1      -0.634  -7.685  -2.033  0.00  0.00    +0.016 A 
ATOM     13  C   UNL     1      -0.578  -6.552  -1.248  0.00  0.00    +0.011 A 
ATOM     14 BR   UNL     1      -1.566  -9.296  -4.186  0.00  0.00    -0.050 Br
ENDBRANCH   3   8
BRANCH   6  15
ATOM     15  N   UNL     1      -1.228  -2.539   2.431  0.00  0.00    -0.344 N 
ATOM     16  H   UNL     1      -1.245  -3.291   3.234  0.00  0.00    +0.144 HD
ATOM     17  H   UNL     1      -1.183  -1.469   2.681  0.00  0.00    +0.144 HD
ENDBRANCH   6  15
BRANCH   1  18
ATOM     18  C   UNL     1      -1.191  -0.633   0.010  0.00  0.00    +0.343 C 
ATOM     19  O   UNL     1      -2.220   0.016   0.023  0.00  0.00    -0.245 OA
BRANCH  18  20
ATOM     20  O   UNL     1       0.002  -0.004   0.002  0.00  0.00    -0.461 OA
BRANCH  20  22
ATOM     21  C   UNL     1       1.418   1.977  -0.001  0.00  0.00    +0.048 C 
ATOM     22  C   UNL     1      -0.018   1.448   0.010  0.00  0.00    +0.229 C 
ENDBRANCH  20  22
ENDBRANCH  18  20
ENDBRANCH   1  18
TORSDOF 5
