REMARK  Name = ZINC67537206
REMARK  6 active torsions:
REMARK  status: ('A' for Active; 'I' for Inactive)
REMARK    1  A    between atoms: C_1  and  C_2
REMARK    2  A    between atoms: C_4  and  C_24
REMARK    3  A    between atoms: C_5  and  N_9
REMARK    4  A    between atoms: N_12  and  C_13
REMARK    5  A    between atoms: C_13  and  C_15
REMARK    6  A    between atoms: C_13  and  C_16
REMARK                            x       y       z     vdW  Elec       q    Type
REMARK                         _______ _______ _______ _____ _____    ______ ____
ROOT
ATOM      1  N   UNL     1       0.054  -4.176  -0.030  0.00  0.00    -0.268 N 
ATOM      2  C   UNL     1       0.473  -4.848   1.061  0.00  0.00    +0.304 C 
ATOM      3  O   UNL     1       0.750  -4.243   2.079  0.00  0.00    -0.252 OA
ATOM      4  N   UNL     1       0.585  -6.191   1.024  0.00  0.00    -0.288 N 
ATOM      5  H   UNL     1      -0.215  -4.663  -0.825  0.00  0.00    +0.156 HD
ATOM      6  H   UNL     1       0.364  -6.674   0.213  0.00  0.00    +0.151 HD
ENDROOT
BRANCH   1  11
ATOM      7  C   UNL     1      -0.133   1.495   0.028  0.00  0.00    +0.044 C 
ATOM      8  C   UNL     1      -0.083  -0.011   0.013  0.00  0.00    -0.049 A 
ATOM      9  C   UNL     1      -1.117  -0.731  -0.559  0.00  0.00    +0.008 A 
ATOM     10  C   UNL     1      -1.074  -2.111  -0.574  0.00  0.00    -0.028 A 
ATOM     11  C   UNL     1       0.009  -2.777  -0.016  0.00  0.00    +0.056 A 
ATOM     12  C   UNL     1       1.046  -2.052   0.557  0.00  0.00    +0.063 A 
ATOM     13  C   UNL     1       0.999  -0.671   0.566  0.00  0.00    +0.025 A 
ATOM     14 CL   UNL     1       2.402  -2.880   1.258  0.00  0.00    -0.082 Cl
ATOM     15  C   UNL     1      -2.202  -2.893  -1.197  0.00  0.00    +0.046 C 
ENDBRANCH   1  11
BRANCH   4  16
ATOM     16  C   UNL     1       1.040  -6.921   2.210  0.00  0.00    +0.157 C 
ATOM     17  C   UNL     1      -0.151  -7.192   3.131  0.00  0.00    +0.038 C 
BRANCH  16  18
ATOM     18  C   UNL     1       1.657  -8.229   1.788  0.00  0.00    +0.236 C 
ATOM     19  O   UNL     1       1.334  -8.741   0.737  0.00  0.00    -0.274 OA
ATOM     20  N   UNL     1       2.567  -8.831   2.580  0.00  0.00    -0.298 N 
ATOM     21  C   UNL     1       2.861  -8.271   3.899  0.00  0.00    +0.118 C 
ATOM     22  C   UNL     1       2.404  -9.252   4.985  0.00  0.00    +0.088 C 
ATOM     23  S   UNL     1       3.234 -10.847   4.714  0.00  0.00    -0.158 S 
ATOM     24  C   UNL     1       2.837 -11.230   2.981  0.00  0.00    +0.088 C 
ATOM     25  C   UNL     1       3.244 -10.041   2.111  0.00  0.00    +0.118 C 
ENDBRANCH  16  18
ENDBRANCH   4  16
TORSDOF 3
