REMARK  Name = ZINC50650010
REMARK  3 active torsions:
REMARK  status: ('A' for Active; 'I' for Inactive)
REMARK    1  A    between atoms: C_6  and  S_10
REMARK    2  A    between atoms: C_7  and  N_9
REMARK    3  A    between atoms: S_10  and  N_13
REMARK                            x       y       z     vdW  Elec       q    Type
REMARK                         _______ _______ _______ _____ _____    ______ ____
ROOT
ATOM      1  C   UNL     1      -0.017   1.373   0.010  0.00  0.00    +0.102 A 
ATOM      2  C   UNL     1       1.118   2.071   0.003  0.00  0.00    +0.067 A 
ATOM      3  S   UNL     1       2.347   0.775  -0.016  0.00  0.00    -0.058 S 
ATOM      4  C   UNL     1       1.231  -0.608  -0.013  0.00  0.00    +0.181 A 
ATOM      5  N   UNL     1       0.002  -0.004   0.002  0.00  0.00    -0.276 N 
ATOM      6  C   UNL     1      -0.915  -1.059   0.005  0.00  0.00    +0.221 A 
ATOM      7  C   UNL     1      -0.211  -2.210  -0.008  0.00  0.00    +0.163 A 
ATOM      8  N   UNL     1       1.097  -1.904  -0.018  0.00  0.00    -0.205 NA
ENDROOT
BRANCH   7   9
ATOM      9  N   UNL     1      -0.753  -3.505  -0.011  0.00  0.00    -0.340 N 
ATOM     10  H   UNL     1      -1.716  -3.628  -0.002  0.00  0.00    +0.144 HD
ATOM     11  H   UNL     1      -0.166  -4.276  -0.021  0.00  0.00    +0.144 HD
ENDBRANCH   7   9
BRANCH   6  12
ATOM     12  S   UNL     1      -2.671  -0.912   0.022  0.00  0.00    +0.080 S 
ATOM     13  O   UNL     1      -3.174  -2.123   0.571  0.00  0.00    -0.151 OA
ATOM     14  O   UNL     1      -2.966   0.359   0.584  0.00  0.00    -0.151 OA
BRANCH  12  15
ATOM     15  N   UNL     1      -3.174  -0.862  -1.554  0.00  0.00    -0.174 NA
ATOM     16  C   UNL     1      -3.282   0.427  -2.238  0.00  0.00    +0.120 C 
ATOM     17  C   UNL     1      -2.250   0.493  -3.370  0.00  0.00    +0.086 C 
ATOM     18  S   UNL     1      -2.531  -0.908  -4.495  0.00  0.00    -0.158 S 
ATOM     19  C   UNL     1      -2.500  -2.345  -3.381  0.00  0.00    +0.086 C 
ATOM     20  C   UNL     1      -3.500  -2.108  -2.249  0.00  0.00    +0.120 C 
ENDBRANCH  12  15
ENDBRANCH   6  12
TORSDOF 3
