REMARK  Name = ZINC14983105
REMARK  11 active torsions:
REMARK  status: ('A' for Active; 'I' for Inactive)
REMARK    1  A    between atoms: C_1  and  C_2
REMARK    2  A    between atoms: C_8  and  C_28
REMARK    3  A    between atoms: C_12  and  C_14
REMARK    4  A    between atoms: C_12  and  C_17
REMARK    5  A    between atoms: C_14  and  C_15
REMARK    6  A    between atoms: C_15  and  O_16
REMARK    7  A    between atoms: C_17  and  O_18
REMARK    8  A    between atoms: C_21  and  O_27
REMARK    9  A    between atoms: C_23  and  C_24
REMARK   10  A    between atoms: C_23  and  C_25
REMARK   11  A    between atoms: C_25  and  O_26
REMARK                            x       y       z     vdW  Elec       q    Type
REMARK                         _______ _______ _______ _____ _____    ______ ____
ROOT
ATOM      1  C   UNL     1      -4.384   2.466   2.014  0.00  0.00    +0.010 C 
ATOM      2  C   UNL     1      -4.458   3.842   1.347  0.00  0.00    +0.018 C 
ATOM      3  C   UNL     1      -5.506   4.690   2.069  0.00  0.00    +0.006 C 
ATOM      4  C   UNL     1      -5.597   6.077   1.422  0.00  0.00    +0.005 C 
ATOM      5  C   UNL     1      -4.221   6.739   1.495  0.00  0.00    +0.008 C 
ATOM      6  C   UNL     1      -3.205   5.918   0.718  0.00  0.00    +0.001 C 
ATOM      7  C   UNL     1      -3.095   4.527   1.373  0.00  0.00    +0.079 C 
ATOM      8  C   UNL     1      -2.595   4.680   2.818  0.00  0.00    +0.039 C 
ATOM      9  C   UNL     1      -1.527   3.569   2.970  0.00  0.00    +0.040 C 
ATOM     10  C   UNL     1      -1.110   3.257   1.521  0.00  0.00    +0.095 C 
ATOM     11  O   UNL     1      -2.131   3.754   0.656  0.00  0.00    -0.364 OA
ATOM     12  C   UNL     1      -1.835   6.595   0.732  0.00  0.00    +0.012 C 
ATOM     13  C   UNL     1      -1.953   8.016   0.179  0.00  0.00    +0.032 C 
ATOM     14  C   UNL     1      -2.879   8.833   1.075  0.00  0.00    +0.123 C 
ATOM     15  C   UNL     1      -4.276   8.212   1.143  0.00  0.00    +0.020 C 
ATOM     16  C   UNL     1      -5.031   8.481  -0.157  0.00  0.00    +0.016 C 
ATOM     17  C   UNL     1      -3.622   5.705  -0.740  0.00  0.00    +0.014 C 
ENDROOT
BRANCH  14  18
ATOM     18  O   UNL     1      -2.330   8.909   2.393  0.00  0.00    -0.391 OA
ATOM     19  H   UNL     1      -1.458   9.325   2.432  0.00  0.00    +0.210 HD
ENDBRANCH  14  18
BRANCH  10  20
ATOM     20  C   UNL     1      -0.965   1.741   1.338  0.00  0.00    +0.065 C 
BRANCH  20  21
ATOM     21  C   UNL     1       0.090   1.209   2.310  0.00  0.00    +0.158 C 
BRANCH  21  22
ATOM     22  O   UNL     1       0.174  -0.212   2.191  0.00  0.00    -0.395 OA
ATOM     23  H   UNL     1       0.824  -0.619   2.779  0.00  0.00    +0.209 HD
ENDBRANCH  21  22
ENDBRANCH  20  21
ENDBRANCH  10  20
BRANCH  10  24
ATOM     24  C   UNL     1       0.232   3.927   1.210  0.00  0.00    +0.190 C 
BRANCH  24  25
ATOM     25  O   UNL     1       0.632   3.597  -0.121  0.00  0.00    -0.392 OA
ATOM     26  H   UNL     1       1.476   3.988  -0.387  0.00  0.00    +0.210 HD
ENDBRANCH  24  25
ENDBRANCH  10  24
BRANCH  15  27
ATOM     27  C   UNL     1      -5.030   8.951   2.274  0.00  0.00    +0.165 C 
BRANCH  27  28
ATOM     28  O   UNL     1      -5.106  10.344   1.966  0.00  0.00    -0.394 OA
ATOM     29  H   UNL     1      -5.567  10.870   2.633  0.00  0.00    +0.209 HD
ENDBRANCH  27  28
ENDBRANCH  15  27
TORSDOF 8
