REMARK  Name = ZINC03875798
REMARK  6 active torsions:
REMARK  status: ('A' for Active; 'I' for Inactive)
REMARK    1  A    between atoms: C_1  and  C_3
REMARK    2  A    between atoms: C_1  and  N_7
REMARK    3  A    between atoms: C_1  and  O_18
REMARK    4  A    between atoms: N_10  and  C_11
REMARK    5  A    between atoms: C_11  and  C_13
REMARK    6  A    between atoms: C_11  and  O_17
REMARK                            x       y       z     vdW  Elec       q    Type
REMARK                         _______ _______ _______ _____ _____    ______ ____
ROOT
ATOM      1  N   UNL     1      -0.698   1.558   1.213  0.00  0.00    -0.271 N 
ATOM      2  C   UNL     1      -1.527   0.734   1.884  0.00  0.00    +0.304 C 
ATOM      3  O   UNL     1      -1.706  -0.402   1.489  0.00  0.00    -0.253 OA
ATOM      4  N   UNL     1      -2.158   1.169   2.993  0.00  0.00    -0.271 N 
ATOM      5  H   UNL     1      -0.556   2.465   1.529  0.00  0.00    +0.153 HD
ATOM      6  H   UNL     1      -2.016   2.075   3.308  0.00  0.00    +0.153 HD
ENDROOT
BRANCH   1   7
ATOM      7  C   UNL     1      -0.013   1.086   0.008  0.00  0.00    +0.255 C 
BRANCH   7   8
ATOM      8  C   UNL     1       1.423   1.615  -0.003  0.00  0.00    +0.232 C 
ATOM      9 CL   UNL     1       1.398   3.418   0.007  0.00  0.00    -0.079 Cl
ATOM     10 CL   UNL     1       2.295   1.018   1.458  0.00  0.00    -0.079 Cl
ATOM     11 CL   UNL     1       2.267   1.034  -1.486  0.00  0.00    -0.079 Cl
ENDBRANCH   7   8
BRANCH   7  12
ATOM     12  O   UNL     1      -0.704   1.559  -1.150  0.00  0.00    -0.370 OA
ATOM     13  H   UNL     1      -0.756   2.523  -1.210  0.00  0.00    +0.212 HD
ENDBRANCH   7  12
ENDBRANCH   1   7
BRANCH   4  14
ATOM     14  C   UNL     1      -3.059   0.272   3.722  0.00  0.00    +0.255 C 
BRANCH  14  15
ATOM     15  C   UNL     1      -4.288   1.054   4.189  0.00  0.00    +0.232 C 
ATOM     16 CL   UNL     1      -3.769   2.398   5.274  0.00  0.00    -0.079 Cl
ATOM     17 CL   UNL     1      -5.147   1.735   2.758  0.00  0.00    -0.079 Cl
ATOM     18 CL   UNL     1      -5.397  -0.049   5.087  0.00  0.00    -0.079 Cl
ENDBRANCH  14  15
BRANCH  14  19
ATOM     19  O   UNL     1      -2.378  -0.268   4.857  0.00  0.00    -0.370 OA
ATOM     20  H   UNL     1      -2.070   0.400   5.485  0.00  0.00    +0.212 HD
ENDBRANCH  14  19
ENDBRANCH   4  14
TORSDOF 6
