REMARK  Name = ZINC40590207
REMARK  6 active torsions:
REMARK  status: ('A' for Active; 'I' for Inactive)
REMARK    1  A    between atoms: C_1  and  C_2
REMARK    2  A    between atoms: C_2  and  C_3
REMARK    3  A    between atoms: N_12  and  CA_13
REMARK    4  A    between atoms: CA_13  and  CB_15
REMARK    5  A    between atoms: CA_13  and  C_22
REMARK    6  A    between atoms: CB_15  and  CG_16
REMARK                            x       y       z     vdW  Elec       q    Type
REMARK                         _______ _______ _______ _____ _____    ______ ____
ROOT
ATOM      1  C   UNK A   0       0.735  -0.597  -1.206  0.00  0.00    +0.103 C 
ATOM      2  C   UNK A   0       0.534  -2.116  -1.211  0.00  0.00    +0.182 C 
ATOM      3  O   UNK A   0       1.373  -2.699  -2.211  0.00  0.00    -0.376 OA
ATOM      4  C   UNK A   0       2.772  -2.507  -1.986  0.00  0.00    +0.179 C 
ATOM      5  C   UNK A   0       3.087  -1.007  -2.021  0.00  0.00    +0.137 C 
ATOM      6  N   UNK A   0       2.175  -0.318  -1.094  0.00  0.00    -0.278 N 
ATOM      7  C   UNK A   0       2.646   0.541  -0.169  0.00  0.00    +0.303 C 
ATOM      8  O   UNK A   0       1.891   1.021   0.655  0.00  0.00    -0.253 OA
ATOM      9  N   HIS A   1       3.953   0.869  -0.156  0.00  0.00    -0.286 N 
ATOM     10  H   HIS A   1       4.568   0.432  -0.766  0.00  0.00    +0.151 HD
ENDROOT
BRANCH   1  12
ATOM     11  C   UNK A   0      -1.499  -0.283  -0.132  0.00  0.00    +0.006 C 
ATOM     12  C   UNK A   0      -0.003   0.018  -0.015  0.00  0.00    +0.021 C 
ENDBRANCH   1  12
BRANCH   9  13
ATOM     13  CA  HIS A   1       4.445   1.885   0.778  0.00  0.00    +0.193 C 
BRANCH  13  14
ATOM     14  C   HIS A   1       4.741   1.242   2.108  0.00  0.00    +0.376 C 
ATOM     15  O   HIS A   1       4.736   0.027   2.213  0.00  0.00    -0.244 OA
ATOM     16  OXT HIS A   1       4.987   1.936   3.080  0.00  0.00    -0.244 OA
ENDBRANCH  13  14
BRANCH  13  17
ATOM     17  CB  HIS A   1       5.722   2.515   0.220  0.00  0.00    +0.088 C 
BRANCH  17  18
ATOM     18  CG  HIS A   1       5.401   3.263  -1.048  0.00  0.00    +0.035 A 
ATOM     19  CD2 HIS A   1       5.323   2.743  -2.288  0.00  0.00    +0.105 A 
ATOM     20  NE2 HIS A   1       5.015   3.736  -3.135  0.00  0.00    -0.352 N 
ATOM     21  HD1 HIS A   1       5.101   5.244  -0.437  0.00  0.00    +0.166 HD
ATOM     22  CE1 HIS A   1       4.899   4.851  -2.467  0.00  0.00    +0.171 A 
ATOM     23  ND1 HIS A   1       5.126   4.599  -1.160  0.00  0.00    -0.350 N 
ATOM     24  HE2 HIS A   1       4.897   3.641  -4.093  0.00  0.00    +0.166 HD
ENDBRANCH  17  18
ENDBRANCH  13  17
ENDBRANCH   9  13
TORSDOF 5
