REMARK  Name = ZINC51127317
REMARK  5 active torsions:
REMARK  status: ('A' for Active; 'I' for Inactive)
REMARK    1  A    between atoms: C_1  and  N_2
REMARK    2  A    between atoms: N_2  and  C_3
REMARK    3  A    between atoms: C_9  and  C_11
REMARK    4  A    between atoms: C_16  and  N_17
REMARK    5  A    between atoms: N_17  and  N_18
REMARK                            x       y       z     vdW  Elec       q    Type
REMARK                         _______ _______ _______ _____ _____    ______ ____
ROOT
ATOM      1  C   UNL     1      -0.107   0.027  -2.463  0.00  0.00    +0.079 A 
ATOM      2  C   UNL     1       1.011   0.758  -2.883  0.00  0.00    +0.033 A 
ATOM      3  C   UNL     1       0.922   1.474  -4.064  0.00  0.00    +0.037 A 
ATOM      4  C   UNL     1      -0.257   1.449  -4.789  0.00  0.00    +0.128 A 
ATOM      5  N   UNL     1      -1.299   0.755  -4.376  0.00  0.00    -0.237 NA
ATOM      6  C   UNL     1      -1.266   0.048  -3.257  0.00  0.00    +0.144 A 
ATOM      7 BR   UNL     1       2.400   2.480  -4.681  0.00  0.00    -0.049 Br
ENDROOT
BRANCH   1  10
ATOM      8  C   UNL     1       0.886   1.189  -0.093  0.00  0.00    +0.132 C 
ATOM      9  N   UNL     1       0.460  -0.212  -0.097  0.00  0.00    -0.297 N 
ATOM     10  C   UNL     1      -0.067  -0.754  -1.213  0.00  0.00    +0.250 C 
ATOM     11  O   UNL     1      -0.509  -1.886  -1.189  0.00  0.00    -0.270 OA
BRANCH   9  12
ATOM     12  C   UNL     1       0.606  -1.026   1.113  0.00  0.00    +0.087 C 
ATOM     13  C   UNL     1       2.091  -1.132   1.456  0.00  0.00    +0.034 C 
ATOM     14  C   UNL     1       2.510   0.028   2.401  0.00  0.00    +0.071 C 
ATOM     15  S   UNL     1       1.019   0.094   3.488  0.00  0.00    -0.159 S 
ATOM     16  C   UNL     1      -0.237  -0.394   2.238  0.00  0.00    +0.091 C 
ENDBRANCH   9  12
ENDBRANCH   1  10
BRANCH   6  17
ATOM     17  N   UNL     1      -2.381  -0.671  -2.864  0.00  0.00    -0.267 N 
ATOM     18  H   UNL     1      -2.349  -1.218  -2.064  0.00  0.00    +0.167 HD
BRANCH  17  19
ATOM     19  N   UNL     1      -3.528  -0.610  -3.604  0.00  0.00    -0.255 NA
ATOM     20  H   UNL     1      -3.354  -0.874  -4.563  0.00  0.00    +0.140 HD
ATOM     21  H   UNL     1      -4.252  -1.183  -3.197  0.00  0.00    +0.140 HD
ENDBRANCH  17  19
ENDBRANCH   6  17
TORSDOF 4
