REMARK  Name = ZINC37333787
REMARK  4 active torsions:
REMARK  status: ('A' for Active; 'I' for Inactive)
REMARK    1  A    between atoms: C_3  and  N_13
REMARK    2  A    between atoms: C_4  and  C_11
REMARK    3  A    between atoms: C_6  and  C_7
REMARK    4  A    between atoms: C_17  and  C_20
REMARK                            x       y       z     vdW  Elec       q    Type
REMARK                         _______ _______ _______ _____ _____    ______ ____
ROOT
ATOM      1  C   UNL     1      -0.017   1.381   0.010  0.00  0.00    +0.014 A 
ATOM      2  C   UNL     1       1.164   2.096   0.002  0.00  0.00    +0.025 A 
ATOM      3  C   UNL     1       2.382   1.429  -0.013  0.00  0.00    +0.047 A 
ATOM      4  C   UNL     1       2.404   0.025  -0.021  0.00  0.00    +0.073 A 
ATOM      5  C   UNL     1       1.201  -0.684  -0.013  0.00  0.00    +0.033 A 
ATOM      6  C   UNL     1       0.002  -0.004   0.002  0.00  0.00    +0.056 A 
ENDROOT
BRANCH   3   7
ATOM      7  N   UNL     1       3.572   2.147  -0.021  0.00  0.00    -0.328 N 
ATOM      8  C   UNL     1       4.198   2.545  -1.289  0.00  0.00    +0.105 C 
ATOM      9  C   UNL     1       5.650   2.058  -1.297  0.00  0.00    +0.020 C 
ATOM     10  C   UNL     1       6.367   2.583  -0.051  0.00  0.00    +0.016 C 
ATOM     11  C   UNL     1       5.680   2.036   1.203  0.00  0.00    +0.092 C 
ATOM     12  C   UNL     1       4.225   2.527   1.239  0.00  0.00    +0.118 C 
BRANCH  11  13
ATOM     13  C   UNL     1       6.407   2.526   2.429  0.00  0.00    +0.215 C 
ATOM     14  O   UNL     1       5.822   3.197   3.252  0.00  0.00    -0.276 OA
ATOM     15  N   UNL     1       7.707   2.220   2.609  0.00  0.00    -0.329 N 
ATOM     16  H   UNL     1       8.175   1.684   1.950  0.00  0.00    +0.145 HD
ATOM     17  H   UNL     1       8.174   2.536   3.398  0.00  0.00    +0.145 HD
ENDBRANCH  11  13
ENDBRANCH   3   7
BRANCH   6  18
ATOM     18  C   UNL     1      -1.295  -0.771   0.010  0.00  0.00    +0.417 C 
ATOM     19  F   UNL     1      -2.368   0.126   0.025  0.00  0.00    -0.166 F 
ATOM     20  F   UNL     1      -1.371  -1.570  -1.136  0.00  0.00    -0.166 F 
ATOM     21  F   UNL     1      -1.350  -1.583   1.149  0.00  0.00    -0.166 F 
ENDBRANCH   6  18
BRANCH   4  22
ATOM     22  C   UNL     1       3.653  -0.675  -0.037  0.00  0.00    +0.101 C 
ATOM     23  N   UNL     1       4.644  -1.231  -0.050  0.00  0.00    -0.191 NA
ENDBRANCH   4  22
TORSDOF 4
