REMARK  Name = ZINC22024216
REMARK  9 active torsions:
REMARK  status: ('A' for Active; 'I' for Inactive)
REMARK    1  A    between atoms: C_1  and  C_2
REMARK    2  A    between atoms: C_3  and  C_28
REMARK    3  A    between atoms: C_11  and  C_13
REMARK    4  A    between atoms: C_13  and  S_14
REMARK    5  A    between atoms: S_14  and  C_15
REMARK    6  A    between atoms: C_15  and  C_17
REMARK    7  A    between atoms: C_15  and  C_18
REMARK    8  A    between atoms: N_20  and  C_21
REMARK    9  A    between atoms: C_26  and  O_27
REMARK                            x       y       z     vdW  Elec       q    Type
REMARK                         _______ _______ _______ _____ _____    ______ ____
ROOT
ATOM      1  S   UNL     1       0.134  -5.141   3.925  0.00  0.00    -0.141 S 
ENDROOT
BRANCH   1   2
ATOM      2  C   UNL     1       0.153  -6.144   5.436  0.00  0.00    +0.130 C 
ATOM      3  C   UNL     1      -1.149  -5.925   6.210  0.00  0.00    +0.029 C 
BRANCH   2   4
ATOM      4  C   UNL     1       0.282  -7.600   5.071  0.00  0.00    +0.230 C 
ATOM      5  O   UNL     1      -0.005  -7.973   3.953  0.00  0.00    -0.274 OA
ATOM      6  N   UNL     1       0.716  -8.489   5.987  0.00  0.00    -0.282 N 
ATOM      7  H   UNL     1       1.007  -8.182   6.860  0.00  0.00    +0.155 HD
BRANCH   6   8
ATOM      8  C   UNL     1       0.748  -9.855   5.677  0.00  0.00    +0.075 A 
ATOM      9  C   UNL     1       1.045 -10.269   4.387  0.00  0.00    +0.027 A 
ATOM     10  C   UNL     1       1.076 -11.617   4.085  0.00  0.00    +0.002 A 
ATOM     11  C   UNL     1       0.810 -12.556   5.065  0.00  0.00    +0.004 A 
ATOM     12  C   UNL     1       0.513 -12.150   6.353  0.00  0.00    +0.047 A 
ATOM     13  C   UNL     1       0.486 -10.801   6.666  0.00  0.00    +0.138 A 
BRANCH  13  14
ATOM     14  O   UNL     1       0.200 -10.401   7.934  0.00  0.00    -0.505 OA
ATOM     15  H   UNL     1      -0.743 -10.259   8.098  0.00  0.00    +0.292 HD
ENDBRANCH  13  14
ENDBRANCH   6   8
ENDBRANCH   2   4
ENDBRANCH   1   2
BRANCH   1  16
ATOM     16  C   UNL     1       0.130  -3.432   4.532  0.00  0.00    +0.144 C 
BRANCH  16  27
ATOM     17  C   UNL     1       0.059   1.491  -0.019  0.00  0.00    +0.045 C 
ATOM     18  C   UNL     1       0.068  -0.016  -0.023  0.00  0.00    -0.026 A 
ATOM     19  C   UNL     1       0.067  -0.693  -1.183  0.00  0.00    -0.008 A 
ATOM     20  S   UNL     1       0.079  -2.399  -0.666  0.00  0.00    -0.073 S 
ATOM     21  C   UNL     1       0.087  -2.154   1.091  0.00  0.00    +0.116 A 
ATOM     22  C   UNL     1       0.084  -0.754   1.227  0.00  0.00    +0.075 A 
ATOM     23  C   UNL     1       0.093  -0.261   2.573  0.00  0.00    +0.260 A 
ATOM     24  O   UNL     1       0.088   0.937   2.793  0.00  0.00    -0.267 OA
ATOM     25  N   UNL     1       0.108  -1.144   3.589  0.00  0.00    -0.310 N 
ATOM     26  H   UNL     1       0.114  -0.817   4.502  0.00  0.00    +0.170 HD
ATOM     27  C   UNL     1       0.114  -2.482   3.362  0.00  0.00    +0.121 A 
ATOM     28  N   UNL     1       0.096  -2.962   2.147  0.00  0.00    -0.226 NA
ATOM     29  C   UNL     1       0.056  -0.142  -2.585  0.00  0.00    +0.052 C 
ENDBRANCH  16  27
ENDBRANCH   1  16
TORSDOF 6
