REMARK  Name = ZINC02532474
REMARK  5 active torsions:
REMARK  status: ('A' for Active; 'I' for Inactive)
REMARK    1  A    between atoms: C_1  and  N_2
REMARK    2  A    between atoms: N_2  and  C_3
REMARK    3  A    between atoms: N_2  and  C_4
REMARK    4  A    between atoms: C_7  and  C_10
REMARK    5  A    between atoms: N_16  and  C_17
REMARK                            x       y       z     vdW  Elec       q    Type
REMARK                         _______ _______ _______ _____ _____    ______ ____
ROOT
ATOM      1  C   UNL     1       2.313   1.051  -0.010  0.00  0.00    +0.195 C 
ATOM      2  N   UNL     1       2.287  -0.168   0.823  0.00  0.00    -0.216 NA
ATOM      3  N   UNL     1       3.275  -0.013   1.753  0.00  0.00    -0.260 N 
ATOM      4  C   UNL     1       3.908   1.157   1.593  0.00  0.00    +0.153 C 
ATOM      5  S   UNL     1       5.203   1.692   2.576  0.00  0.00    -0.017 S 
ATOM      6  N   UNL     1       3.401   1.861   0.560  0.00  0.00    -0.260 N 
ATOM      7  H   UNL     1       2.444  -0.992   0.263  0.00  0.00    +0.147 HD
ATOM      8  H   UNL     1       3.491  -0.664   2.438  0.00  0.00    +0.168 HD
ENDROOT
BRANCH   1  12
ATOM      9  C   UNL     1      -1.408   3.135   0.275  0.00  0.00    +0.029 A 
ATOM     10  C   UNL     1      -1.343   1.782   0.582  0.00  0.00    +0.023 A 
ATOM     11  C   UNL     1      -0.138   1.113   0.494  0.00  0.00    +0.008 A 
ATOM     12  C   UNL     1       1.001   1.786   0.091  0.00  0.00    -0.011 A 
ATOM     13  C   UNL     1       0.938   3.131  -0.221  0.00  0.00    +0.008 A 
ATOM     14  C   UNL     1      -0.263   3.808  -0.130  0.00  0.00    +0.023 A 
BRANCH   9  16
ATOM     15  C   UNL     1      -2.715   5.214  -0.060  0.00  0.00    +0.129 C 
ATOM     16  N   UNL     1      -2.624   3.816   0.369  0.00  0.00    -0.336 N 
ATOM     17  C   UNL     1      -3.808   3.132   0.895  0.00  0.00    +0.129 C 
ENDBRANCH   9  16
ENDBRANCH   1  12
BRANCH   6  18
ATOM     18  C   UNL     1       3.826   3.118   0.116  0.00  0.00    +0.037 A 
ATOM     19  C   UNL     1       4.260   3.283  -1.192  0.00  0.00    +0.023 A 
ATOM     20  C   UNL     1       4.674   4.526  -1.629  0.00  0.00    +0.002 A 
ATOM     21  C   UNL     1       4.667   5.603  -0.762  0.00  0.00    +0.000 A 
ATOM     22  C   UNL     1       4.240   5.441   0.544  0.00  0.00    +0.002 A 
ATOM     23  C   UNL     1       3.819   4.201   0.985  0.00  0.00    +0.023 A 
ENDBRANCH   6  18
TORSDOF 3
