REMARK  Name = ZINC16507760
REMARK  6 active torsions:
REMARK  status: ('A' for Active; 'I' for Inactive)
REMARK    1  A    between atoms: C_6  and  O_26
REMARK    2  A    between atoms: C_7  and  C_11
REMARK    3  A    between atoms: N_13  and  N_14
REMARK    4  A    between atoms: C_15  and  C_17
REMARK    5  A    between atoms: C_17  and  O_18
REMARK    6  A    between atoms: O_18  and  C_19
REMARK                            x       y       z     vdW  Elec       q    Type
REMARK                         _______ _______ _______ _____ _____    ______ ____
ROOT
ATOM      1  C   UNL     1       4.127   8.655   0.009  0.00  0.00    +0.264 C 
ATOM      2  O   UNL     1       5.256   8.204  -0.004  0.00  0.00    -0.269 OA
ATOM      3  N   UNL     1       3.068   7.821   0.015  0.00  0.00    -0.230 N 
ATOM      4  H   UNL     1       2.168   8.181   0.025  0.00  0.00    +0.173 HD
ENDROOT
BRANCH   1  11
ATOM      5  C   UNL     1       0.984  13.917   0.066  0.00  0.00    +0.001 A 
ATOM      6  C   UNL     1       2.089  14.767   0.060  0.00  0.00    +0.001 A 
ATOM      7  C   UNL     1       3.356  14.270   0.046  0.00  0.00    +0.008 A 
ATOM      8  C   UNL     1       3.559  12.879   0.037  0.00  0.00    -0.014 A 
ATOM      9  C   UNL     1       4.855  12.337   0.022  0.00  0.00    +0.054 A 
ATOM     10  C   UNL     1       5.028  10.984   0.013  0.00  0.00    +0.130 A 
ATOM     11  C   UNL     1       3.916  10.116   0.019  0.00  0.00    +0.080 A 
ATOM     12  C   UNL     1       2.628  10.625   0.028  0.00  0.00    +0.025 A 
ATOM     13  C   UNL     1       2.434  12.014   0.043  0.00  0.00    -0.017 A 
ATOM     14  C   UNL     1       1.140  12.565   0.058  0.00  0.00    +0.008 A 
BRANCH  10  15
ATOM     15  O   UNL     1       6.284  10.468  -0.002  0.00  0.00    -0.506 OA
ATOM     16  H   UNL     1       6.639  10.324  -0.890  0.00  0.00    +0.292 HD
ENDBRANCH  10  15
ENDBRANCH   1  11
BRANCH   3  17
ATOM     17  N   UNL     1       3.268   6.434   0.005  0.00  0.00    -0.231 N 
ATOM     18  C   UNL     1       2.209   5.601   0.011  0.00  0.00    +0.267 C 
ATOM     19  O   UNL     1       1.083   6.051   0.024  0.00  0.00    -0.271 OA
ATOM     20  H   UNL     1       4.169   6.074  -0.005  0.00  0.00    +0.173 HD
BRANCH  18  21
ATOM     21  C   UNL     1       2.425   4.109   0.001  0.00  0.00    +0.326 C 
BRANCH  21  22
ATOM     22  O   UNL     1       1.159   3.445   0.009  0.00  0.00    -0.483 OA
BRANCH  22  23
ATOM     23  C   UNL     1       1.176   2.086   0.002  0.00  0.00    +0.121 A 
ATOM     24  C   UNL     1      -0.017   1.377   0.010  0.00  0.00    +0.047 A 
ATOM     25  C   UNL     1       0.002  -0.004   0.002  0.00  0.00    +0.019 A 
ATOM     26  C   UNL     1       1.209  -0.680  -0.013  0.00  0.00    +0.018 A 
ATOM     27  C   UNL     1       2.399   0.025  -0.020  0.00  0.00    +0.019 A 
ATOM     28  C   UNL     1       2.385   1.406  -0.013  0.00  0.00    +0.047 A 
ATOM     29 BR   UNL     1       1.232  -2.571  -0.022  0.00  0.00    -0.050 Br
ENDBRANCH  22  23
ENDBRANCH  21  22
ENDBRANCH  18  21
ENDBRANCH   3  17
TORSDOF 6
