REMARK  Name = ZINC42439051
REMARK  6 active torsions:
REMARK  status: ('A' for Active; 'I' for Inactive)
REMARK    1  A    between atoms: C_1  and  C_2
REMARK    2  A    between atoms: C_6  and  C_22
REMARK    3  A    between atoms: N_9  and  S_10
REMARK    4  A    between atoms: S_10  and  C_13
REMARK    5  A    between atoms: C_13  and  C_14
REMARK    6  A    between atoms: C_14  and  C_15
REMARK                            x       y       z     vdW  Elec       q    Type
REMARK                         _______ _______ _______ _____ _____    ______ ____
ROOT
ATOM      1  S   UNL     1       2.147  -1.298   1.054  0.00  0.00    +0.032 S 
ATOM      2  O   UNL     1       2.217  -2.121   2.210  0.00  0.00    -0.158 OA
ATOM      3  O   UNL     1       2.114  -1.875  -0.245  0.00  0.00    -0.158 OA
ENDROOT
BRANCH   1  10
ATOM      4  C   UNL     1      -0.019   1.526   0.010  0.00  0.00    +0.026 C 
ATOM      5  C   UNL     1       0.002  -0.004   0.002  0.00  0.00    +0.076 C 
ATOM      6  C   UNL     1      -1.434  -0.537   0.020  0.00  0.00    +0.021 C 
ATOM      7  C   UNL     1      -2.101  -0.151   1.343  0.00  0.00    +0.015 C 
ATOM      8  C   UNL     1      -1.335  -0.786   2.506  0.00  0.00    +0.090 C 
ATOM      9  C   UNL     1       0.102  -0.256   2.516  0.00  0.00    +0.122 C 
ATOM     10  N   UNL     1       0.706  -0.494   1.195  0.00  0.00    -0.178 NA
BRANCH   8  11
ATOM     11  C   UNL     1      -2.011  -0.433   3.805  0.00  0.00    +0.215 C 
ATOM     12  O   UNL     1      -1.405   0.180   4.658  0.00  0.00    -0.276 OA
ATOM     13  N   UNL     1      -3.291  -0.798   4.020  0.00  0.00    -0.329 N 
ATOM     14  H   UNL     1      -3.776  -1.288   3.338  0.00  0.00    +0.145 HD
ATOM     15  H   UNL     1      -3.726  -0.571   4.856  0.00  0.00    +0.145 HD
ENDBRANCH   8  11
ENDBRANCH   1  10
BRANCH   1  16
ATOM     16  C   UNL     1       3.414  -0.003   1.129  0.00  0.00    +0.183 C 
BRANCH  16  17
ATOM     17  C   UNL     1       4.801  -0.638   1.007  0.00  0.00    +0.008 C 
BRANCH  17  18
ATOM     18  C   UNL     1       5.870   0.455   1.071  0.00  0.00    -0.070 C 
ATOM     19  C   UNL     1       7.247  -0.165   0.823  0.00  0.00    -0.016 C 
ATOM     20  C   UNL     1       8.313   0.932   0.888  0.00  0.00    -0.003 C 
ATOM     21  C   UNL     1       8.228   1.633   2.247  0.00  0.00    -0.019 C 
ATOM     22  C   UNL     1       6.815   2.186   2.443  0.00  0.00    -0.082 C 
ATOM     23  N   UNL     1       5.845   1.085   2.397  0.00  0.00    +0.381 N 
ATOM     24  H   UNL     1       4.920   1.445   2.580  0.00  0.00    -0.086 HD
ATOM     25  H   UNL     1       6.082   0.400   3.099  0.00  0.00    -0.086 HD
ENDBRANCH  17  18
ENDBRANCH  16  17
ENDBRANCH   1  16
TORSDOF 5
