REMARK  Name = ZINC61992878
REMARK  6 active torsions:
REMARK  status: ('A' for Active; 'I' for Inactive)
REMARK    1  A    between atoms: C_1  and  C_2
REMARK    2  A    between atoms: C_5  and  O_30
REMARK    3  A    between atoms: C_18  and  C_29
REMARK    4  A    between atoms: C_23  and  N_25
REMARK    5  A    between atoms: N_25  and  C_26
REMARK    6  A    between atoms: C_26  and  C_27
REMARK                            x       y       z     vdW  Elec       q    Type
REMARK                         _______ _______ _______ _____ _____    ______ ____
ROOT
ATOM      1  C   UNL     1      -0.019   1.526   0.010  0.00  0.00    +0.012 C 
ATOM      2  C   UNL     1       0.002  -0.004   0.002  0.00  0.00    -0.026 C 
ATOM      3  C   UNL     1      -1.433  -0.533   0.012  0.00  0.00    +0.010 C 
ATOM      4  C   UNL     1      -2.150  -0.040   1.271  0.00  0.00    +0.032 C 
ATOM      5  C   UNL     1      -1.411  -0.547   2.511  0.00  0.00    +0.115 C 
ATOM      6  C   UNL     1       0.025  -0.018   2.501  0.00  0.00    +0.035 C 
ATOM      7  C   UNL     1       0.742  -0.511   1.242  0.00  0.00    -0.002 C 
ATOM      8  C   UNL     1       2.177   0.022   1.230  0.00  0.00    +0.004 C 
ATOM      9  C   UNL     1       2.894  -0.471  -0.028  0.00  0.00    +0.004 C 
ATOM     10  C   UNL     1       2.152   0.031  -1.269  0.00  0.00    -0.004 C 
ATOM     11  C   UNL     1       0.719  -0.497  -1.257  0.00  0.00    -0.001 C 
ATOM     12  C   UNL     1      -0.007   0.039  -2.495  0.00  0.00    +0.005 C 
ATOM     13  C   UNL     1       0.678  -0.518  -3.740  0.00  0.00    +0.009 C 
ATOM     14  C   UNL     1       2.130  -0.041  -3.820  0.00  0.00    -0.014 C 
ATOM     15  C   UNL     1       2.874  -0.398  -2.524  0.00  0.00    -0.000 C 
ATOM     16  C   UNL     1       3.066  -1.923  -2.604  0.00  0.00    +0.006 C 
ATOM     17  C   UNL     1       3.382  -2.169  -4.097  0.00  0.00    +0.019 C 
ATOM     18  C   UNL     1       2.835  -0.932  -4.877  0.00  0.00    +0.061 C 
ATOM     19  C   UNL     1       2.215   1.444  -4.180  0.00  0.00    +0.013 C 
ENDROOT
BRANCH  18  20
ATOM     20  N   UNL     1       1.860  -1.404  -5.869  0.00  0.00    -0.301 NA
ATOM     21  H   UNL     1       1.347  -2.200  -5.521  0.00  0.00    +0.123 HD
BRANCH  20  22
ATOM     22  C   UNL     1       2.518  -1.719  -7.144  0.00  0.00    +0.201 C 
BRANCH  22  23
ATOM     23  C   UNL     1       1.512  -2.188  -8.112  0.00  0.00    +0.078 C 
ATOM     24  N   UNL     1       0.737  -2.550  -8.859  0.00  0.00    -0.195 NA
ENDBRANCH  22  23
ENDBRANCH  20  22
ENDBRANCH  18  20
BRANCH   5  25
ATOM     25  O   UNL     1      -1.392  -1.976   2.503  0.00  0.00    -0.392 OA
ATOM     26  H   UNL     1      -2.270  -2.381   2.508  0.00  0.00    +0.210 HD
ENDBRANCH   5  25
TORSDOF 4
