REMARK  Name = ZINC18157337
REMARK  4 active torsions:
REMARK  status: ('A' for Active; 'I' for Inactive)
REMARK    1  A    between atoms: C_1  and  C_2
REMARK    2  A    between atoms: C_5  and  S_8
REMARK    3  A    between atoms: S_8  and  N_11
REMARK    4  A    between atoms: C_12  and  C_13
REMARK                            x       y       z     vdW  Elec       q    Type
REMARK                         _______ _______ _______ _____ _____    ______ ____
ROOT
ATOM      1  N   UNL     1       1.651  -4.999  -0.034  0.00  0.00    -0.113 NA
ATOM      2  C   UNL     1       1.956  -6.266  -0.043  0.00  0.00    +0.145 C 
ATOM      3  N   UNL     1       0.957  -7.215  -0.042  0.00  0.00    -0.341 N 
ATOM      4  H   UNL     1       0.027  -6.940  -0.036  0.00  0.00    +0.144 HD
ATOM      5  H   UNL     1       1.184  -8.158  -0.049  0.00  0.00    +0.144 HD
ENDROOT
BRANCH   2   6
ATOM      6  C   UNL     1       3.375  -6.685  -0.053  0.00  0.00    +0.016 A 
ATOM      7  C   UNL     1       4.388  -5.726  -0.048  0.00  0.00    +0.014 A 
ATOM      8  C   UNL     1       5.709  -6.122  -0.057  0.00  0.00    +0.039 A 
ATOM      9  C   UNL     1       6.031  -7.470  -0.071  0.00  0.00    +0.123 A 
ATOM     10  C   UNL     1       5.028  -8.427  -0.077  0.00  0.00    +0.039 A 
ATOM     11  C   UNL     1       3.704  -8.041  -0.062  0.00  0.00    +0.014 A 
ATOM     12  F   UNL     1       7.327  -7.853  -0.080  0.00  0.00    -0.205 F 
ENDBRANCH   2   6
BRANCH   1  13
ATOM     13  S   UNL     1       0.063  -4.530  -0.023  0.00  0.00    +0.100 S 
ATOM     14  O   UNL     1      -0.476  -4.950   1.223  0.00  0.00    -0.146 OA
ATOM     15  O   UNL     1      -0.490  -4.937  -1.267  0.00  0.00    -0.146 OA
BRANCH  13  20
ATOM     16  C   UNL     1      -0.018   1.503   0.010  0.00  0.00    +0.044 C 
ATOM     17  C   UNL     1       0.002  -0.004   0.002  0.00  0.00    -0.050 A 
ATOM     18  C   UNL     1       0.006  -0.689  -1.199  0.00  0.00    +0.005 A 
ATOM     19  C   UNL     1       0.025  -2.071  -1.206  0.00  0.00    +0.029 A 
ATOM     20  C   UNL     1       0.040  -2.768  -0.013  0.00  0.00    +0.113 A 
ATOM     21  C   UNL     1       0.037  -2.084   1.188  0.00  0.00    +0.029 A 
ATOM     22  C   UNL     1       0.023  -0.702   1.195  0.00  0.00    +0.005 A 
ENDBRANCH  13  20
ENDBRANCH   1  13
TORSDOF 3
