REMARK  Name = ZINC40783351
REMARK  4 active torsions:
REMARK  status: ('A' for Active; 'I' for Inactive)
REMARK    1  A    between atoms: C_3  and  N_8
REMARK    2  A    between atoms: C_10  and  N_24
REMARK    3  A    between atoms: C_11  and  N_15
REMARK    4  A    between atoms: N_15  and  C_16
REMARK                            x       y       z     vdW  Elec       q    Type
REMARK                         _______ _______ _______ _____ _____    ______ ____
ROOT
ATOM      1  N   UNL     1       3.611   2.001   0.044  0.00  0.00    -0.295 N 
ATOM      2  C   UNL     1       3.660   3.385  -0.079  0.00  0.00    +0.149 A 
ATOM      3  C   UNL     1       4.885   4.042  -0.207  0.00  0.00    +0.106 A 
ATOM      4  C   UNL     1       4.878   5.433  -0.327  0.00  0.00    +0.149 A 
ATOM      5  N   UNL     1       3.712   6.075  -0.314  0.00  0.00    -0.219 NA
ATOM      6  C   UNL     1       2.577   5.416  -0.191  0.00  0.00    +0.225 A 
ATOM      7  N   UNL     1       2.540   4.104  -0.081  0.00  0.00    -0.219 NA
ATOM      8  H   UNL     1       4.433   1.490   0.110  0.00  0.00    +0.154 HD
ENDROOT
BRANCH   1  11
ATOM      9  C   UNL     1       0.070   1.254   0.675  0.00  0.00    +0.022 A 
ATOM     10  C   UNL     1       1.272   1.943   0.672  0.00  0.00    +0.028 A 
ATOM     11  C   UNL     1       2.376   1.345   0.072  0.00  0.00    +0.070 A 
ATOM     12  C   UNL     1       2.233   0.086  -0.501  0.00  0.00    +0.150 A 
ATOM     13  N   UNL     1       1.070  -0.535  -0.476  0.00  0.00    -0.242 NA
ATOM     14  C   UNL     1       0.005   0.005   0.086  0.00  0.00    +0.112 A 
ATOM     15 CL   UNL     1       3.598  -0.676  -1.255  0.00  0.00    -0.060 Cl
ENDBRANCH   1  11
BRANCH   3  16
ATOM     16  N   UNL     1       6.092   3.324  -0.215  0.00  0.00    -0.353 N 
ATOM     17  H   UNL     1       6.082   2.358  -0.131  0.00  0.00    +0.143 HD
ATOM     18  H   UNL     1       6.935   3.795  -0.305  0.00  0.00    +0.143 HD
ENDBRANCH   3  16
BRANCH   4  19
ATOM     19  N   UNL     1       6.070   6.137  -0.457  0.00  0.00    -0.297 N 
ATOM     20  H   UNL     1       6.907   5.658  -0.555  0.00  0.00    +0.154 HD
BRANCH  19  21
ATOM     21  C   UNL     1       6.061   7.536  -0.447  0.00  0.00    +0.051 A 
ATOM     22  C   UNL     1       5.026   8.220   0.178  0.00  0.00    +0.026 A 
ATOM     23  C   UNL     1       5.019   9.601   0.187  0.00  0.00    +0.022 A 
ATOM     24  C   UNL     1       6.042  10.304  -0.426  0.00  0.00    +0.042 A 
ATOM     25  C   UNL     1       7.074   9.626  -1.049  0.00  0.00    +0.041 A 
ATOM     26  C   UNL     1       7.090   8.243  -1.056  0.00  0.00    +0.063 A 
ATOM     27 CL   UNL     1       8.389   7.393  -1.831  0.00  0.00    -0.082 Cl
ATOM     28 CL   UNL     1       6.030  12.040  -0.412  0.00  0.00    -0.083 Cl
ENDBRANCH  19  21
ENDBRANCH   4  19
TORSDOF 4
