REMARK  Name = ZINC14550735
REMARK  3 active torsions:
REMARK  status: ('A' for Active; 'I' for Inactive)
REMARK    1  A    between atoms: C_5  and  C_7
REMARK    2  A    between atoms: C_11  and  C_20
REMARK    3  A    between atoms: C_23  and  N_26
REMARK                            x       y       z     vdW  Elec       q    Type
REMARK                         _______ _______ _______ _____ _____    ______ ____
ROOT
ATOM      1  C   UNL     1      -4.979   6.369  -1.077  0.00  0.00    +0.001 A 
ATOM      2  C   UNL     1      -3.867   5.979  -1.806  0.00  0.00    +0.006 A 
ATOM      3  C   UNL     1      -2.625   5.906  -1.215  0.00  0.00    -0.019 A 
ATOM      4  C   UNL     1      -2.459   6.236   0.133  0.00  0.00    +0.044 A 
ATOM      5  C   UNL     1      -3.597   6.626   0.869  0.00  0.00    +0.058 A 
ATOM      6  C   UNL     1      -4.847   6.688   0.257  0.00  0.00    +0.015 A 
ATOM      7  N   UNL     1      -1.241   6.229   0.792  0.00  0.00    -0.336 N 
ATOM      8  C   UNL     1      -0.076   5.747   0.033  0.00  0.00    +0.105 C 
ATOM      9  C   UNL     1      -0.220   6.269  -1.381  0.00  0.00    +0.029 C 
ATOM     10  C   UNL     1      -1.428   5.477  -1.972  0.00  0.00    +0.049 C 
ATOM     11  C   UNL     1      -1.286   5.689  -3.433  0.00  0.00    -0.023 C 
ATOM     12  C   UNL     1       0.000   5.874  -3.710  0.00  0.00    -0.030 C 
ATOM     13  C   UNL     1       0.822   5.836  -2.419  0.00  0.00    +0.033 C 
ATOM     14  H   UNL     1      -1.313   5.757   1.681  0.00  0.00    +0.147 HD
ENDROOT
BRANCH   8  15
ATOM     15  C   UNL     1      -0.056   4.240   0.025  0.00  0.00    -0.027 A 
ATOM     16  C   UNL     1      -1.227   3.532   0.215  0.00  0.00    +0.008 A 
ATOM     17  C   UNL     1      -1.208   2.150   0.208  0.00  0.00    +0.033 A 
ATOM     18  C   UNL     1      -0.018   1.476   0.008  0.00  0.00    +0.126 A 
ATOM     19  C   UNL     1       1.154   2.184  -0.177  0.00  0.00    +0.033 A 
ATOM     20  C   UNL     1       1.135   3.566  -0.174  0.00  0.00    +0.008 A 
BRANCH  18  21
ATOM     21  N   UNL     1       0.002  -0.004   0.000  0.00  0.00    +0.056 N 
ATOM     22  O   UNL     1      -1.030  -0.628   0.169  0.00  0.00    -0.126 OA
ATOM     23  O   UNL     1       1.051  -0.598  -0.175  0.00  0.00    -0.126 OA
ENDBRANCH  18  21
ENDBRANCH   8  15
BRANCH   5  24
ATOM     24  C   UNL     1      -3.463   6.969   2.297  0.00  0.00    +0.243 C 
ATOM     25  O   UNL     1      -2.374   6.915   2.836  0.00  0.00    -0.270 OA
ATOM     26  N   UNL     1      -4.548   7.341   3.005  0.00  0.00    -0.325 N 
ATOM     27  H   UNL     1      -5.416   7.383   2.575  0.00  0.00    +0.145 HD
ATOM     28  H   UNL     1      -4.460   7.567   3.944  0.00  0.00    +0.145 HD
ENDBRANCH   5  24
TORSDOF 3
