REMARK  Name = ZINC66244572
REMARK  4 active torsions:
REMARK  status: ('A' for Active; 'I' for Inactive)
REMARK    1  A    between atoms: C_4  and  N_7
REMARK    2  A    between atoms: N_10  and  C_11
REMARK    3  A    between atoms: C_11  and  C_12
REMARK    4  A    between atoms: C_12  and  C_18
REMARK                            x       y       z     vdW  Elec       q    Type
REMARK                         _______ _______ _______ _____ _____    ______ ____
ROOT
ATOM      1  N   UNL     1       2.296  -4.942   2.702  0.00  0.00    -0.328 N 
ATOM      2  C   UNL     1       2.775  -4.651   1.445  0.00  0.00    +0.173 C 
ATOM      3  N   UNL     1       2.088  -3.882   0.647  0.00  0.00    -0.371 N 
ATOM      4  N   UNL     1       3.978  -5.172   1.030  0.00  0.00    -0.357 N 
ATOM      5  H   UNL     1       2.759  -5.586   3.261  0.00  0.00    +0.169 HD
ATOM      6  H   UNL     1       2.468  -3.599  -0.199  0.00  0.00    +0.159 HD
ATOM      7  H   UNL     1       4.489  -5.744   1.624  0.00  0.00    +0.162 HD
ATOM      8  H   UNL     1       1.197  -3.593   0.901  0.00  0.00    +0.159 HD
ENDROOT
BRANCH   1  12
ATOM      9  C   UNL     1      -1.142  -3.056   4.110  0.00  0.00    +0.000 A 
ATOM     10  C   UNL     1      -0.931  -4.397   4.377  0.00  0.00    +0.002 A 
ATOM     11  C   UNL     1       0.207  -5.025   3.912  0.00  0.00    +0.026 A 
ATOM     12  C   UNL     1       1.141  -4.309   3.174  0.00  0.00    +0.042 A 
ATOM     13  C   UNL     1       0.927  -2.963   2.907  0.00  0.00    +0.026 A 
ATOM     14  C   UNL     1      -0.214  -2.341   3.376  0.00  0.00    +0.002 A 
ENDBRANCH   1  12
BRANCH   4  15
ATOM     15  C   UNL     1       4.488  -4.862  -0.308  0.00  0.00    +0.127 C 
BRANCH  15  16
ATOM     16  C   UNL     1       5.877  -5.480  -0.480  0.00  0.00    +0.017 C 
ATOM     17  C   UNL     1       6.445  -5.091  -1.848  0.00  0.00    +0.041 C 
ATOM     18  C   UNL     1       5.551  -5.672  -2.947  0.00  0.00    +0.161 C 
ATOM     19  O   UNL     1       5.472  -7.091  -2.794  0.00  0.00    -0.380 OA
ATOM     20  C   UNL     1       4.904  -7.513  -1.553  0.00  0.00    +0.161 C 
ATOM     21  C   UNL     1       5.772  -7.006  -0.398  0.00  0.00    +0.041 C 
BRANCH  16  22
ATOM     22  C   UNL     1       6.791  -4.978   0.608  0.00  0.00    -0.038 A 
ATOM     23  C   UNL     1       7.413  -5.875   1.456  0.00  0.00    +0.004 A 
ATOM     24  C   UNL     1       8.251  -5.416   2.455  0.00  0.00    +0.002 A 
ATOM     25  C   UNL     1       8.467  -4.059   2.606  0.00  0.00    +0.020 A 
ATOM     26  C   UNL     1       7.845  -3.161   1.758  0.00  0.00    +0.041 A 
ATOM     27  C   UNL     1       7.011  -3.622   0.755  0.00  0.00    +0.024 A 
ATOM     28 CL   UNL     1       8.116  -1.457   1.947  0.00  0.00    -0.084 Cl
ENDBRANCH  16  22
ENDBRANCH  15  16
ENDBRANCH   4  15
TORSDOF 4
