REMARK  Name = ZINC34785595
REMARK  7 active torsions:
REMARK  status: ('A' for Active; 'I' for Inactive)
REMARK    1  A    between atoms: C_6  and  C_7
REMARK    2  A    between atoms: C_8  and  N_20
REMARK    3  A    between atoms: C_9  and  N_19
REMARK    4  A    between atoms: N_10  and  C_12
REMARK    5  A    between atoms: N_23  and  C_24
REMARK    6  A    between atoms: C_24  and  C_25
REMARK    7  A    between atoms: C_25  and  N_26
REMARK                            x       y       z     vdW  Elec       q    Type
REMARK                         _______ _______ _______ _____ _____    ______ ____
ROOT
ATOM      1  C   UNL     1      -1.217  -1.216   0.418  0.00  0.00    +0.116 A 
ATOM      2  C   UNL     1      -1.559  -2.062  -0.657  0.00  0.00    +0.103 A 
ATOM      3  C   UNL     1      -2.897  -1.929  -0.880  0.00  0.00    +0.142 A 
ATOM      4  N   UNL     1      -3.379  -1.030   0.025  0.00  0.00    -0.216 N 
ATOM      5  N   UNL     1      -2.312  -0.606   0.826  0.00  0.00    -0.163 NA
ENDROOT
BRANCH   1  11
ATOM      6  C   UNL     1       0.528   0.184   1.518  0.00  0.00    +0.011 A 
ATOM      7  C   UNL     1       1.791   0.335   2.054  0.00  0.00    +0.020 A 
ATOM      8  C   UNL     1       2.670  -0.734   2.073  0.00  0.00    +0.041 A 
ATOM      9  C   UNL     1       2.288  -1.960   1.555  0.00  0.00    +0.020 A 
ATOM     10  C   UNL     1       1.028  -2.121   1.016  0.00  0.00    +0.011 A 
ATOM     11  C   UNL     1       0.139  -1.048   0.995  0.00  0.00    +0.004 A 
ATOM     12 CL   UNL     1       4.258  -0.537   2.747  0.00  0.00    -0.084 Cl
ENDBRANCH   1  11
BRANCH   4  13
ATOM     13  C   UNL     1      -4.711  -0.609   0.138  0.00  0.00    +0.068 A 
ATOM     14  C   UNL     1      -5.498  -0.479  -0.999  0.00  0.00    +0.030 A 
ATOM     15  C   UNL     1      -6.810  -0.064  -0.886  0.00  0.00    +0.040 A 
ATOM     16  C   UNL     1      -7.341   0.223   0.360  0.00  0.00    +0.124 A 
ATOM     17  C   UNL     1      -6.559   0.094   1.495  0.00  0.00    +0.040 A 
ATOM     18  C   UNL     1      -5.247  -0.326   1.387  0.00  0.00    +0.030 A 
ATOM     19  F   UNL     1      -8.625   0.629   0.469  0.00  0.00    -0.205 F 
ENDBRANCH   4  13
BRANCH   2  20
ATOM     20  N   UNL     1      -0.675  -2.896  -1.374  0.00  0.00    -0.265 N 
ATOM     21  C   UNL     1       0.562  -2.459  -1.683  0.00  0.00    +0.304 C 
ATOM     22  O   UNL     1       0.895  -1.325  -1.398  0.00  0.00    -0.253 OA
ATOM     23  N   UNL     1       1.429  -3.279  -2.308  0.00  0.00    -0.301 N 
ATOM     24  H   UNL     1      -0.958  -3.783  -1.645  0.00  0.00    +0.157 HD
ATOM     25  H   UNL     1       1.164  -4.184  -2.536  0.00  0.00    +0.150 HD
BRANCH  23  26
ATOM     26  C   UNL     1       2.774  -2.804  -2.644  0.00  0.00    +0.087 C 
BRANCH  26  27
ATOM     27  C   UNL     1       3.550  -3.922  -3.343  0.00  0.00    -0.060 C 
BRANCH  27  28
ATOM     28  N   UNL     1       4.899  -3.446  -3.679  0.00  0.00    +0.381 N 
ATOM     29  C   UNL     1       4.801  -2.358  -4.660  0.00  0.00    -0.079 C 
ATOM     30  C   UNL     1       6.197  -1.804  -4.953  0.00  0.00    -0.019 C 
ATOM     31  C   UNL     1       7.077  -2.924  -5.517  0.00  0.00    -0.004 C 
ATOM     32  C   UNL     1       7.111  -4.085  -4.518  0.00  0.00    -0.019 C 
ATOM     33  C   UNL     1       5.681  -4.554  -4.240  0.00  0.00    -0.079 C 
ATOM     34  H   UNL     1       5.351  -3.105  -2.845  0.00  0.00    -0.082 HD
ENDBRANCH  27  28
ENDBRANCH  26  27
ENDBRANCH  23  26
ENDBRANCH   2  20
BRANCH   3  35
ATOM     35  N   UNL     1      -3.640  -2.592  -1.858  0.00  0.00    -0.342 N 
ATOM     36  H   UNL     1      -3.194  -3.175  -2.493  0.00  0.00    +0.144 HD
ATOM     37  H   UNL     1      -4.601  -2.470  -1.903  0.00  0.00    +0.144 HD
ENDBRANCH   3  35
TORSDOF 7
