REMARK  Name = ZINC13008029
REMARK  9 active torsions:
REMARK  status: ('A' for Active; 'I' for Inactive)
REMARK    1  A    between atoms: C_1  and  N_2
REMARK    2  A    between atoms: C_9  and  C_11
REMARK    3  A    between atoms: C_11  and  C_13
REMARK    4  A    between atoms: C_11  and  N_64
REMARK    5  A    between atoms: C_13  and  N_14
REMARK    6  A    between atoms: C_15  and  C_17
REMARK    7  A    between atoms: N_19  and  C_20
REMARK    8  A    between atoms: C_23  and  O_26
REMARK    9  A    between atoms: O_26  and  C_27
REMARK                            x       y       z     vdW  Elec       q    Type
REMARK                         _______ _______ _______ _____ _____    ______ ____
ROOT
ATOM      1  C   UNL     1       1.726   1.401   0.381  0.00  0.00    +0.094 C 
ENDROOT
BRANCH   1   2
ATOM      2  N   UNL     1       1.987   0.708   1.645  0.00  0.00    -0.309 N 
ATOM      3  C   UNL     1       3.200   0.801   2.226  0.00  0.00    +0.299 C 
ATOM      4  O   UNL     1       4.075   1.459   1.702  0.00  0.00    -0.265 OA
ATOM      5  H   UNL     1       1.288   0.182   2.063  0.00  0.00    +0.149 HD
BRANCH   3   6
ATOM      6  C   UNL     1       3.466   0.094   3.514  0.00  0.00    +0.303 C 
ATOM      7  O   UNL     1       2.591  -0.564   4.038  0.00  0.00    -0.265 OA
ATOM      8  N   UNL     1       4.679   0.187   4.095  0.00  0.00    -0.278 N 
ATOM      9  H   UNL     1       5.399   0.654   3.643  0.00  0.00    +0.155 HD
BRANCH   8  10
ATOM     10  C   UNL     1       4.899  -0.390   5.350  0.00  0.00    +0.034 A 
ATOM     11  C   UNL     1       5.747   0.227   6.260  0.00  0.00    +0.027 A 
ATOM     12  C   UNL     1       5.960  -0.341   7.500  0.00  0.00    +0.048 A 
ATOM     13  C   UNL     1       5.335  -1.534   7.834  0.00  0.00    +0.130 A 
ATOM     14  C   UNL     1       4.492  -2.154   6.924  0.00  0.00    +0.048 A 
ATOM     15  C   UNL     1       4.273  -1.585   5.685  0.00  0.00    +0.027 A 
BRANCH  13  16
ATOM     16  O   UNL     1       5.549  -2.095   9.054  0.00  0.00    -0.406 OA
BRANCH  16  17
ATOM     17  C   UNL     1       6.429  -1.402   9.941  0.00  0.00    +0.575 C 
ATOM     18  F   UNL     1       5.921  -0.125  10.199  0.00  0.00    -0.133 F 
ATOM     19  F   UNL     1       6.536  -2.113  11.141  0.00  0.00    -0.133 F 
ATOM     20  F   UNL     1       7.693  -1.291   9.351  0.00  0.00    -0.133 F 
ENDBRANCH  16  17
ENDBRANCH  13  16
ENDBRANCH   8  10
ENDBRANCH   3   6
ENDBRANCH   1   2
BRANCH   1  21
ATOM     21  C   UNL     1       0.251   1.241   0.007  0.00  0.00    -0.020 C 
BRANCH  21  30
ATOM     22  C   UNL     1      -3.924   4.679   3.547  0.00  0.00    +0.129 C 
ATOM     23  N   UNL     1      -3.000   3.628   3.993  0.00  0.00    -0.332 N 
ATOM     24  C   UNL     1      -3.740   2.452   4.500  0.00  0.00    +0.109 C 
ATOM     25  C   UNL     1      -2.792   1.281   4.154  0.00  0.00    +0.056 C 
ATOM     26  C   UNL     1      -2.005   1.822   2.977  0.00  0.00    -0.025 A 
ATOM     27  C   UNL     1      -2.181   3.200   2.940  0.00  0.00    +0.033 A 
ATOM     28  C   UNL     1      -1.561   3.936   1.932  0.00  0.00    +0.023 A 
ATOM     29  C   UNL     1      -0.775   3.301   0.993  0.00  0.00    +0.004 A 
ATOM     30  C   UNL     1      -0.607   1.930   1.037  0.00  0.00    -0.059 A 
ATOM     31  C   UNL     1      -1.222   1.192   2.033  0.00  0.00    +0.007 A 
ENDBRANCH  21  30
BRANCH  21  37
ATOM     32  C   UNL     1      -1.419   1.829  -1.645  0.00  0.00    -0.078 C 
ATOM     33  C   UNL     1      -1.646   2.592  -2.952  0.00  0.00    -0.019 C 
ATOM     34  C   UNL     1      -0.836   1.931  -4.070  0.00  0.00    -0.004 C 
ATOM     35  C   UNL     1       0.644   1.915  -3.677  0.00  0.00    -0.019 C 
ATOM     36  C   UNL     1       0.805   1.172  -2.349  0.00  0.00    -0.078 C 
ATOM     37  N   UNL     1       0.021   1.872  -1.309  0.00  0.00    +0.385 N 
ATOM     38  H   UNL     1       0.324   2.852  -1.266  0.00  0.00    -0.081 HD
ENDBRANCH  21  37
ENDBRANCH   1  21
TORSDOF 8
