REMARK  Name = ZINC19512716
REMARK  2 active torsions:
REMARK  status: ('A' for Active; 'I' for Inactive)
REMARK    1  A    between atoms: C_8  and  C_12
REMARK    2  A    between atoms: C_18  and  C_21
REMARK                            x       y       z     vdW  Elec       q    Type
REMARK                         _______ _______ _______ _____ _____    ______ ____
ROOT
ATOM      1  C   UNL     1       3.149  -0.645   1.467  0.00  0.00    +0.202 C 
ATOM      2  O   UNL     1       3.053  -1.853   1.528  0.00  0.00    -0.277 OA
ATOM      3  N   UNL     1       2.043   0.113   1.334  0.00  0.00    -0.302 N 
ATOM      4  C   UNL     1       2.144   1.577   1.259  0.00  0.00    +0.108 C 
ATOM      5  C   UNL     1       1.417   2.058  -0.000  0.00  0.00    +0.020 C 
ATOM      6  C   UNL     1      -0.019   1.526   0.010  0.00  0.00    +0.016 C 
ATOM      7  C   UNL     1       0.002  -0.004   0.002  0.00  0.00    +0.092 C 
ATOM      8  C   UNL     1       0.714  -0.508   1.262  0.00  0.00    +0.120 C 
ENDROOT
BRANCH   1  16
ATOM      9  C   UNL     1       8.270   1.861  -0.930  0.00  0.00    +0.000 A 
ATOM     10  C   UNL     1       9.081   1.584   0.156  0.00  0.00    +0.000 A 
ATOM     11  C   UNL     1       8.565   0.908   1.243  0.00  0.00    +0.002 A 
ATOM     12  C   UNL     1       7.238   0.504   1.253  0.00  0.00    -0.061 A 
ATOM     13  C   UNL     1       6.432   0.778   0.169  0.00  0.00    -0.047 A 
ATOM     14  C   UNL     1       6.950   1.459  -0.922  0.00  0.00    +0.004 A 
ATOM     15  C   UNL     1       4.987   0.351   0.130  0.00  0.00    +0.029 C 
ATOM     16  C   UNL     1       4.506   0.006   1.540  0.00  0.00    +0.021 C 
ATOM     17  N   UNL     1       5.470  -0.925   2.148  0.00  0.00    +0.390 N 
ATOM     18  C   UNL     1       6.720  -0.226   2.464  0.00  0.00    -0.045 C 
ATOM     19  H   UNL     1       5.045  -1.339   3.074  0.00  0.00    -0.084 HD
ATOM     20  H   UNL     1       5.684  -1.742   1.444  0.00  0.00    -0.084 HD
ENDBRANCH   1  16
BRANCH   7  21
ATOM     21  C   UNL     1      -1.411  -0.526  -0.020  0.00  0.00    +0.215 C 
ATOM     22  O   UNL     1      -1.810  -1.234   0.880  0.00  0.00    -0.276 OA
ATOM     23  N   UNL     1      -2.232  -0.206  -1.040  0.00  0.00    -0.329 N 
ATOM     24  H   UNL     1      -3.264  -0.588  -1.056  0.00  0.00    +0.145 HD
ATOM     25  H   UNL     1      -1.870   0.436  -1.857  0.00  0.00    +0.145 HD
ENDBRANCH   7  21
TORSDOF 2
