REMARK  Name = ZINC20388134
REMARK  3 active torsions:
REMARK  status: ('A' for Active; 'I' for Inactive)
REMARK    1  A    between atoms: C_1  and  C_2
REMARK    2  A    between atoms: N_5  and  C_8
REMARK    3  A    between atoms: C_13  and  N_14
REMARK                            x       y       z     vdW  Elec       q    Type
REMARK                         _______ _______ _______ _____ _____    ______ ____
ROOT
ATOM      1  C   UNL     1       1.128   1.751   0.278  0.00  0.00    +0.053 A 
ATOM      2  C   UNL     1       1.142   3.136   0.313  0.00  0.00    +0.052 A 
ATOM      3  C   UNL     1      -0.022   3.846   0.057  0.00  0.00    +0.069 A 
ATOM      4  C   UNL     1      -1.203   3.165  -0.243  0.00  0.00    +0.069 A 
ATOM      5  C   UNL     1      -1.216   1.779  -0.278  0.00  0.00    +0.052 A 
ATOM      6  C   UNL     1      -0.054   1.071  -0.018  0.00  0.00    +0.048 A 
ATOM      7  N   UNL     1      -2.184   4.135  -0.454  0.00  0.00    -0.306 N 
ATOM      8  H   UNL     1      -3.209   3.832  -0.714  0.00  0.00    +0.170 HD
ATOM      9  C   UNL     1      -1.626   5.348  -0.281  0.00  0.00    +0.325 A 
ATOM     10  O   UNL     1      -2.210   6.410  -0.391  0.00  0.00    -0.247 OA
ATOM     11  N   UNL     1      -0.322   5.208   0.023  0.00  0.00    -0.306 N 
ATOM     12  H   UNL     1       0.464   5.949   0.227  0.00  0.00    +0.170 HD
ENDROOT
BRANCH   1  17
ATOM     13  C   UNL     1       5.915  -0.611   2.129  0.00  0.00    +0.007 C 
ATOM     14  C   UNL     1       4.669   0.269   2.010  0.00  0.00    -0.011 C 
ATOM     15  C   UNL     1       3.420  -0.615   1.969  0.00  0.00    +0.022 C 
ATOM     16  C   UNL     1       2.182   0.266   1.789  0.00  0.00    +0.105 C 
ATOM     17  N   UNL     1       2.303   1.032   0.542  0.00  0.00    -0.328 N 
ATOM     18  C   UNL     1       3.469   1.924   0.577  0.00  0.00    +0.105 C 
ATOM     19  C   UNL     1       4.745   1.092   0.721  0.00  0.00    +0.022 C 
ENDBRANCH   1  17
BRANCH   6  20
ATOM     20  N   UNL     1      -0.065  -0.331  -0.052  0.00  0.00    -0.356 N 
ATOM     21  H   UNL     1      -0.996  -0.868  -0.285  0.00  0.00    +0.142 HD
ATOM     22  H   UNL     1       0.857  -0.893   0.155  0.00  0.00    +0.142 HD
ENDBRANCH   6  20
TORSDOF 2
