REMARK  Name = ZINC20366643
REMARK  5 active torsions:
REMARK  status: ('A' for Active; 'I' for Inactive)
REMARK    1  A    between atoms: C_1  and  C_2
REMARK    2  A    between atoms: C_3  and  C_18
REMARK    3  A    between atoms: C_5  and  N_17
REMARK    4  A    between atoms: C_6  and  C_14
REMARK    5  A    between atoms: C_7  and  C_8
REMARK                            x       y       z     vdW  Elec       q    Type
REMARK                         _______ _______ _______ _____ _____    ______ ____
ROOT
ATOM      1  C   UNL     1      -1.236   6.014   2.457  0.00  0.00    +0.046 C 
ATOM      2  C   UNL     1      -1.230   5.203   1.187  0.00  0.00    -0.021 A 
ATOM      3  C   UNL     1      -1.244   5.832  -0.042  0.00  0.00    +0.044 A 
ATOM      4  N   UNL     1      -1.240   5.143  -1.166  0.00  0.00    -0.237 NA
ATOM      5  C   UNL     1      -1.217   3.819  -1.179  0.00  0.00    +0.129 A 
ATOM      6  C   UNL     1      -1.207   3.095   0.025  0.00  0.00    +0.084 A 
ATOM      7  C   UNL     1      -1.211   3.809   1.242  0.00  0.00    +0.002 A 
ATOM      8  C   UNL     1      -1.264   7.338  -0.100  0.00  0.00    +0.066 C 
ENDROOT
BRANCH   7   9
ATOM      9  C   UNL     1      -1.196   3.098   2.541  0.00  0.00    -0.017 A 
ATOM     10  C   UNL     1      -2.284   3.199   3.408  0.00  0.00    +0.008 A 
ATOM     11  C   UNL     1      -2.265   2.530   4.615  0.00  0.00    +0.001 A 
ATOM     12  C   UNL     1      -1.166   1.769   4.971  0.00  0.00    +0.000 A 
ATOM     13  C   UNL     1      -0.081   1.670   4.118  0.00  0.00    +0.001 A 
ATOM     14  C   UNL     1      -0.090   2.329   2.906  0.00  0.00    +0.008 A 
ENDBRANCH   7   9
BRANCH   6  15
ATOM     15  C   UNL     1      -1.187   1.624   0.017  0.00  0.00    +0.245 C 
ATOM     16  O   UNL     1      -2.232   1.001   0.018  0.00  0.00    -0.270 OA
ATOM     17  N   UNL     1      -0.011   0.966   0.007  0.00  0.00    -0.325 N 
ATOM     18  H   UNL     1       0.004  -0.134   0.001  0.00  0.00    +0.145 HD
ATOM     19  H   UNL     1       0.934   1.529   0.006  0.00  0.00    +0.145 HD
ENDBRANCH   6  15
BRANCH   5  20
ATOM     20  N   UNL     1      -1.207   3.144  -2.386  0.00  0.00    -0.343 N 
ATOM     21  H   UNL     1      -1.188   2.044  -2.401  0.00  0.00    +0.144 HD
ATOM     22  H   UNL     1      -1.219   3.707  -3.331  0.00  0.00    +0.144 HD
ENDBRANCH   5  20
TORSDOF 3
