REMARK  Name = ZINC37622303
REMARK  9 active torsions:
REMARK  status: ('A' for Active; 'I' for Inactive)
REMARK    1  A    between atoms: C_1  and  C_2
REMARK    2  A    between atoms: C_2  and  C_3
REMARK    3  A    between atoms: C_3  and  C_4
REMARK    4  A    between atoms: C_4  and  C_5
REMARK    5  A    between atoms: C_4  and  C_6
REMARK    6  A    between atoms: C_4  and  N_20
REMARK    7  A    between atoms: N_8  and  C_9
REMARK    8  A    between atoms: C_11  and  S_16
REMARK    9  A    between atoms: S_16  and  C_19
REMARK                            x       y       z     vdW  Elec       q    Type
REMARK                         _______ _______ _______ _____ _____    ______ ____
ROOT
ATOM      1  C   UNL     1      -2.827  -2.584   0.019  0.00  0.00    +0.206 C 
ATOM      2  O   UNL     1      -3.728  -1.900  -0.419  0.00  0.00    -0.277 OA
ATOM      3  N   UNL     1      -3.088  -3.813   0.504  0.00  0.00    -0.284 N 
ATOM      4  H   UNL     1      -2.359  -4.391   0.780  0.00  0.00    +0.155 HD
ENDROOT
BRANCH   3   5
ATOM      5  C   UNL     1      -4.412  -4.257   0.611  0.00  0.00    +0.071 A 
ATOM      6  C   UNL     1      -5.446  -3.339   0.725  0.00  0.00    +0.053 A 
ATOM      7  C   UNL     1      -6.751  -3.780   0.830  0.00  0.00    +0.090 A 
ATOM      8  C   UNL     1      -7.029  -5.134   0.823  0.00  0.00    +0.030 A 
ATOM      9  C   UNL     1      -6.002  -6.053   0.710  0.00  0.00    +0.042 A 
ATOM     10  C   UNL     1      -4.693  -5.619   0.598  0.00  0.00    +0.145 A 
ATOM     11  F   UNL     1      -3.690  -6.516   0.482  0.00  0.00    -0.204 F 
BRANCH   7  12
ATOM     12  S   UNL     1      -8.065  -2.614   0.975  0.00  0.00    -0.006 S 
ATOM     13  O   UNL     1      -9.098  -3.313   1.655  0.00  0.00    -0.170 OA
ATOM     14  O   UNL     1      -7.465  -1.463   1.555  0.00  0.00    -0.170 OA
ATOM     15  C   UNL     1      -8.566  -2.263  -0.733  0.00  0.00    +0.200 C 
ENDBRANCH   7  12
ENDBRANCH   3   5
BRANCH   1  16
ATOM     16  C   UNL     1      -1.414  -2.058   0.019  0.00  0.00    +0.005 C 
ATOM     17  C   UNL     1      -0.687  -2.547  -1.234  0.00  0.00    -0.001 C 
BRANCH  16  18
ATOM     18  N   UNL     1      -0.711  -2.543   1.214  0.00  0.00    +0.387 N 
ATOM     19  H   UNL     1      -1.191  -2.221   2.041  0.00  0.00    -0.089 HD
ATOM     20  H   UNL     1      -0.695  -3.552   1.208  0.00  0.00    -0.089 HD
ATOM     21  H   UNL     1       0.234  -2.191   1.215  0.00  0.00    -0.089 HD
ENDBRANCH  16  18
BRANCH  16  22
ATOM     22  C   UNL     1      -1.440  -0.528   0.030  0.00  0.00    -0.004 C 
BRANCH  22  24
ATOM     23  C   UNL     1      -0.032   1.536   0.041  0.00  0.00    +0.004 C 
ATOM     24  C   UNL     1      -0.006   0.006   0.030  0.00  0.00    -0.004 C 
ENDBRANCH  22  24
ENDBRANCH  16  22
ENDBRANCH   1  16
TORSDOF 6
