REMARK  Name = ZINC05882075
REMARK  5 active torsions:
REMARK  status: ('A' for Active; 'I' for Inactive)
REMARK    1  A    between atoms: C_1  and  C_2
REMARK    2  A    between atoms: C_4  and  N_10
REMARK    3  A    between atoms: C_7  and  C_8
REMARK    4  A    between atoms: N_10  and  S_11
REMARK    5  A    between atoms: S_11  and  C_14
REMARK                            x       y       z     vdW  Elec       q    Type
REMARK                         _______ _______ _______ _____ _____    ______ ____
ROOT
ATOM      1  S   UNL     1       3.944   2.416   0.004  0.00  0.00    +0.072 S 
ATOM      2  O   UNL     1       3.724   3.726   0.510  0.00  0.00    -0.150 OA
ATOM      3  O   UNL     1       4.927   1.546   0.546  0.00  0.00    -0.150 OA
ENDROOT
BRANCH   1   4
ATOM      4  C   UNL     1       2.404   1.568   0.116  0.00  0.00    +0.111 A 
ATOM      5  C   UNL     1       1.221   2.287   0.141  0.00  0.00    +0.031 A 
ATOM      6  C   UNL     1       0.009   1.631   0.229  0.00  0.00    +0.030 A 
ATOM      7  C   UNL     1      -0.024   0.247   0.291  0.00  0.00    +0.067 A 
ATOM      8  C   UNL     1       1.169  -0.479   0.264  0.00  0.00    +0.069 A 
ATOM      9  C   UNL     1       2.381   0.189   0.176  0.00  0.00    +0.056 A 
ATOM     10  N   UNL     1       0.823  -1.826   0.340  0.00  0.00    -0.306 N 
ATOM     11  H   UNL     1       1.442  -2.572   0.343  0.00  0.00    +0.170 HD
ATOM     12  C   UNL     1      -0.519  -1.915   0.409  0.00  0.00    +0.325 A 
ATOM     13  O   UNL     1      -1.149  -2.954   0.485  0.00  0.00    -0.247 OA
ATOM     14  N   UNL     1      -1.058  -0.682   0.382  0.00  0.00    -0.306 N 
ATOM     15  H   UNL     1      -2.005  -0.475   0.419  0.00  0.00    +0.170 HD
ENDBRANCH   1   4
BRANCH   1  16
ATOM     16  N   UNL     1       4.295   2.583  -1.606  0.00  0.00    -0.215 N 
ATOM     17  H   UNL     1       5.103   2.188  -1.969  0.00  0.00    +0.174 HD
BRANCH  16  21
ATOM     18  C   UNL     1       1.183   6.329  -2.265  0.00  0.00    +0.044 C 
ATOM     19  C   UNL     1       1.906   5.114  -2.787  0.00  0.00    -0.046 A 
ATOM     20  C   UNL     1       2.758   4.410  -1.958  0.00  0.00    +0.029 A 
ATOM     21  C   UNL     1       3.429   3.294  -2.440  0.00  0.00    +0.062 A 
ATOM     22  C   UNL     1       3.232   2.883  -3.753  0.00  0.00    +0.040 A 
ATOM     23  C   UNL     1       2.374   3.588  -4.575  0.00  0.00    +0.020 A 
ATOM     24  C   UNL     1       1.712   4.703  -4.092  0.00  0.00    -0.046 A 
ATOM     25  C   UNL     1       0.778   5.470  -4.991  0.00  0.00    +0.044 C 
ATOM     26 BR   UNL     1       4.136   1.359  -4.413  0.00  0.00    -0.048 Br
ENDBRANCH  16  21
ENDBRANCH   1  16
TORSDOF 3
