REMARK  Name = ZINC05487697
REMARK  4 active torsions:
REMARK  status: ('A' for Active; 'I' for Inactive)
REMARK    1  A    between atoms: C_1  and  C_2
REMARK    2  A    between atoms: C_2  and  C_3
REMARK    3  A    between atoms: C_2  and  C_4
REMARK    4  A    between atoms: C_2  and  C_6
REMARK                            x       y       z     vdW  Elec       q    Type
REMARK                         _______ _______ _______ _____ _____    ______ ____
ROOT
ATOM      1  C   UNL     1       1.621  -1.173  -2.250  0.00  0.00    +0.043 C 
ATOM      2  C   UNL     1       2.272  -1.677  -3.534  0.00  0.00    +0.048 C 
ATOM      3  C   UNL     1       1.103  -2.505  -4.161  0.00  0.00    +0.165 C 
ATOM      4  C   UNL     1       0.322  -1.575  -5.050  0.00  0.00    +0.238 C 
ATOM      5  O   UNL     1       0.728  -0.442  -5.200  0.00  0.00    -0.273 OA
ATOM      6  N   UNL     1      -0.790  -1.936  -5.675  0.00  0.00    -0.283 N 
ATOM      7  C   UNL     1      -1.391  -3.180  -5.637  0.00  0.00    +0.046 A 
ATOM      8  C   UNL     1      -1.895  -3.685  -6.838  0.00  0.00    +0.024 A 
ATOM      9  C   UNL     1      -2.525  -4.909  -6.876  0.00  0.00    +0.002 A 
ATOM     10  C   UNL     1      -2.667  -5.654  -5.716  0.00  0.00    +0.001 A 
ATOM     11  C   UNL     1      -2.171  -5.178  -4.525  0.00  0.00    +0.015 A 
ATOM     12  C   UNL     1      -1.516  -3.936  -4.472  0.00  0.00    +0.058 A 
ATOM     13  C   UNL     1      -0.972  -3.505  -3.180  0.00  0.00    +0.250 C 
ATOM     14  O   UNL     1      -1.639  -3.712  -2.184  0.00  0.00    -0.270 OA
ATOM     15  N   UNL     1       0.211  -2.900  -3.027  0.00  0.00    -0.267 N 
ATOM     16  C   UNL     1       0.893  -2.514  -1.851  0.00  0.00    +0.173 C 
ATOM     17  N   UNL     1       0.508  -2.227  -0.510  0.00  0.00    -0.325 N 
ATOM     18  C   UNL     1       1.662  -1.609   0.024  0.00  0.00    +0.032 A 
ATOM     19  C   UNL     1       2.397  -0.969  -1.006  0.00  0.00    -0.016 A 
ATOM     20  C   UNL     1       3.582  -0.322  -0.736  0.00  0.00    +0.006 A 
ATOM     21  C   UNL     1       4.018  -0.307   0.584  0.00  0.00    +0.000 A 
ATOM     22  C   UNL     1       3.299  -0.915   1.592  0.00  0.00    +0.002 A 
ATOM     23  C   UNL     1       2.107  -1.580   1.337  0.00  0.00    +0.023 A 
ATOM     24  H   UNL     1      -1.226  -1.258  -6.215  0.00  0.00    +0.155 HD
ATOM     25  H   UNL     1      -0.338  -2.408  -0.072  0.00  0.00    +0.148 HD
ENDROOT
BRANCH   1  27
ATOM     26  C   UNL     1       0.114   0.498  -1.165  0.00  0.00    +0.016 C 
ATOM     27  C   UNL     1       0.641  -0.026  -2.502  0.00  0.00    -0.004 C 
ATOM     28  C   UNL     1       1.358   1.103  -3.246  0.00  0.00    +0.016 C 
BRANCH  27  29
ATOM     29  C   UNL     1      -0.512  -0.524  -3.336  0.00  0.00    -0.027 C 
ATOM     30  C   UNL     1      -1.368   0.327  -3.844  0.00  0.00    +0.004 C 
ENDBRANCH  27  29
ENDBRANCH   1  27
TORSDOF 2
