REMARK  Name = ZINC37078233
REMARK  6 active torsions:
REMARK  status: ('A' for Active; 'I' for Inactive)
REMARK    1  A    between atoms: C_1  and  C_2
REMARK    2  A    between atoms: C_2  and  N_3
REMARK    3  A    between atoms: N_3  and  C_4
REMARK    4  A    between atoms: N_3  and  S_5
REMARK    5  A    between atoms: S_5  and  C_8
REMARK    6  A    between atoms: C_11  and  N_15
REMARK                            x       y       z     vdW  Elec       q    Type
REMARK                         _______ _______ _______ _____ _____    ______ ____
ROOT
ATOM      1  C   UNL     1       3.218   0.606   1.484  0.00  0.00    +0.142 A 
ATOM      2  C   UNL     1       3.568   1.488   0.476  0.00  0.00    +0.070 A 
ATOM      3  C   UNL     1       4.270   2.639   0.776  0.00  0.00    +0.044 A 
ATOM      4  C   UNL     1       4.625   2.912   2.091  0.00  0.00    +0.027 A 
ATOM      5  C   UNL     1       4.272   2.026   3.101  0.00  0.00    +0.044 A 
ATOM      6  C   UNL     1       3.565   0.878   2.796  0.00  0.00    +0.070 A 
ATOM      7 CL   UNL     1       3.117  -0.227   4.058  0.00  0.00    -0.081 Cl
ATOM      8 CL   UNL     1       3.124   1.146  -1.167  0.00  0.00    -0.081 Cl
ENDROOT
BRANCH   1   9
ATOM      9  S   UNL     1       2.322  -0.861   1.097  0.00  0.00    +0.063 S 
ATOM     10  O   UNL     1       2.586  -1.786   2.143  0.00  0.00    -0.153 OA
ATOM     11  O   UNL     1       2.594  -1.155  -0.266  0.00  0.00    -0.153 OA
BRANCH   9  12
ATOM     12  N   UNL     1       0.711  -0.489   1.189  0.00  0.00    -0.180 NA
ATOM     13  C   UNL     1      -0.006  -0.646   2.457  0.00  0.00    +0.131 C 
BRANCH  12  15
ATOM     14  C   UNL     1      -0.019   1.526   0.010  0.00  0.00    +0.022 C 
ATOM     15  C   UNL     1       0.002  -0.004   0.002  0.00  0.00    +0.106 C 
ENDBRANCH  12  15
ENDBRANCH   9  12
ENDBRANCH   1   9
BRANCH   4  16
ATOM     16  N   UNL     1       5.335   4.075   2.398  0.00  0.00    -0.358 N 
ATOM     17  H   UNL     1       5.582   4.693   1.692  0.00  0.00    +0.142 HD
ATOM     18  H   UNL     1       5.582   4.264   3.317  0.00  0.00    +0.142 HD
ENDBRANCH   4  16
TORSDOF 4
