REMARK  Name = ZINC04958131
REMARK  4 active torsions:
REMARK  status: ('A' for Active; 'I' for Inactive)
REMARK    1  A    between atoms: C_1  and  C_2
REMARK    2  A    between atoms: C_6  and  C_16
REMARK    3  A    between atoms: C_10  and  C_11
REMARK    4  A    between atoms: N_12  and  C_13
REMARK                            x       y       z     vdW  Elec       q    Type
REMARK                         _______ _______ _______ _____ _____    ______ ____
ROOT
ATOM      1  C   UNL     1       1.239   3.454   0.272  0.00  0.00    +0.046 C 
ATOM      2  C   UNL     1      -0.180   3.962   0.259  0.00  0.00    -0.020 A 
ATOM      3  C   UNL     1      -1.229   3.104  -0.092  0.00  0.00    +0.051 A 
ATOM      4  C   UNL     1      -1.180   1.726  -0.467  0.00  0.00    +0.129 A 
ATOM      5  N   UNL     1      -2.304   1.095  -0.757  0.00  0.00    -0.212 NA
ATOM      6  C   UNL     1      -3.486   1.701  -0.718  0.00  0.00    +0.163 A 
ATOM      7  N   UNL     1      -3.595   2.981  -0.382  0.00  0.00    -0.220 NA
ATOM      8  C   UNL     1      -2.524   3.682  -0.078  0.00  0.00    +0.115 A 
ATOM      9  S   UNL     1      -2.218   5.360   0.411  0.00  0.00    -0.065 S 
ATOM     10  C   UNL     1      -0.445   5.258   0.588  0.00  0.00    +0.058 A 
ATOM     11  N   UNL     1       0.028   1.060  -0.520  0.00  0.00    -0.343 N 
ATOM     12  H   UNL     1       0.845   1.551  -0.702  0.00  0.00    +0.144 HD
ATOM     13  H   UNL     1       0.060   0.102  -0.371  0.00  0.00    +0.144 HD
ENDROOT
BRANCH   6  14
ATOM     14  C   UNL     1      -4.708   0.932  -1.056  0.00  0.00    +0.019 A 
ATOM     15  C   UNL     1      -5.957   1.550  -1.014  0.00  0.00    +0.011 A 
ATOM     16  C   UNL     1      -7.090   0.831  -1.336  0.00  0.00    +0.001 A 
ATOM     17  C   UNL     1      -6.990  -0.503  -1.687  0.00  0.00    +0.000 A 
ATOM     18  C   UNL     1      -5.753  -1.123  -1.724  0.00  0.00    +0.001 A 
ATOM     19  C   UNL     1      -4.613  -0.412  -1.411  0.00  0.00    +0.011 A 
ENDBRANCH   6  14
BRANCH  10  20
ATOM     20  C   UNL     1       0.496   6.311   0.981  0.00  0.00    +0.143 C 
ATOM     21  N   UNL     1       1.792   6.050   1.049  0.00  0.00    -0.157 NA
ATOM     22  N   UNL     1       0.033   7.569   1.278  0.00  0.00    -0.342 N 
ATOM     23  H   UNL     1      -0.916   7.761   1.228  0.00  0.00    +0.144 HD
ATOM     24  H   UNL     1       0.656   8.266   1.538  0.00  0.00    +0.144 HD
BRANCH  21  25
ATOM     25  C   UNL     1       2.662   7.023   1.412  0.00  0.00    +0.207 C 
ATOM     26  N   UNL     1       3.391   7.840   1.716  0.00  0.00    -0.169 NA
ENDBRANCH  21  25
ENDBRANCH  10  20
TORSDOF 3
