REMARK  Name = ZINC40328468
REMARK  6 active torsions:
REMARK  status: ('A' for Active; 'I' for Inactive)
REMARK    1  A    between atoms: C_1  and  C_2
REMARK    2  A    between atoms: C_2  and  N_3
REMARK    3  A    between atoms: N_3  and  C_4
REMARK    4  A    between atoms: N_3  and  S_12
REMARK    5  A    between atoms: S_12  and  C_15
REMARK    6  A    between atoms: C_20  and  N_21
REMARK                            x       y       z     vdW  Elec       q    Type
REMARK                         _______ _______ _______ _____ _____    ______ ____
ROOT
ATOM      1  S   UNL     1      -2.198  -0.985   1.121  0.00  0.00    +0.063 S 
ATOM      2  O   UNL     1      -1.641  -0.474   2.325  0.00  0.00    -0.153 OA
ATOM      3  O   UNL     1      -3.486  -0.605   0.657  0.00  0.00    -0.153 OA
ENDROOT
BRANCH   1   4
ATOM      4  C   UNL     1      -2.217  -2.739   1.280  0.00  0.00    +0.126 A 
ATOM      5  C   UNL     1      -1.718  -3.336   2.422  0.00  0.00    +0.030 A 
ATOM      6  C   UNL     1      -1.732  -4.713   2.547  0.00  0.00    +0.002 A 
ATOM      7  C   UNL     1      -2.247  -5.497   1.531  0.00  0.00    +0.002 A 
ATOM      8  C   UNL     1      -2.748  -4.908   0.387  0.00  0.00    +0.025 A 
ATOM      9  C   UNL     1      -2.740  -3.524   0.260  0.00  0.00    +0.051 A 
BRANCH   9  10
ATOM     10  N   UNL     1      -3.250  -2.924  -0.893  0.00  0.00    -0.356 N 
ATOM     11  H   UNL     1      -3.233  -1.958  -0.986  0.00  0.00    +0.142 HD
ATOM     12  H   UNL     1      -3.622  -3.473  -1.601  0.00  0.00    +0.142 HD
ENDBRANCH   9  10
ENDBRANCH   1   4
BRANCH   1  13
ATOM     13  N   UNL     1      -1.130  -0.614  -0.089  0.00  0.00    -0.172 NA
BRANCH  13  14
ATOM     14  C   UNL     1      -1.623  -0.326  -1.438  0.00  0.00    +0.102 C 
ATOM     15  C   UNL     1      -1.090  -1.381  -2.422  0.00  0.00    +0.045 C 
ATOM     16  C   UNL     1      -1.332  -0.914  -3.878  0.00  0.00    +0.167 C 
ATOM     17  S   UNL     1      -1.316   0.919  -3.723  0.00  0.00    -0.029 S 
ATOM     18  O   UNL     1      -2.593   1.425  -4.087  0.00  0.00    -0.174 OA
ATOM     19  O   UNL     1      -0.154   1.427  -4.363  0.00  0.00    -0.174 OA
ATOM     20  C   UNL     1      -1.110   1.068  -1.898  0.00  0.00    +0.186 C 
ENDBRANCH  13  14
BRANCH  13  22
ATOM     21  C   UNL     1       0.913  -1.958  -0.059  0.00  0.00    +0.022 C 
ATOM     22  C   UNL     1       0.308  -0.575   0.189  0.00  0.00    +0.106 C 
ENDBRANCH  13  22
ENDBRANCH   1  13
TORSDOF 5
