REMARK  Name = ZINC02490007
REMARK  4 active torsions:
REMARK  status: ('A' for Active; 'I' for Inactive)
REMARK    1  A    between atoms: C_1  and  S_2
REMARK    2  A    between atoms: S_2  and  C_3
REMARK    3  A    between atoms: C_4  and  C_14
REMARK    4  A    between atoms: C_8  and  N_13
REMARK                            x       y       z     vdW  Elec       q    Type
REMARK                         _______ _______ _______ _____ _____    ______ ____
ROOT
ATOM      1  C   UNL     1      -1.095   5.729   0.057  0.00  0.00    +0.065 A 
ATOM      2  C   UNL     1      -2.370   5.174   0.042  0.00  0.00    +0.098 A 
ATOM      3  C   UNL     1      -2.481   3.719   0.034  0.00  0.00    +0.103 A 
ATOM      4  C   UNL     1      -1.258   3.026   0.030  0.00  0.00    +0.080 A 
ATOM      5  S   UNL     1      -0.028   4.302   0.040  0.00  0.00    -0.076 S 
ATOM      6  C   UNL     1      -1.221   1.643   0.017  0.00  0.00    +0.136 A 
ATOM      7  N   UNL     1      -2.376   0.975   0.019  0.00  0.00    -0.199 NA
ATOM      8  C   UNL     1      -3.524   1.638   0.028  0.00  0.00    +0.215 A 
ATOM      9  N   UNL     1      -3.597   2.952   0.035  0.00  0.00    -0.213 NA
ATOM     10  N   UNL     1      -4.705   0.912   0.030  0.00  0.00    -0.327 N 
ATOM     11  H   UNL     1      -4.678  -0.058   0.025  0.00  0.00    +0.145 HD
ATOM     12  H   UNL     1      -5.558   1.373   0.036  0.00  0.00    +0.145 HD
ENDROOT
BRANCH   6  13
ATOM     13  N   UNL     1      -0.011   0.966   0.007  0.00  0.00    -0.342 N 
ATOM     14  H   UNL     1       0.002  -0.004   0.002  0.00  0.00    +0.144 HD
ATOM     15  H   UNL     1       0.822   1.462   0.002  0.00  0.00    +0.144 HD
ENDBRANCH   6  13
BRANCH   1  17
ATOM     16  C   UNL     1       1.159   7.280   0.067  0.00  0.00    +0.090 C 
ATOM     17  S   UNL     1      -0.644   7.433   0.073  0.00  0.00    -0.120 S 
ENDBRANCH   1  17
BRANCH   2  18
ATOM     18  C   UNL     1      -3.537   6.003   0.052  0.00  0.00    +0.103 C 
ATOM     19  N   UNL     1      -4.463   6.661   0.060  0.00  0.00    -0.191 NA
ENDBRANCH   2  18
TORSDOF 3
