REMARK  Name = ZINC63591080
REMARK  4 active torsions:
REMARK  status: ('A' for Active; 'I' for Inactive)
REMARK    1  A    between atoms: C_4  and  C_8
REMARK    2  A    between atoms: C_8  and  S_9
REMARK    3  A    between atoms: S_9  and  C_10
REMARK    4  A    between atoms: C_16  and  C_20
REMARK                            x       y       z     vdW  Elec       q    Type
REMARK                         _______ _______ _______ _____ _____    ______ ____
ROOT
ATOM      1  C   UNL     1       5.833  -1.892   1.471  0.00  0.00    +0.236 C 
ATOM      2  N   UNL     1       5.632  -3.117   0.687  0.00  0.00    -0.355 N 
ATOM      3  C   UNL     1       6.365  -3.019  -0.384  0.00  0.00    +0.061 A 
ATOM      4  C   UNL     1       6.582  -3.912  -1.531  0.00  0.00    +0.028 A 
ATOM      5  C   UNL     1       7.420  -3.536  -2.518  0.00  0.00    +0.014 A 
ATOM      6  C   UNL     1       8.108  -2.310  -2.502  0.00  0.00    +0.057 A 
ATOM      7  C   UNL     1       7.981  -1.419  -1.498  0.00  0.00    +0.039 A 
ATOM      8  C   UNL     1       7.093  -1.721  -0.368  0.00  0.00    +0.061 A 
ATOM      9  N   UNL     1       6.782  -1.065   0.714  0.00  0.00    -0.355 N 
ATOM     10  H   UNL     1       7.116  -0.192   0.973  0.00  0.00    +0.162 HD
ATOM     11  H   UNL     1       5.058  -3.862   0.923  0.00  0.00    +0.162 HD
ENDROOT
BRANCH   6  12
ATOM     12  C   UNL     1       9.024  -1.979  -3.652  0.00  0.00    +0.417 C 
ATOM     13  F   UNL     1       9.011  -3.030  -4.576  0.00  0.00    -0.166 F 
ATOM     14  F   UNL     1       8.586  -0.805  -4.274  0.00  0.00    -0.166 F 
ATOM     15  F   UNL     1      10.326  -1.796  -3.173  0.00  0.00    -0.166 F 
ENDBRANCH   6  12
BRANCH   1  16
ATOM     16  S   UNL     1       4.258  -1.011   1.665  0.00  0.00    -0.110 S 
BRANCH  16  17
ATOM     17  C   UNL     1       3.713  -0.707  -0.038  0.00  0.00    +0.111 C 
BRANCH  17  21
ATOM     18  C   UNL     1      -0.017   1.378   0.010  0.00  0.00    +0.003 A 
ATOM     19  C   UNL     1       1.171   2.086   0.002  0.00  0.00    +0.020 A 
ATOM     20  C   UNL     1       2.378   1.411  -0.013  0.00  0.00    +0.046 A 
ATOM     21  C   UNL     1       2.398   0.028  -0.021  0.00  0.00    -0.001 A 
ATOM     22  C   UNL     1       1.209  -0.680  -0.013  0.00  0.00    +0.046 A 
ATOM     23  C   UNL     1       0.002  -0.004   0.002  0.00  0.00    +0.020 A 
ATOM     24 CL   UNL     1       1.233  -2.416  -0.023  0.00  0.00    -0.083 Cl
ATOM     25 CL   UNL     1       3.869   2.300  -0.024  0.00  0.00    -0.083 Cl
ENDBRANCH  17  21
ENDBRANCH  16  17
ENDBRANCH   1  16
TORSDOF 4
