REMARK  Name = ZINC19219727
REMARK  6 active torsions:
REMARK  status: ('A' for Active; 'I' for Inactive)
REMARK    1  A    between atoms: C_1  and  C_2
REMARK    2  A    between atoms: C_11  and  C_12
REMARK    3  A    between atoms: C_12  and  C_14
REMARK    4  A    between atoms: C_12  and  O_36
REMARK    5  A    between atoms: C_14  and  N_15
REMARK    6  A    between atoms: C_22  and  O_35
REMARK                            x       y       z     vdW  Elec       q    Type
REMARK                         _______ _______ _______ _____ _____    ______ ____
ROOT
ATOM      1  N   UNL     1       3.770  -1.887   1.392  0.00  0.00    +0.382 N 
ATOM      2  C   UNL     1       2.842  -2.811   0.727  0.00  0.00    -0.075 C 
ATOM      3  C   UNL     1       3.495  -4.189   0.600  0.00  0.00    +0.029 C 
ATOM      4  C   UNL     1       3.854  -4.708   1.993  0.00  0.00    +0.110 C 
ATOM      5  C   UNL     1       4.777  -3.706   2.688  0.00  0.00    +0.029 C 
ATOM      6  C   UNL     1       4.086  -2.341   2.752  0.00  0.00    -0.075 C 
ATOM      7  C   UNL     1       4.567  -6.059   1.867  0.00  0.00    +0.084 C 
ATOM      8  C   UNL     1       4.986  -6.516   3.266  0.00  0.00    +0.152 C 
ATOM      9  C   UNL     1       3.822  -6.382   4.218  0.00  0.00    +0.023 A 
ATOM     10  C   UNL     1       3.862  -7.103   5.414  0.00  0.00    +0.010 A 
ATOM     11  C   UNL     1       2.854  -7.029   6.323  0.00  0.00    +0.009 A 
ATOM     12  C   UNL     1       1.744  -6.208   6.063  0.00  0.00    -0.014 A 
ATOM     13  C   UNL     1       0.684  -6.099   6.981  0.00  0.00    +0.008 A 
ATOM     14  C   UNL     1      -0.372  -5.289   6.695  0.00  0.00    +0.001 A 
ATOM     15  C   UNL     1      -0.420  -4.567   5.504  0.00  0.00    +0.001 A 
ATOM     16  C   UNL     1       0.588  -4.650   4.593  0.00  0.00    +0.012 A 
ATOM     17  C   UNL     1       1.694  -5.475   4.854  0.00  0.00    +0.024 A 
ATOM     18  C   UNL     1       2.756  -5.584   3.926  0.00  0.00    +0.135 A 
ATOM     19  O   UNL     1       2.668  -4.890   2.763  0.00  0.00    -0.485 OA
ATOM     20  H   UNL     1       4.706  -1.879   0.814  0.00  0.00    -0.082 HD
ENDROOT
BRANCH   8  21
ATOM     21  O   UNL     1       5.403  -7.881   3.215  0.00  0.00    -0.387 OA
ATOM     22  H   UNL     1       5.742  -8.387   4.131  0.00  0.00    +0.210 HD
ENDBRANCH   8  21
BRANCH   1  23
ATOM     23  C   UNL     1       3.233  -0.520   1.405  0.00  0.00    -0.042 C 
BRANCH  23  24
ATOM     24  C   UNL     1       3.150   0.009  -0.029  0.00  0.00    +0.130 C 
BRANCH  24  35
ATOM     25  C   UNL     1      -2.557   3.852   0.047  0.00  0.00    +0.044 C 
ATOM     26  C   UNL     1      -1.232   3.133   0.030  0.00  0.00    -0.048 A 
ATOM     27  C   UNL     1      -1.204   1.745   0.017  0.00  0.00    +0.004 A 
ATOM     28  C   UNL     1      -0.013   1.076   0.008  0.00  0.00    +0.010 A 
ATOM     29  C   UNL     1       1.186   1.793   0.000  0.00  0.00    +0.005 A 
ATOM     30  C   UNL     1       1.162   3.199   0.008  0.00  0.00    +0.047 A 
ATOM     31  C   UNL     1      -0.062   3.860   0.023  0.00  0.00    +0.029 A 
ATOM     32  N   UNL     1       2.470   3.628  -0.002  0.00  0.00    -0.360 N 
ATOM     33  H   UNL     1       2.697   4.704   0.002  0.00  0.00    +0.165 HD
ATOM     34  C   UNL     1       3.313   2.549  -0.016  0.00  0.00    +0.089 A 
ATOM     35  C   UNL     1       2.600   1.412  -0.015  0.00  0.00    +0.004 A 
ENDBRANCH  24  35
BRANCH  24  36
ATOM     36  O   UNL     1       4.456   0.015  -0.610  0.00  0.00    -0.389 OA
ATOM     37  H   UNL     1       5.019  -0.925  -0.706  0.00  0.00    +0.210 HD
ENDBRANCH  24  36
ENDBRANCH  23  24
ENDBRANCH   1  23
TORSDOF 5
