REMARK  Name = ZINC52015821
REMARK  5 active torsions:
REMARK  status: ('A' for Active; 'I' for Inactive)
REMARK    1  A    between atoms: C_8  and  N_23
REMARK    2  A    between atoms: C_9  and  S_10
REMARK    3  A    between atoms: S_10  and  N_13
REMARK    4  A    between atoms: N_13  and  C_14
REMARK    5  A    between atoms: C_20  and  O_22
REMARK                            x       y       z     vdW  Elec       q    Type
REMARK                         _______ _______ _______ _____ _____    ______ ____
ROOT
ATOM      1  S   UNL     1       5.157  -0.479  -0.054  0.00  0.00    +0.078 S 
ATOM      2  O   UNL     1       5.815  -1.605  -0.619  0.00  0.00    -0.151 OA
ATOM      3  O   UNL     1       5.280   0.828  -0.599  0.00  0.00    -0.151 OA
ENDROOT
BRANCH   1  12
ATOM      4  C   UNL     1      -0.016   1.357   0.009  0.00  0.00    +0.005 A 
ATOM      5  C   UNL     1       1.194   2.068   0.002  0.00  0.00    +0.018 A 
ATOM      6  C   UNL     1       2.372   1.408  -0.013  0.00  0.00    +0.094 A 
ATOM      7  N   UNL     1       2.404   0.045  -0.022  0.00  0.00    -0.282 N 
ATOM      8  C   UNL     1       1.239  -0.677  -0.014  0.00  0.00    +0.141 A 
ATOM      9  C   UNL     1       0.002  -0.004   0.002  0.00  0.00    +0.047 A 
ATOM     10  N   UNL     1       1.552  -1.967  -0.025  0.00  0.00    -0.211 NA
ATOM     11  C   UNL     1       2.883  -2.097  -0.040  0.00  0.00    +0.163 A 
ATOM     12  C   UNL     1       3.436  -0.857  -0.038  0.00  0.00    +0.220 A 
BRANCH  11  13
ATOM     13  N   UNL     1       3.587  -3.308  -0.054  0.00  0.00    -0.340 N 
ATOM     14  H   UNL     1       3.105  -4.149  -0.054  0.00  0.00    +0.144 HD
ATOM     15  H   UNL     1       4.557  -3.305  -0.064  0.00  0.00    +0.144 HD
ENDBRANCH  11  13
ENDBRANCH   1  12
BRANCH   1  16
ATOM     16  N   UNL     1       5.652  -0.383   1.523  0.00  0.00    -0.183 NA
ATOM     17  H   UNL     1       5.964   0.462   1.883  0.00  0.00    +0.148 HD
BRANCH  16  18
ATOM     18  C   UNL     1       5.620  -1.575   2.375  0.00  0.00    +0.105 C 
ATOM     19  C   UNL     1       4.312  -1.598   3.169  0.00  0.00    +0.023 C 
ATOM     20  C   UNL     1       4.222  -0.345   4.042  0.00  0.00    +0.002 C 
ATOM     21  C   UNL     1       5.406  -0.312   5.010  0.00  0.00    +0.003 C 
ATOM     22  C   UNL     1       6.714  -0.288   4.216  0.00  0.00    +0.033 C 
ATOM     23  C   UNL     1       6.804  -1.542   3.344  0.00  0.00    +0.133 C 
BRANCH  23  24
ATOM     24  O   UNL     1       8.025  -1.520   2.602  0.00  0.00    -0.390 OA
ATOM     25  H   UNL     1       8.819  -1.498   3.153  0.00  0.00    +0.210 HD
ENDBRANCH  23  24
ENDBRANCH  16  18
ENDBRANCH   1  16
TORSDOF 5
