REMARK  Name = ZINC14474237
REMARK  3 active torsions:
REMARK  status: ('A' for Active; 'I' for Inactive)
REMARK    1  A    between atoms: C_4  and  O_30
REMARK    2  A    between atoms: C_5  and  C_7
REMARK    3  A    between atoms: C_20  and  C_23
REMARK                            x       y       z     vdW  Elec       q    Type
REMARK                         _______ _______ _______ _____ _____    ______ ____
ROOT
ATOM      1  C   UNL     1      -3.733  -0.706  -0.154  0.00  0.00    +0.108 C 
ATOM      2  C   UNL     1      -5.026  -0.186   0.477  0.00  0.00    +0.029 C 
ATOM      3  C   UNL     1      -6.219  -0.701  -0.395  0.00  0.00    +0.033 C 
ATOM      4  C   UNL     1      -6.299   0.299  -1.532  0.00  0.00    -0.030 C 
ATOM      5  C   UNL     1      -5.709   1.420  -1.200  0.00  0.00    -0.023 C 
ATOM      6  C   UNL     1      -5.144   1.328   0.199  0.00  0.00    +0.049 C 
ATOM      7  C   UNL     1      -3.808   2.007   0.274  0.00  0.00    -0.019 A 
ATOM      8  C   UNL     1      -3.779   3.393   0.216  0.00  0.00    +0.006 A 
ATOM      9  C   UNL     1      -2.582   4.083   0.275  0.00  0.00    +0.001 A 
ATOM     10  C   UNL     1      -1.392   3.399   0.390  0.00  0.00    +0.015 A 
ATOM     11  C   UNL     1      -1.400   2.006   0.449  0.00  0.00    +0.058 A 
ATOM     12  C   UNL     1      -2.620   1.305   0.388  0.00  0.00    +0.044 A 
ATOM     13  N   UNL     1      -2.585  -0.077   0.500  0.00  0.00    -0.336 N 
ATOM     14  H   UNL     1      -2.508  -0.374   1.461  0.00  0.00    +0.147 HD
ENDROOT
BRANCH  11  15
ATOM     15  C   UNL     1      -0.131   1.265   0.571  0.00  0.00    +0.248 C 
ATOM     16  O   UNL     1       0.099   0.326  -0.167  0.00  0.00    -0.270 OA
ATOM     17  N   UNL     1       0.778   1.633   1.496  0.00  0.00    -0.297 N 
ATOM     18  C   UNL     1       0.679   2.807   2.375  0.00  0.00    +0.108 C 
ATOM     19  C   UNL     1       1.954   2.838   3.244  0.00  0.00    +0.020 C 
ATOM     20  C   UNL     1       2.962   2.009   2.407  0.00  0.00    +0.020 C 
ATOM     21  C   UNL     1       2.040   0.929   1.789  0.00  0.00    +0.108 C 
ENDBRANCH  11  15
BRANCH   1  26
ATOM     22  C   UNL     1      -4.359  -4.198   1.139  0.00  0.00    +0.001 A 
ATOM     23  C   UNL     1      -3.510  -4.946   0.344  0.00  0.00    +0.004 A 
ATOM     24  C   UNL     1      -2.732  -4.325  -0.614  0.00  0.00    +0.046 A 
ATOM     25  C   UNL     1      -2.806  -2.950  -0.781  0.00  0.00    +0.122 A 
ATOM     26  C   UNL     1      -3.654  -2.201   0.021  0.00  0.00    +0.014 A 
ATOM     27  C   UNL     1      -4.430  -2.826   0.978  0.00  0.00    +0.009 A 
BRANCH  25  28
ATOM     28  O   UNL     1      -2.045  -2.337  -1.726  0.00  0.00    -0.506 OA
ATOM     29  H   UNL     1      -1.175  -2.056  -1.409  0.00  0.00    +0.292 HD
ENDBRANCH  25  28
ENDBRANCH   1  26
TORSDOF 3
