REMARK  Name = ZINC05289010
REMARK  5 active torsions:
REMARK  status: ('A' for Active; 'I' for Inactive)
REMARK    1  A    between atoms: C_1  and  C_2
REMARK    2  A    between atoms: C_2  and  C_14
REMARK    3  A    between atoms: N_3  and  N_4
REMARK    4  A    between atoms: C_5  and  C_7
REMARK    5  A    between atoms: C_17  and  O_20
REMARK                            x       y       z     vdW  Elec       q    Type
REMARK                         _______ _______ _______ _____ _____    ______ ____
ROOT
ATOM      1  C   UNL     1       0.002  -0.004   0.002  0.00  0.00    +0.068 C 
ATOM      2  C   UNL     1      -0.018   1.503   0.010  0.00  0.00    +0.063 C 
ATOM      3  N   UNL     1      -1.151   2.136   0.019  0.00  0.00    -0.184 NA
ENDROOT
BRANCH   2   4
ATOM      4  C   UNL     1       1.248   2.257   0.002  0.00  0.00    -0.002 A 
ATOM      5  C   UNL     1       2.469   1.577  -0.007  0.00  0.00    +0.013 A 
ATOM      6  C   UNL     1       3.650   2.287  -0.021  0.00  0.00    +0.046 A 
ATOM      7  C   UNL     1       3.629   3.675  -0.012  0.00  0.00    +0.117 A 
ATOM      8  C   UNL     1       2.418   4.355   0.003  0.00  0.00    +0.046 A 
ATOM      9  C   UNL     1       1.232   3.655   0.010  0.00  0.00    +0.013 A 
BRANCH   7  10
ATOM     10  O   UNL     1       4.796   4.370  -0.020  0.00  0.00    -0.507 OA
ATOM     11  H   UNL     1       5.142   4.567   0.862  0.00  0.00    +0.292 HD
ENDBRANCH   7  10
ENDBRANCH   2   4
BRANCH   3  12
ATOM     12  N   UNL     1      -2.355   1.420   0.021  0.00  0.00    -0.203 N 
ATOM     13  C   UNL     1      -3.531   2.078   0.030  0.00  0.00    +0.263 C 
ATOM     14  O   UNL     1      -3.548   3.293   0.037  0.00  0.00    -0.268 OA
ATOM     15  H   UNL     1      -2.342   0.450   0.016  0.00  0.00    +0.178 HD
BRANCH  13  16
ATOM     16  C   UNL     1      -4.801   1.321   0.032  0.00  0.00    +0.038 A 
ATOM     17  C   UNL     1      -4.785  -0.075   0.018  0.00  0.00    +0.014 A 
ATOM     18  C   UNL     1      -5.973  -0.775   0.025  0.00  0.00    +0.016 A 
ATOM     19  C   UNL     1      -7.180  -0.096   0.035  0.00  0.00    +0.018 A 
ATOM     20  C   UNL     1      -7.202   1.289   0.043  0.00  0.00    +0.016 A 
ATOM     21  C   UNL     1      -6.021   2.000   0.042  0.00  0.00    +0.014 A 
ATOM     22 BR   UNL     1      -8.805  -1.063   0.037  0.00  0.00    -0.050 Br
ENDBRANCH  13  16
ENDBRANCH   3  12
TORSDOF 4
