REMARK  Name = ZINC52860742
REMARK  3 active torsions:
REMARK  status: ('A' for Active; 'I' for Inactive)
REMARK    1  A    between atoms: N_9  and  C_10
REMARK    2  A    between atoms: C_15  and  C_16
REMARK    3  A    between atoms: N_17  and  O_18
REMARK                            x       y       z     vdW  Elec       q    Type
REMARK                         _______ _______ _______ _____ _____    ______ ____
ROOT
ATOM      1  C   UNL     1       4.836  -0.688  -0.004  0.00  0.00    +0.059 A 
ATOM      2  C   UNL     1       5.627  -1.133  -1.054  0.00  0.00    +0.028 A 
ATOM      3  C   UNL     1       6.965  -0.798  -1.102  0.00  0.00    +0.022 A 
ATOM      4  C   UNL     1       7.529  -0.018  -0.105  0.00  0.00    +0.042 A 
ATOM      5  C   UNL     1       6.755   0.432   0.947  0.00  0.00    +0.033 A 
ATOM      6  C   UNL     1       5.400   0.106   1.003  0.00  0.00    +0.043 A 
ATOM      7 CL   UNL     1       9.213   0.395  -0.177  0.00  0.00    -0.084 Cl
ENDROOT
BRANCH   1  16
ATOM      8  C   UNL     1      -0.093   1.013  -0.233  0.00  0.00    +0.002 A 
ATOM      9  C   UNL     1       1.050   1.792  -0.344  0.00  0.00    +0.002 A 
ATOM     10  C   UNL     1       2.300   1.214  -0.265  0.00  0.00    +0.028 A 
ATOM     11  C   UNL     1       2.413  -0.156  -0.074  0.00  0.00    +0.073 A 
ATOM     12  C   UNL     1       1.255  -0.944   0.038  0.00  0.00    +0.089 A 
ATOM     13  C   UNL     1      -0.001  -0.337  -0.044  0.00  0.00    +0.030 A 
ATOM     14  N   UNL     1       1.664  -2.227   0.217  0.00  0.00    -0.235 NA
ATOM     15  C   UNL     1       2.965  -2.276   0.222  0.00  0.00    +0.205 A 
ATOM     16  N   UNL     1       3.480  -1.026   0.046  0.00  0.00    -0.298 N 
ENDBRANCH   1  16
BRANCH   6  17
ATOM     17  C   UNL     1       4.565   0.590   2.123  0.00  0.00    +0.164 C 
ATOM     18  N   UNL     1       4.493   1.865   2.377  0.00  0.00    -0.071 NA
ATOM     19  N   UNL     1       3.859  -0.312   2.901  0.00  0.00    -0.340 N 
ATOM     20  H   UNL     1       3.913  -1.262   2.712  0.00  0.00    +0.144 HD
ATOM     21  H   UNL     1       3.312   0.006   3.636  0.00  0.00    +0.144 HD
BRANCH  18  22
ATOM     22  O   UNL     1       5.124   2.795   1.516  0.00  0.00    -0.408 OA
ATOM     23  H   UNL     1       4.953   3.720   1.742  0.00  0.00    +0.328 HD
ENDBRANCH  18  22
ENDBRANCH   6  17
TORSDOF 3
