REMARK  Name = ZINC13254733
REMARK  7 active torsions:
REMARK  status: ('A' for Active; 'I' for Inactive)
REMARK    1  A    between atoms: C_1  and  C_2
REMARK    2  A    between atoms: C_5  and  C_9
REMARK    3  A    between atoms: C_6  and  C_8
REMARK    4  A    between atoms: N_11  and  N_12
REMARK    5  A    between atoms: C_13  and  C_15
REMARK    6  A    between atoms: C_15  and  C_16
REMARK    7  A    between atoms: C_16  and  C_21
REMARK                            x       y       z     vdW  Elec       q    Type
REMARK                         _______ _______ _______ _____ _____    ______ ____
ROOT
ATOM      1  N   UNL     1       1.086   1.962  -1.021  0.00  0.00    -0.234 N 
ATOM      2  C   UNL     1       2.281   1.379  -1.238  0.00  0.00    +0.230 C 
ATOM      3  O   UNL     1       2.365   0.170  -1.290  0.00  0.00    -0.274 OA
ATOM      4  H   UNL     1       1.018   2.929  -0.980  0.00  0.00    +0.173 HD
ENDROOT
BRANCH   1   7
ATOM      5  C   UNL     1      -1.256   1.756  -0.643  0.00  0.00    +0.260 C 
ATOM      6  O   UNL     1      -1.340   2.968  -0.592  0.00  0.00    -0.269 OA
ATOM      7  N   UNL     1      -0.060   1.173  -0.855  0.00  0.00    -0.230 N 
ATOM      8  H   UNL     1       0.008   0.206  -0.896  0.00  0.00    +0.173 HD
BRANCH   5  13
ATOM      9  C   UNL     1      -5.963  -1.487   0.018  0.00  0.00    +0.044 C 
ATOM     10  C   UNL     1      -4.731  -0.637  -0.156  0.00  0.00    -0.050 A 
ATOM     11  C   UNL     1      -3.530  -1.229  -0.506  0.00  0.00    +0.004 A 
ATOM     12  C   UNL     1      -2.398  -0.458  -0.666  0.00  0.00    +0.013 A 
ATOM     13  C   UNL     1      -2.465   0.923  -0.473  0.00  0.00    +0.041 A 
ATOM     14  C   UNL     1      -3.678   1.513  -0.115  0.00  0.00    -0.038 A 
ATOM     15  C   UNL     1      -4.804   0.731   0.036  0.00  0.00    +0.007 A 
ATOM     16  C   UNL     1      -3.759   3.003   0.100  0.00  0.00    +0.044 C 
ENDBRANCH   5  13
ENDBRANCH   1   7
BRANCH   2  17
ATOM     17  C   UNL     1       3.513   2.228  -1.417  0.00  0.00    +0.115 C 
BRANCH  17  18
ATOM     18  C   UNL     1       4.745   1.326  -1.512  0.00  0.00    +0.080 C 
ATOM     19  C   UNL     1       6.016   2.184  -1.685  0.00  0.00    +0.019 C 
ATOM     20  C   UNL     1       6.898   1.362  -2.659  0.00  0.00    +0.001 C 
ATOM     21  C   UNL     1       5.860   0.772  -3.646  0.00  0.00    +0.001 C 
ATOM     22  C   UNL     1       4.646   0.429  -2.758  0.00  0.00    +0.019 C 
BRANCH  18  23
ATOM     23  C   UNL     1       4.860   0.478  -0.272  0.00  0.00    +0.362 C 
ATOM     24  O   UNL     1       4.942  -0.724  -0.368  0.00  0.00    -0.246 OA
ATOM     25  O   UNL     1       4.870   1.057   0.939  0.00  0.00    -0.246 OA
ENDBRANCH  18  23
ENDBRANCH  17  18
ENDBRANCH   2  17
TORSDOF 5
