REMARK  Name = ZINC21532150
REMARK  7 active torsions:
REMARK  status: ('A' for Active; 'I' for Inactive)
REMARK    1  A    between atoms: C_1  and  C_2
REMARK    2  A    between atoms: C_7  and  N_8
REMARK    3  A    between atoms: C_9  and  C_11
REMARK    4  A    between atoms: C_11  and  N_12
REMARK    5  A    between atoms: N_12  and  C_13
REMARK    6  A    between atoms: N_12  and  S_14
REMARK    7  A    between atoms: S_14  and  C_17
REMARK                            x       y       z     vdW  Elec       q    Type
REMARK                         _______ _______ _______ _____ _____    ______ ____
ROOT
ATOM      1  S   UNL     1      -3.902  -0.966  -0.039  0.00  0.00    +0.061 S 
ATOM      2  O   UNL     1      -4.893  -0.109  -0.591  0.00  0.00    -0.153 OA
ATOM      3  O   UNL     1      -3.591  -2.232  -0.603  0.00  0.00    -0.153 OA
ENDROOT
BRANCH   1   4
ATOM      4  C   UNL     1      -2.400  -0.045  -0.009  0.00  0.00    +0.106 A 
ATOM      5  C   UNL     1      -2.430   1.338   0.009  0.00  0.00    +0.030 A 
ATOM      6  C   UNL     1      -1.250   2.040   0.029  0.00  0.00    +0.025 A 
ATOM      7  C   UNL     1      -0.006   1.386   0.030  0.00  0.00    +0.037 A 
ATOM      8  C   UNL     1       0.017   0.008   0.020  0.00  0.00    -0.024 A 
ATOM      9  C   UNL     1      -1.188  -0.696  -0.003  0.00  0.00    +0.034 A 
ATOM     10  C   UNL     1       1.252  -0.834   0.037  0.00  0.00    +0.037 C 
ATOM     11  C   UNL     1       2.393  -0.300   0.846  0.00  0.00    +0.014 C 
ATOM     12  C   UNL     1       3.147   0.814   0.160  0.00  0.00    +0.096 C 
ATOM     13  C   UNL     1       2.377   2.085   0.153  0.00  0.00    +0.217 C 
ATOM     14  O   UNL     1       3.019   3.106   0.273  0.00  0.00    -0.275 OA
ATOM     15  N   UNL     1       1.087   2.222   0.033  0.00  0.00    -0.285 N 
ATOM     16  H   UNL     1       0.950   3.306  -0.092  0.00  0.00    +0.155 HD
ENDBRANCH   1   4
BRANCH   1  17
ATOM     17  N   UNL     1      -4.339  -1.242   1.534  0.00  0.00    -0.171 NA
ATOM     18  C   UNL     1      -5.195  -0.283   2.236  0.00  0.00    +0.132 C 
BRANCH  17  19
ATOM     19  C   UNL     1      -3.869  -2.446   2.224  0.00  0.00    +0.205 C 
BRANCH  19  21
ATOM     20  N   UNL     1      -2.007  -3.085   3.722  0.00  0.00    -0.284 N 
ATOM     21  C   UNL     1      -2.620  -2.123   3.004  0.00  0.00    +0.233 C 
ATOM     22  O   UNL     1      -2.168  -0.998   2.986  0.00  0.00    -0.274 OA
ATOM     23  H   UNL     1      -2.465  -4.081   3.813  0.00  0.00    +0.155 HD
BRANCH  20  30
ATOM     24  C   UNL     1      -1.294  -4.647   5.991  0.00  0.00    +0.045 C 
ATOM     25  C   UNL     1      -0.400  -3.555   5.463  0.00  0.00    -0.029 A 
ATOM     26  C   UNL     1       0.805  -3.287   6.083  0.00  0.00    +0.005 A 
ATOM     27  C   UNL     1       1.626  -2.285   5.599  0.00  0.00    +0.000 A 
ATOM     28  C   UNL     1       1.244  -1.548   4.493  0.00  0.00    +0.002 A 
ATOM     29  C   UNL     1       0.043  -1.814   3.865  0.00  0.00    +0.023 A 
ATOM     30  C   UNL     1      -0.787  -2.816   4.353  0.00  0.00    +0.036 A 
ENDBRANCH  20  30
ENDBRANCH  19  21
ENDBRANCH  17  19
ENDBRANCH   1  17
TORSDOF 5
