REMARK  Name = ZINC41601568
REMARK  10 active torsions:
REMARK  status: ('A' for Active; 'I' for Inactive)
REMARK    1  A    between atoms: C_1  and  C_2
REMARK    2  A    between atoms: C_2  and  C_3
REMARK    3  A    between atoms: C_2  and  S_4
REMARK    4  A    between atoms: S_4  and  C_5
REMARK    5  A    between atoms: C_5  and  C_6
REMARK    6  A    between atoms: N_14  and  C_15
REMARK    7  A    between atoms: C_17  and  C_23
REMARK    8  A    between atoms: C_17  and  C_24
REMARK    9  A    between atoms: C_19  and  C_21
REMARK   10  A    between atoms: C_19  and  C_22
REMARK                            x       y       z     vdW  Elec       q    Type
REMARK                         _______ _______ _______ _____ _____    ______ ____
ROOT
ATOM      1  C   UNL     1      -2.491  -3.438  -0.117  0.00  0.00    +0.060 A 
ATOM      2  C   UNL     1      -3.036  -3.885  -1.286  0.00  0.00    +0.094 A 
ATOM      3  C   UNL     1      -4.344  -4.401  -1.272  0.00  0.00    +0.253 A 
ATOM      4  O   UNL     1      -4.863  -4.810  -2.298  0.00  0.00    -0.268 OA
ATOM      5  N   UNL     1      -5.016  -4.435  -0.101  0.00  0.00    -0.295 N 
ATOM      6  H   UNL     1      -5.919  -4.787  -0.068  0.00  0.00    +0.172 HD
ATOM      7  C   UNL     1      -4.421  -3.975   1.033  0.00  0.00    +0.196 A 
ATOM      8  N   UNL     1      -3.192  -3.498   1.013  0.00  0.00    -0.220 NA
ATOM      9  N   UNL     1      -5.108  -4.013   2.216  0.00  0.00    -0.312 N 
ATOM     10  H   UNL     1      -6.011  -4.366   2.241  0.00  0.00    +0.149 HD
ENDROOT
BRANCH   9  11
ATOM     11  C   UNL     1      -4.478  -3.520   3.447  0.00  0.00    +0.070 C 
ATOM     12  C   UNL     1      -3.672  -4.652   4.088  0.00  0.00    +0.009 C 
ATOM     13  C   UNL     1      -3.020  -4.157   5.378  0.00  0.00    -0.072 C 
ATOM     14  N   UNL     1      -3.989  -3.575   6.294  0.00  0.00    +0.386 N 
ATOM     15  C   UNL     1      -4.950  -2.630   5.750  0.00  0.00    -0.072 C 
ATOM     16  C   UNL     1      -5.565  -3.089   4.432  0.00  0.00    +0.009 C 
ATOM     17  C   UNL     1      -6.104  -2.499   6.773  0.00  0.00    -0.010 C 
ATOM     18  C   UNL     1      -4.341  -1.235   5.583  0.00  0.00    -0.010 C 
ATOM     19  C   UNL     1      -2.396  -5.388   6.077  0.00  0.00    -0.010 C 
ATOM     20  C   UNL     1      -1.879  -3.192   5.057  0.00  0.00    -0.010 C 
ATOM     21  H   UNL     1      -4.505  -4.337   6.742  0.00  0.00    -0.084 HD
ATOM     22  H   UNL     1      -3.478  -3.115   7.052  0.00  0.00    -0.084 HD
ENDBRANCH   9  11
BRANCH   1  23
ATOM     23  C   UNL     1      -1.091  -2.881  -0.105  0.00  0.00    +0.125 C 
BRANCH  23  24
ATOM     24  S   UNL     1      -1.160  -1.075   0.044  0.00  0.00    -0.152 S 
BRANCH  24  26
ATOM     25  C   UNL     1       0.669   0.960   0.041  0.00  0.00    +0.018 C 
ATOM     26  C   UNL     1       0.582  -0.568   0.044  0.00  0.00    +0.041 C 
ATOM     27  C   UNL     1       1.272  -1.115   1.296  0.00  0.00    +0.018 C 
ENDBRANCH  24  26
ENDBRANCH  23  24
ENDBRANCH   1  23
TORSDOF 4
