REMARK  Name = ZINC55623720
REMARK  7 active torsions:
REMARK  status: ('A' for Active; 'I' for Inactive)
REMARK    1  A    between atoms: C_1  and  C_2
REMARK    2  A    between atoms: C_2  and  C_3
REMARK    3  A    between atoms: C_2  and  N_21
REMARK    4  A    between atoms: N_5  and  C_6
REMARK    5  A    between atoms: C_6  and  C_7
REMARK    6  A    between atoms: C_10  and  C_13
REMARK    7  A    between atoms: C_13  and  N_14
REMARK                            x       y       z     vdW  Elec       q    Type
REMARK                         _______ _______ _______ _____ _____    ______ ____
ROOT
ATOM      1  C   UNL     1       2.677  -0.618  -2.667  0.00  0.00    +0.139 C 
ENDROOT
BRANCH   1   2
ATOM      2  C   UNL     1       4.091  -0.097  -2.678  0.00  0.00    -0.030 A 
ATOM      3  C   UNL     1       4.374   1.121  -3.267  0.00  0.00    +0.005 A 
ATOM      4  C   UNL     1       5.670   1.600  -3.277  0.00  0.00    +0.006 A 
ATOM      5  C   UNL     1       6.684   0.861  -2.697  0.00  0.00    -0.028 A 
ATOM      6  C   UNL     1       6.401  -0.357  -2.106  0.00  0.00    +0.006 A 
ATOM      7  C   UNL     1       5.104  -0.833  -2.093  0.00  0.00    +0.005 A 
BRANCH   5   8
ATOM      8  C   UNL     1       8.098   1.382  -2.708  0.00  0.00    +0.160 C 
BRANCH   8   9
ATOM      9  N   UNL     1       8.331   2.188  -1.508  0.00  0.00    -0.311 N 
ATOM     10  C   UNL     1       8.073   3.520  -1.533  0.00  0.00    +0.089 A 
ATOM     11  C   UNL     1       8.281   4.286  -0.437  0.00  0.00    +0.018 A 
ATOM     12  C   UNL     1       8.768   3.703   0.742  0.00  0.00    +0.007 A 
ATOM     13  C   UNL     1       9.027   2.364   0.766  0.00  0.00    +0.070 A 
ATOM     14  C   UNL     1       8.795   1.598  -0.389  0.00  0.00    +0.252 A 
ATOM     15  O   UNL     1       9.018   0.398  -0.380  0.00  0.00    -0.268 OA
ENDBRANCH   8   9
ENDBRANCH   5   8
ENDBRANCH   1   2
BRANCH   1  18
ATOM     16  C   UNL     1       0.707  -0.490  -1.238  0.00  0.00    +0.233 C 
ATOM     17  O   UNL     1       0.120  -1.191  -2.034  0.00  0.00    -0.274 OA
ATOM     18  N   UNL     1       1.991  -0.146  -1.462  0.00  0.00    -0.310 N 
ATOM     19  H   UNL     1       2.461   0.415  -0.825  0.00  0.00    +0.149 HD
BRANCH  16  21
ATOM     20  C   UNL     1      -0.019   1.526   0.010  0.00  0.00    +0.038 C 
ATOM     21  C   UNL     1       0.002  -0.004   0.002  0.00  0.00    +0.157 C 
BRANCH  21  22
ATOM     22  N   UNL     1      -1.372  -0.511   0.012  0.00  0.00    -0.289 N 
ATOM     23  C   UNL     1      -2.029  -0.655   1.181  0.00  0.00    +0.298 C 
ATOM     24  O   UNL     1      -1.480  -0.364   2.226  0.00  0.00    -0.253 OA
ATOM     25  N   UNL     1      -3.293  -1.122   1.190  0.00  0.00    -0.313 N 
ATOM     26  H   UNL     1      -1.810  -0.743  -0.822  0.00  0.00    +0.151 HD
ATOM     27  H   UNL     1      -3.731  -1.354   0.356  0.00  0.00    +0.146 HD
ATOM     28  H   UNL     1      -3.765  -1.225   2.031  0.00  0.00    +0.146 HD
ENDBRANCH  21  22
ENDBRANCH  16  21
ENDBRANCH   1  18
TORSDOF 6
