REMARK  Name = ZINC05991468
REMARK  8 active torsions:
REMARK  status: ('A' for Active; 'I' for Inactive)
REMARK    1  A    between atoms: C_1  and  C_2
REMARK    2  A    between atoms: C_2  and  C_4
REMARK    3  A    between atoms: C_2  and  O_11
REMARK    4  A    between atoms: N_9  and  C_10
REMARK    5  A    between atoms: O_11  and  C_12
REMARK    6  A    between atoms: C_12  and  C_14
REMARK    7  A    between atoms: C_14  and  N_15
REMARK    8  A    between atoms: C_16  and  C_18
REMARK                            x       y       z     vdW  Elec       q    Type
REMARK                         _______ _______ _______ _____ _____    ______ ____
ROOT
ATOM      1  C   UNL     1      -4.875   1.156   0.031  0.00  0.00    +0.325 C 
ATOM      2  O   UNL     1      -4.641  -0.029   0.024  0.00  0.00    -0.249 OA
ENDROOT
BRANCH   1   3
ATOM      3  O   UNL     1      -6.145   1.590   0.040  0.00  0.00    -0.451 OA
BRANCH   3   5
ATOM      4  C   UNL     1      -7.546   0.215   1.482  0.00  0.00    +0.062 C 
ATOM      5  C   UNL     1      -7.187   0.578   0.039  0.00  0.00    +0.259 C 
BRANCH   5   6
ATOM      6  C   UNL     1      -8.408   1.115  -0.662  0.00  0.00    +0.261 C 
ATOM      7  O   UNL     1      -8.401   2.238  -1.117  0.00  0.00    -0.271 OA
ATOM      8  N   UNL     1      -9.508   0.345  -0.785  0.00  0.00    -0.237 N 
ATOM      9  C   UNL     1     -10.600   0.825  -1.412  0.00  0.00    +0.306 C 
ATOM     10  O   UNL     1     -10.593   1.951  -1.868  0.00  0.00    -0.252 OA
ATOM     11  N   UNL     1     -11.699   0.055  -1.534  0.00  0.00    -0.302 N 
ATOM     12  C   UNL     1     -12.886   0.577  -2.216  0.00  0.00    +0.129 C 
ATOM     13  H   UNL     1      -9.513  -0.554  -0.421  0.00  0.00    +0.159 HD
ATOM     14  H   UNL     1     -11.705  -0.844  -1.171  0.00  0.00    +0.150 HD
ENDBRANCH   5   6
ENDBRANCH   3   5
ENDBRANCH   1   3
BRANCH   1  15
ATOM     15  C   UNL     1      -3.740   2.148   0.031  0.00  0.00    +0.225 C 
BRANCH  15  16
ATOM     16  N   UNL     1      -2.464   1.430   0.021  0.00  0.00    -0.301 N 
ATOM     17  C   UNL     1      -1.304   2.117   0.020  0.00  0.00    +0.246 C 
ATOM     18  O   UNL     1      -1.318   3.332   0.026  0.00  0.00    -0.270 OA
ATOM     19  H   UNL     1      -2.453   0.460   0.016  0.00  0.00    +0.150 HD
BRANCH  17  20
ATOM     20  C   UNL     1      -0.017   1.392   0.010  0.00  0.00    +0.055 A 
ATOM     21  C   UNL     1       0.002  -0.004   0.002  0.00  0.00    +0.016 A 
ATOM     22  C   UNL     1       1.206  -0.674  -0.013  0.00  0.00    +0.021 A 
ATOM     23  C   UNL     1       2.397   0.034  -0.021  0.00  0.00    +0.042 A 
ATOM     24  C   UNL     1       2.387   1.418  -0.013  0.00  0.00    +0.040 A 
ATOM     25  C   UNL     1       1.187   2.102   0.002  0.00  0.00    +0.054 A 
ATOM     26 CL   UNL     1       1.175   3.837   0.011  0.00  0.00    -0.083 Cl
ATOM     27 CL   UNL     1       3.910  -0.819  -0.039  0.00  0.00    -0.083 Cl
ENDBRANCH  17  20
ENDBRANCH  15  16
ENDBRANCH   1  15
TORSDOF 6
