REMARK  Name = ZINC66739562
REMARK  4 active torsions:
REMARK  status: ('A' for Active; 'I' for Inactive)
REMARK    1  A    between atoms: C_1  and  O_2
REMARK    2  A    between atoms: O_2  and  C_3
REMARK    3  A    between atoms: C_8  and  O_9
REMARK    4  A    between atoms: O_9  and  C_10
REMARK                            x       y       z     vdW  Elec       q    Type
REMARK                         _______ _______ _______ _____ _____    ______ ____
ROOT
ATOM      1  C   UNL     1      -1.202  -0.638   0.010  0.00  0.00    +0.162 A 
ATOM      2  C   UNL     1      -2.368   0.102   0.019  0.00  0.00    +0.064 A 
ATOM      3  C   UNL     1      -3.599  -0.554   0.028  0.00  0.00    +0.061 A 
ATOM      4  C   UNL     1      -3.645  -1.960   0.024  0.00  0.00    +0.045 A 
ATOM      5  C   UNL     1      -2.473  -2.692   0.016  0.00  0.00    +0.073 A 
ATOM      6  C   UNL     1      -1.252  -2.033   0.003  0.00  0.00    +0.163 A 
ATOM      7  N   UNL     1      -4.895  -2.576   0.024  0.00  0.00    -0.312 N 
ATOM      8  C   UNL     1      -6.019  -1.871  -0.598  0.00  0.00    +0.206 C 
ATOM      9  C   UNL     1      -5.989  -2.036  -2.086  0.00  0.00    +0.027 A 
ATOM     10  C   UNL     1      -5.059  -1.650  -3.027  0.00  0.00    +0.048 A 
ATOM     11  C   UNL     1      -5.338  -1.962  -4.355  0.00  0.00    +0.124 A 
ATOM     12  C   UNL     1      -6.496  -2.630  -4.708  0.00  0.00    +0.040 A 
ATOM     13  C   UNL     1      -7.434  -3.020  -3.765  0.00  0.00    +0.026 A 
ATOM     14  C   UNL     1      -7.165  -2.711  -2.430  0.00  0.00    +0.041 A 
ATOM     15  N   UNL     1      -7.917  -2.976  -1.298  0.00  0.00    -0.282 N 
ATOM     16  C   UNL     1      -7.322  -2.519  -0.177  0.00  0.00    +0.264 C 
ATOM     17  O   UNL     1      -7.750  -2.608   0.954  0.00  0.00    -0.271 OA
ATOM     18  F   UNL     1      -4.460  -1.606  -5.318  0.00  0.00    -0.205 F 
ATOM     19  N   UNL     1      -6.020  -0.460  -0.227  0.00  0.00    -0.279 N 
ATOM     20  C   UNL     1      -4.869   0.192   0.043  0.00  0.00    +0.248 C 
ATOM     21  O   UNL     1      -4.880   1.381   0.295  0.00  0.00    -0.270 OA
ATOM     22  H   UNL     1      -5.018  -3.451   0.424  0.00  0.00    +0.149 HD
ATOM     23  H   UNL     1      -8.771  -3.437  -1.310  0.00  0.00    +0.155 HD
ATOM     24  H   UNL     1      -6.862   0.019  -0.172  0.00  0.00    +0.152 HD
ENDROOT
BRANCH   1  26
ATOM     25  C   UNL     1      -0.017   1.425   0.010  0.00  0.00    +0.277 C 
ATOM     26  O   UNL     1       0.002  -0.004   0.002  0.00  0.00    -0.491 OA
ENDBRANCH   1  26
BRANCH   6  27
ATOM     27  O   UNL     1      -0.098  -2.750  -0.012  0.00  0.00    -0.491 OA
ATOM     28  C   UNL     1      -0.219  -4.173  -0.018  0.00  0.00    +0.277 C 
ENDBRANCH   6  27
TORSDOF 2
