REMARK  Name = ZINC66782966
REMARK  9 active torsions:
REMARK  status: ('A' for Active; 'I' for Inactive)
REMARK    1  A    between atoms: C_1  and  N_2
REMARK    2  A    between atoms: N_2  and  S_3
REMARK    3  A    between atoms: S_3  and  C_6
REMARK    4  A    between atoms: C_8  and  C_12
REMARK    5  A    between atoms: N_9  and  C_11
REMARK    6  A    between atoms: N_14  and  N_15
REMARK    7  A    between atoms: C_16  and  C_18
REMARK    8  A    between atoms: C_18  and  C_19
REMARK    9  A    between atoms: C_19  and  C_20
REMARK                            x       y       z     vdW  Elec       q    Type
REMARK                         _______ _______ _______ _____ _____    ______ ____
ROOT
ATOM      1  C   UNL     1       5.255   1.621  -2.232  0.00  0.00    +0.277 C 
ATOM      2  O   UNL     1       4.838   2.440  -3.030  0.00  0.00    -0.267 OA
ATOM      3  N   UNL     1       6.557   1.618  -1.887  0.00  0.00    -0.229 N 
ATOM      4  H   UNL     1       6.904   0.920  -1.309  0.00  0.00    +0.173 HD
ENDROOT
BRANCH   1   7
ATOM      5  C   UNL     1       3.508  -1.091  -0.498  0.00  0.00    +0.123 A 
ATOM      6  C   UNL     1       4.687  -0.412  -0.821  0.00  0.00    +0.061 A 
ATOM      7  C   UNL     1       4.338   0.636  -1.646  0.00  0.00    +0.108 A 
ATOM      8  N   UNL     1       2.974   0.592  -1.819  0.00  0.00    -0.344 N 
ATOM      9  C   UNL     1       2.483  -0.463  -1.123  0.00  0.00    +0.114 A 
ATOM     10  C   UNL     1       2.183   1.525  -2.626  0.00  0.00    +0.149 C 
BRANCH   5  11
ATOM     11  S   UNL     1       3.379  -2.514   0.532  0.00  0.00    +0.060 S 
ATOM     12  O   UNL     1       2.048  -2.537   1.028  0.00  0.00    -0.153 OA
ATOM     13  O   UNL     1       4.512  -2.499   1.389  0.00  0.00    -0.153 OA
BRANCH  11  15
ATOM     14  C   UNL     1       4.810  -4.091  -1.137  0.00  0.00    +0.127 C 
ATOM     15  N   UNL     1       3.543  -3.842  -0.445  0.00  0.00    -0.193 NA
ATOM     16  H   UNL     1       2.800  -4.454  -0.559  0.00  0.00    +0.148 HD
ENDBRANCH  11  15
ENDBRANCH   5  11
ENDBRANCH   1   7
BRANCH   3  17
ATOM     17  N   UNL     1       7.410   2.622  -2.362  0.00  0.00    -0.234 N 
ATOM     18  C   UNL     1       8.713   2.619  -2.017  0.00  0.00    +0.229 C 
ATOM     19  O   UNL     1       9.147   1.747  -1.294  0.00  0.00    -0.274 OA
ATOM     20  H   UNL     1       7.063   3.320  -2.940  0.00  0.00    +0.173 HD
BRANCH  18  21
ATOM     21  C   UNL     1       9.631   3.700  -2.529  0.00  0.00    +0.097 C 
BRANCH  21  22
ATOM     22  C   UNL     1      11.044   3.465  -1.992  0.00  0.00    +0.013 C 
BRANCH  22  23
ATOM     23  C   UNL     1      11.976   4.561  -2.512  0.00  0.00    -0.011 C 
ATOM     24  C   UNL     1      12.097   4.450  -4.033  0.00  0.00    +0.003 C 
ATOM     25  C   UNL     1      13.028   5.547  -4.552  0.00  0.00    +0.000 C 
ATOM     26  C   UNL     1      14.411   5.384  -3.918  0.00  0.00    +0.000 C 
ATOM     27  C   UNL     1      14.290   5.496  -2.397  0.00  0.00    +0.000 C 
ATOM     28  C   UNL     1      13.358   4.399  -1.877  0.00  0.00    +0.003 C 
ENDBRANCH  22  23
ENDBRANCH  21  22
ENDBRANCH  18  21
ENDBRANCH   3  17
TORSDOF 7
