REMARK  Name = ZINC41284568
REMARK  7 active torsions:
REMARK  status: ('A' for Active; 'I' for Inactive)
REMARK    1  A    between atoms: C_1  and  C_2
REMARK    2  A    between atoms: C_2  and  O_3
REMARK    3  A    between atoms: O_3  and  C_4
REMARK    4  A    between atoms: C_7  and  C_10
REMARK    5  A    between atoms: C_12  and  O_13
REMARK    6  A    between atoms: C_22  and  C_24
REMARK    7  A    between atoms: C_27  and  C_30
REMARK                            x       y       z     vdW  Elec       q    Type
REMARK                         _______ _______ _______ _____ _____    ______ ____
ROOT
ATOM      1  C   UNL     1       1.159  -5.794   1.231  0.00  0.00    +0.139 A 
ATOM      2  C   UNL     1       2.128  -6.181   2.137  0.00  0.00    +0.093 A 
ATOM      3  C   UNL     1       2.444  -7.532   2.278  0.00  0.00    +0.131 A 
ATOM      4  C   UNL     1       1.751  -8.473   1.476  0.00  0.00    +0.059 A 
ATOM      5  C   UNL     1       2.029  -9.845   1.576  0.00  0.00    +0.017 A 
ATOM      6  C   UNL     1       1.354 -10.734   0.799  0.00  0.00    +0.024 A 
ATOM      7  C   UNL     1       0.377 -10.286  -0.107  0.00  0.00    +0.037 A 
ATOM      8  C   UNL     1       0.090  -8.923  -0.218  0.00  0.00    +0.070 A 
ATOM      9  C   UNL     1       0.772  -8.012   0.569  0.00  0.00    +0.141 A 
ATOM     10  O   UNL     1       0.504  -6.693   0.480  0.00  0.00    -0.455 OA
ATOM     11  N   UNL     1      -0.291 -11.182  -0.880  0.00  0.00    -0.281 N 
ATOM     12  C   UNL     1      -1.411 -10.825  -1.492  0.00  0.00    +0.248 C 
ATOM     13  O   UNL     1      -1.911  -9.735  -1.264  0.00  0.00    -0.270 OA
ATOM     14  H   UNL     1       0.052 -12.084  -0.984  0.00  0.00    +0.155 HD
ENDROOT
BRANCH  12  15
ATOM     15  C   UNL     1      -2.058 -11.749  -2.454  0.00  0.00    +0.037 A 
ATOM     16  C   UNL     1      -1.492 -12.997  -2.713  0.00  0.00    +0.013 A 
ATOM     17  C   UNL     1      -2.099 -13.854  -3.610  0.00  0.00    +0.004 A 
ATOM     18  C   UNL     1      -3.264 -13.476  -4.251  0.00  0.00    -0.050 A 
ATOM     19  C   UNL     1      -3.830 -12.239  -3.999  0.00  0.00    +0.004 A 
ATOM     20  C   UNL     1      -3.236 -11.376  -3.099  0.00  0.00    +0.013 A 
ATOM     21  C   UNL     1      -3.921 -14.415  -5.229  0.00  0.00    +0.044 C 
ENDBRANCH  12  15
BRANCH   1  25
ATOM     22  C   UNL     1       0.220  -1.675   0.830  0.00  0.00    +0.121 A 
ATOM     23  C   UNL     1      -0.450  -2.617   0.057  0.00  0.00    +0.046 A 
ATOM     24  C   UNL     1      -0.149  -3.954   0.184  0.00  0.00    +0.015 A 
ATOM     25  C   UNL     1       0.833  -4.365   1.092  0.00  0.00    +0.018 A 
ATOM     26  C   UNL     1       1.505  -3.413   1.867  0.00  0.00    +0.015 A 
ATOM     27  C   UNL     1       1.200  -2.077   1.729  0.00  0.00    +0.046 A 
BRANCH  22  28
ATOM     28  O   UNL     1      -0.080  -0.357   0.701  0.00  0.00    -0.492 OA
BRANCH  28  30
ATOM     29  C   UNL     1      -1.295   1.504  -0.247  0.00  0.00    +0.048 C 
ATOM     30  C   UNL     1      -1.097  -0.013  -0.242  0.00  0.00    +0.225 C 
ENDBRANCH  28  30
ENDBRANCH  22  28
ENDBRANCH   1  25
BRANCH   3  31
ATOM     31  O   UNL     1       3.388  -7.933   3.157  0.00  0.00    -0.506 OA
ATOM     32  H   UNL     1       3.797  -7.211   3.653  0.00  0.00    +0.292 HD
ENDBRANCH   3  31
TORSDOF 5
