REMARK  Name = ZINC13625377
REMARK  7 active torsions:
REMARK  status: ('A' for Active; 'I' for Inactive)
REMARK    1  A    between atoms: C_1  and  C_2
REMARK    2  A    between atoms: C_7  and  N_8
REMARK    3  A    between atoms: C_9  and  C_11
REMARK    4  A    between atoms: C_11  and  C_12
REMARK    5  A    between atoms: C_12  and  C_13
REMARK    6  A    between atoms: C_13  and  N_14
REMARK    7  A    between atoms: C_19  and  O_27
REMARK                            x       y       z     vdW  Elec       q    Type
REMARK                         _______ _______ _______ _____ _____    ______ ____
ROOT
ATOM      1  N   UNL     1      -0.430  -1.145   8.469  0.00  0.00    -0.299 N 
ATOM      2  C   UNL     1      -0.534  -0.702   9.737  0.00  0.00    +0.307 C 
ATOM      3  O   UNL     1      -0.567   0.493   9.963  0.00  0.00    -0.252 OA
ATOM      4  N   UNL     1      -0.602  -1.582  10.755  0.00  0.00    -0.245 N 
ATOM      5  C   UNL     1      -0.559  -3.035  10.518  0.00  0.00    +0.210 C 
ATOM      6  C   UNL     1      -1.546  -3.709  11.435  0.00  0.00    +0.206 C 
ATOM      7  N   UNL     1      -1.883  -3.191  12.572  0.00  0.00    -0.214 NA
ATOM      8  C   UNL     1      -1.371  -1.995  13.000  0.00  0.00    +0.089 A 
ATOM      9  C   UNL     1      -0.711  -1.155  12.087  0.00  0.00    +0.064 A 
ATOM     10  C   UNL     1      -0.191   0.056  12.500  0.00  0.00    +0.026 A 
ATOM     11  C   UNL     1      -0.313   0.440  13.825  0.00  0.00    +0.002 A 
ATOM     12  C   UNL     1      -0.953  -0.384  14.734  0.00  0.00    +0.002 A 
ATOM     13  C   UNL     1      -1.491  -1.599  14.329  0.00  0.00    +0.030 A 
ATOM     14  H   UNL     1      -0.404  -2.097   8.288  0.00  0.00    +0.150 HD
ENDROOT
BRANCH   6  15
ATOM     15  O   UNL     1      -2.093  -4.885  11.060  0.00  0.00    -0.494 OA
ATOM     16  H   UNL     1      -2.716  -5.251  11.703  0.00  0.00    +0.293 HD
ENDBRANCH   6  15
BRANCH   1  17
ATOM     17  C   UNL     1      -0.356  -0.187   7.362  0.00  0.00    +0.106 C 
BRANCH  17  18
ATOM     18  C   UNL     1      -0.244  -0.946   6.038  0.00  0.00    +0.028 C 
BRANCH  18  19
ATOM     19  C   UNL     1      -0.167   0.054   4.882  0.00  0.00    +0.097 C 
BRANCH  19  21
ATOM     20  N   UNL     1       0.026  -0.014   2.417  0.00  0.00    -0.285 N 
ATOM     21  C   UNL     1      -0.056  -0.694   3.578  0.00  0.00    +0.217 C 
ATOM     22  O   UNL     1      -0.040  -1.906   3.574  0.00  0.00    -0.275 OA
ATOM     23  H   UNL     1       0.079   0.955   2.425  0.00  0.00    +0.155 HD
BRANCH  20  30
ATOM     24  C   UNL     1      -1.265   1.183   0.182  0.00  0.00    +0.046 C 
ATOM     25  C   UNL     1      -0.584  -0.158   0.085  0.00  0.00    -0.028 A 
ATOM     26  C   UNL     1      -0.570  -0.840  -1.116  0.00  0.00    +0.020 A 
ATOM     27  C   UNL     1       0.055  -2.071  -1.206  0.00  0.00    +0.018 A 
ATOM     28  C   UNL     1       0.666  -2.623  -0.094  0.00  0.00    +0.017 A 
ATOM     29  C   UNL     1       0.655  -1.945   1.109  0.00  0.00    +0.024 A 
ATOM     30  C   UNL     1       0.034  -0.706   1.201  0.00  0.00    +0.036 A 
ATOM     31 BR   UNL     1       0.072  -3.002  -2.852  0.00  0.00    -0.050 Br
ENDBRANCH  20  30
ENDBRANCH  19  21
ENDBRANCH  18  19
ENDBRANCH  17  18
ENDBRANCH   1  17
TORSDOF 6
