REMARK  Name = ZINC14460819
REMARK  4 active torsions:
REMARK  status: ('A' for Active; 'I' for Inactive)
REMARK    1  A    between atoms: C_6  and  S_7
REMARK    2  A    between atoms: S_7  and  N_10
REMARK    3  A    between atoms: C_18  and  C_21
REMARK    4  A    between atoms: C_26  and  O_27
REMARK                            x       y       z     vdW  Elec       q    Type
REMARK                         _______ _______ _______ _____ _____    ______ ____
ROOT
ATOM      1  C   UNL     1       1.056  -0.594   0.012  0.00  0.00    +0.030 A 
ATOM      2  C   UNL     1       2.267   0.069  -0.003  0.00  0.00    +0.025 A 
ATOM      3  C   UNL     1       2.298   1.459  -0.004  0.00  0.00    +0.031 A 
ATOM      4  C   UNL     1       1.121   2.187   0.012  0.00  0.00    -0.018 A 
ATOM      5  C   UNL     1      -0.090   1.510   0.024  0.00  0.00    +0.034 A 
ATOM      6  C   UNL     1      -0.121   0.130   0.025  0.00  0.00    +0.105 A 
ATOM      7  C   UNL     1       1.089   3.700   0.010  0.00  0.00    +0.049 C 
ATOM      8  C   UNL     1       0.354   4.127   1.274  0.00  0.00    -0.023 C 
ATOM      9  C   UNL     1       1.207   4.395   2.230  0.00  0.00    -0.030 C 
ATOM     10  C   UNL     1       2.640   4.202   1.745  0.00  0.00    +0.033 C 
ATOM     11  C   UNL     1       2.491   4.304   0.208  0.00  0.00    +0.029 C 
ATOM     12  C   UNL     1       3.566   3.501  -0.499  0.00  0.00    +0.108 C 
ATOM     13  N   UNL     1       3.535   2.113  -0.024  0.00  0.00    -0.336 N 
ATOM     14  H   UNL     1       4.344   1.665   0.268  0.00  0.00    +0.147 HD
ENDROOT
BRANCH  12  15
ATOM     15  C   UNL     1       3.317   3.528  -1.985  0.00  0.00    +0.015 A 
ATOM     16  C   UNL     1       2.749   2.435  -2.611  0.00  0.00    +0.024 A 
ATOM     17  C   UNL     1       2.520   2.460  -3.975  0.00  0.00    +0.018 A 
ATOM     18  C   UNL     1       2.860   3.579  -4.715  0.00  0.00    +0.019 A 
ATOM     19  C   UNL     1       3.427   4.673  -4.093  0.00  0.00    +0.047 A 
ATOM     20  C   UNL     1       3.653   4.653  -2.724  0.00  0.00    +0.122 A 
ATOM     21 BR   UNL     1       1.742   0.963  -4.829  0.00  0.00    -0.050 Br
BRANCH  20  22
ATOM     22  O   UNL     1       4.206   5.731  -2.109  0.00  0.00    -0.506 OA
ATOM     23  H   UNL     1       5.172   5.710  -2.072  0.00  0.00    +0.292 HD
ENDBRANCH  20  22
ENDBRANCH  12  15
BRANCH   6  24
ATOM     24  S   UNL     1      -1.669  -0.713   0.042  0.00  0.00    +0.056 S 
ATOM     25  O   UNL     1      -1.424  -2.001   0.591  0.00  0.00    -0.153 OA
ATOM     26  O   UNL     1      -2.615   0.187   0.603  0.00  0.00    -0.153 OA
BRANCH  24  27
ATOM     27  N   UNL     1      -2.116  -0.948  -1.535  0.00  0.00    -0.204 NA
ATOM     28  H   UNL     1      -2.654  -1.718  -1.778  0.00  0.00    +0.144 HD
ATOM     29  H   UNL     1      -1.839  -0.315  -2.217  0.00  0.00    +0.144 HD
ENDBRANCH  24  27
ENDBRANCH   6  24
TORSDOF 4
