REMARK  Name = ZINC62824196
REMARK  4 active torsions:
REMARK  status: ('A' for Active; 'I' for Inactive)
REMARK    1  A    between atoms: C_3  and  N_11
REMARK    2  A    between atoms: C_4  and  C_8
REMARK    3  A    between atoms: N_11  and  S_12
REMARK    4  A    between atoms: S_12  and  C_15
REMARK                            x       y       z     vdW  Elec       q    Type
REMARK                         _______ _______ _______ _____ _____    ______ ____
ROOT
ATOM      1  N   UNL     1       3.569   2.149  -0.022  0.00  0.00    -0.101 NA
ENDROOT
BRANCH   1   4
ATOM      2  C   UNL     1      -0.017   1.383   0.010  0.00  0.00    +0.016 A 
ATOM      3  C   UNL     1       1.163   2.098   0.002  0.00  0.00    +0.028 A 
ATOM      4  C   UNL     1       2.382   1.431  -0.013  0.00  0.00    +0.088 A 
ATOM      5  C   UNL     1       2.405   0.026  -0.021  0.00  0.00    +0.088 A 
ATOM      6  C   UNL     1       1.200  -0.684  -0.013  0.00  0.00    +0.031 A 
ATOM      7  C   UNL     1       0.002  -0.004   0.002  0.00  0.00    +0.014 A 
ATOM      8  I   UNL     1      -1.801  -1.070   0.014  0.00  0.00    -0.044 I 
BRANCH   5   9
ATOM      9  C   UNL     1       3.688  -0.693  -0.038  0.00  0.00    +0.388 C 
ATOM     10  O   UNL     1       3.703  -1.916  -0.045  0.00  0.00    -0.241 OA
ATOM     11  O   UNL     1       4.739  -0.068  -0.046  0.00  0.00    -0.241 OA
ENDBRANCH   5   9
ENDBRANCH   1   4
BRANCH   1  12
ATOM     12  S   UNL     1       3.536   3.804  -0.013  0.00  0.00    +0.067 S 
ATOM     13  O   UNL     1       2.914   4.161  -1.240  0.00  0.00    -0.153 OA
ATOM     14  O   UNL     1       2.939   4.149   1.229  0.00  0.00    -0.153 OA
BRANCH  12  15
ATOM     15  C   UNL     1       5.280   4.305  -0.028  0.00  0.00    +0.175 C 
ATOM     16  C   UNL     1       5.955   3.766  -1.300  0.00  0.00    +0.052 C 
ATOM     17  C   UNL     1       7.338   4.462  -1.446  0.00  0.00    +0.168 C 
ATOM     18  S   UNL     1       6.903   6.184  -0.957  0.00  0.00    -0.029 S 
ATOM     19  O   UNL     1       6.566   6.924  -2.123  0.00  0.00    -0.174 OA
ATOM     20  O   UNL     1       7.902   6.681  -0.078  0.00  0.00    -0.174 OA
ATOM     21  C   UNL     1       5.371   5.850   0.002  0.00  0.00    +0.194 C 
ENDBRANCH  12  15
ENDBRANCH   1  12
TORSDOF 4
