REMARK  Name = ZINC02865032
REMARK  6 active torsions:
REMARK  status: ('A' for Active; 'I' for Inactive)
REMARK    1  A    between atoms: C_1  and  C_2
REMARK    2  A    between atoms: C_7  and  C_8
REMARK    3  A    between atoms: N_10  and  N_11
REMARK    4  A    between atoms: C_12  and  C_14
REMARK    5  A    between atoms: N_16  and  C_17
REMARK    6  A    between atoms: C_22  and  C_23
REMARK                            x       y       z     vdW  Elec       q    Type
REMARK                         _______ _______ _______ _____ _____    ______ ____
ROOT
ATOM      1  N   UNL     1       0.620   0.045   4.833  0.00  0.00    -0.226 N 
ATOM      2  C   UNL     1       0.818  -0.636   5.979  0.00  0.00    +0.315 C 
ATOM      3  O   UNL     1       0.899  -1.847   5.959  0.00  0.00    -0.264 OA
ATOM      4  H   UNL     1       0.555   1.013   4.849  0.00  0.00    +0.173 HD
ENDROOT
BRANCH   1   7
ATOM      5  C   UNL     1       0.311   0.037   2.473  0.00  0.00    +0.260 C 
ATOM      6  O   UNL     1       0.229   1.250   2.493  0.00  0.00    -0.269 OA
ATOM      7  N   UNL     1       0.509  -0.644   3.619  0.00  0.00    -0.230 N 
ATOM      8  H   UNL     1       0.574  -1.612   3.602  0.00  0.00    +0.173 HD
BRANCH   5  15
ATOM      9  C   UNL     1       0.028   1.522   0.006  0.00  0.00    +0.044 C 
ATOM     10  C   UNL     1       0.057   0.015  -0.005  0.00  0.00    -0.038 A 
ATOM     11  C   UNL     1      -0.047  -0.670  -1.199  0.00  0.00    +0.004 A 
ATOM     12  C   UNL     1      -0.020  -2.053  -1.210  0.00  0.00    +0.000 A 
ATOM     13  C   UNL     1       0.110  -2.759  -0.027  0.00  0.00    +0.001 A 
ATOM     14  C   UNL     1       0.214  -2.086   1.173  0.00  0.00    +0.013 A 
ATOM     15  C   UNL     1       0.194  -0.691   1.191  0.00  0.00    +0.041 A 
ENDBRANCH   5  15
ENDBRANCH   1   7
BRANCH   2  16
ATOM     16  C   UNL     1       0.936   0.099   7.274  0.00  0.00    +0.305 C 
ATOM     17  O   UNL     1       0.854   1.309   7.294  0.00  0.00    -0.265 OA
ATOM     18  N   UNL     1       1.134  -0.583   8.420  0.00  0.00    -0.277 N 
ATOM     19  H   UNL     1       1.273  -1.542   8.396  0.00  0.00    +0.155 HD
BRANCH  18  20
ATOM     20  C   UNL     1       1.137   0.093   9.643  0.00  0.00    +0.038 A 
ATOM     21  C   UNL     1       1.630   1.390   9.720  0.00  0.00    +0.023 A 
ATOM     22  C   UNL     1       1.632   2.056  10.930  0.00  0.00    +0.003 A 
ATOM     23  C   UNL     1       1.145   1.434  12.064  0.00  0.00    +0.020 A 
ATOM     24  C   UNL     1       0.654   0.142  11.992  0.00  0.00    +0.046 A 
ATOM     25  C   UNL     1       0.643  -0.528  10.783  0.00  0.00    -0.011 A 
ATOM     26  C   UNL     1       0.102  -1.932  10.702  0.00  0.00    +0.047 C 
ATOM     27 CL   UNL     1       0.044  -0.636  13.419  0.00  0.00    -0.083 Cl
ENDBRANCH  18  20
ENDBRANCH   2  16
TORSDOF 4
