REMARK  Name = ZINC14017100
REMARK  5 active torsions:
REMARK  status: ('A' for Active; 'I' for Inactive)
REMARK    1  A    between atoms: C_4  and  S_7
REMARK    2  A    between atoms: S_7  and  N_10
REMARK    3  A    between atoms: C_14  and  C_17
REMARK    4  A    between atoms: N_19  and  C_20
REMARK    5  A    between atoms: C_21  and  C_30
REMARK                            x       y       z     vdW  Elec       q    Type
REMARK                         _______ _______ _______ _____ _____    ______ ____
ROOT
ATOM      1  C   UNL     1      -1.295   3.998   4.436  0.00  0.00    +0.222 C 
ATOM      2  O   UNL     1      -2.119   4.790   4.032  0.00  0.00    -0.275 OA
ATOM      3  N   UNL     1      -1.475   3.382   5.621  0.00  0.00    -0.279 N 
ATOM      4  H   UNL     1      -0.815   2.749   5.944  0.00  0.00    +0.155 HD
ENDROOT
BRANCH   3   5
ATOM      5  C   UNL     1      -2.604   3.655   6.379  0.00  0.00    +0.084 A 
ATOM      6  C   UNL     1      -2.963   3.128   7.610  0.00  0.00    +0.068 A 
ATOM      7  C   UNL     1      -4.212   3.586   8.204  0.00  0.00    -0.023 A 
ATOM      8  C   UNL     1      -4.898   4.484   7.466  0.00  0.00    -0.004 A 
ATOM      9  S   UNL     1      -3.904   4.741   6.022  0.00  0.00    -0.077 S 
ATOM     10  C   UNL     1      -6.210   5.127   7.792  0.00  0.00    +0.043 C 
ATOM     11  C   UNL     1      -6.162   5.673   9.226  0.00  0.00    +0.005 C 
ATOM     12  C   UNL     1      -6.629   4.576  10.177  0.00  0.00    +0.001 C 
ATOM     13  C   UNL     1      -6.215   3.206   9.643  0.00  0.00    +0.005 C 
ATOM     14  C   UNL     1      -4.696   3.100   9.565  0.00  0.00    +0.037 C 
BRANCH   6  15
ATOM     15  C   UNL     1      -2.115   2.145   8.290  0.00  0.00    +0.244 C 
ATOM     16  O   UNL     1      -1.246   2.518   9.057  0.00  0.00    -0.270 OA
ATOM     17  N   UNL     1      -2.297   0.829   8.067  0.00  0.00    -0.325 N 
ATOM     18  H   UNL     1      -2.989   0.532   7.456  0.00  0.00    +0.145 HD
ATOM     19  H   UNL     1      -1.736   0.178   8.517  0.00  0.00    +0.145 HD
ENDBRANCH   6  15
ENDBRANCH   3   5
BRANCH   1  24
ATOM     20  N   UNL     1       1.155   4.329   1.596  0.00  0.00    -0.176 NA
ATOM     21  C   UNL     1       2.423   4.564   2.300  0.00  0.00    +0.109 C 
ATOM     22  C   UNL     1       2.432   3.735   3.589  0.00  0.00    +0.018 C 
ATOM     23  C   UNL     1       1.185   4.066   4.412  0.00  0.00    +0.015 C 
ATOM     24  C   UNL     1      -0.068   3.702   3.612  0.00  0.00    +0.091 C 
ATOM     25  C   UNL     1      -0.105   4.535   2.322  0.00  0.00    +0.122 C 
BRANCH  20  26
ATOM     26  S   UNL     1       1.147   3.847   0.011  0.00  0.00    +0.061 S 
ATOM     27  O   UNL     1       2.382   4.273  -0.549  0.00  0.00    -0.153 OA
ATOM     28  O   UNL     1      -0.109   4.239  -0.526  0.00  0.00    -0.153 OA
BRANCH  26  32
ATOM     29  C   UNL     1       1.208  -0.679  -0.014  0.00  0.00    +0.000 A 
ATOM     30  C   UNL     1       0.002  -0.004   0.002  0.00  0.00    +0.002 A 
ATOM     31  C   UNL     1      -0.017   1.378   0.010  0.00  0.00    +0.028 A 
ATOM     32  C   UNL     1       1.171   2.086   0.002  0.00  0.00    +0.105 A 
ATOM     33  C   UNL     1       2.377   1.411  -0.014  0.00  0.00    +0.028 A 
ATOM     34  C   UNL     1       2.396   0.029  -0.021  0.00  0.00    +0.002 A 
ENDBRANCH  26  32
ENDBRANCH  20  26
ENDBRANCH   1  24
TORSDOF 5
