REMARK  Name = ZINC58790338
REMARK  6 active torsions:
REMARK  status: ('A' for Active; 'I' for Inactive)
REMARK    1  A    between atoms: C_1  and  C_2
REMARK    2  A    between atoms: C_5  and  C_8
REMARK    3  A    between atoms: C_8  and  N_9
REMARK    4  A    between atoms: N_9  and  C_10
REMARK    5  A    between atoms: C_10  and  C_12
REMARK    6  A    between atoms: C_10  and  C_13
REMARK                            x       y       z     vdW  Elec       q    Type
REMARK                         _______ _______ _______ _____ _____    ______ ____
ROOT
ATOM      1  N   UNL     1       2.312  -4.549   1.090  0.00  0.00    +0.387 N 
ATOM      2  H   UNL     1       3.254  -4.199   1.000  0.00  0.00    -0.085 HD
ATOM      3  H   UNL     1       1.913  -4.223   1.958  0.00  0.00    -0.085 HD
ENDROOT
BRANCH   1   4
ATOM      4  C   UNL     1       2.331  -6.018   1.082  0.00  0.00    +0.013 C 
ATOM      5  C   UNL     1       0.920  -6.548   1.343  0.00  0.00    -0.004 C 
BRANCH   4   6
ATOM      6  C   UNL     1       3.262  -6.513   2.159  0.00  0.00    +0.206 C 
ATOM      7  O   UNL     1       3.850  -5.721   2.864  0.00  0.00    -0.277 OA
ATOM      8  N   UNL     1       3.440  -7.837   2.339  0.00  0.00    -0.242 N 
ATOM      9  C   UNL     1       4.272  -8.280   3.302  0.00  0.00    +0.303 C 
ATOM     10  O   UNL     1       4.862  -7.487   4.008  0.00  0.00    -0.253 OA
ATOM     11  N   UNL     1       4.450  -9.604   3.482  0.00  0.00    -0.313 N 
ATOM     12  H   UNL     1       2.969  -8.471   1.775  0.00  0.00    +0.159 HD
ATOM     13  H   UNL     1       3.979 -10.238   2.918  0.00  0.00    +0.146 HD
ATOM     14  H   UNL     1       5.049  -9.923   4.175  0.00  0.00    +0.146 HD
ENDBRANCH   4   6
ENDBRANCH   1   4
BRANCH   1  15
ATOM     15  C   UNL     1       1.500  -4.064  -0.034  0.00  0.00    -0.078 C 
BRANCH  15  20
ATOM     16  C   UNL     1      -0.019   1.526   0.010  0.00  0.00    +0.007 C 
ATOM     17  C   UNL     1       0.002  -0.004   0.002  0.00  0.00    -0.014 C 
ATOM     18  C   UNL     1       0.718  -0.497  -1.257  0.00  0.00    +0.003 C 
ATOM     19  C   UNL     1       0.739  -2.027  -1.265  0.00  0.00    +0.002 C 
ATOM     20  C   UNL     1       1.479  -2.534  -0.026  0.00  0.00    -0.028 C 
ATOM     21  C   UNL     1       0.763  -2.041   1.233  0.00  0.00    +0.002 C 
ATOM     22  C   UNL     1       0.742  -0.511   1.242  0.00  0.00    +0.003 C 
ENDBRANCH  15  20
ENDBRANCH   1  15
TORSDOF 4
