REMARK  Name = ZINC53068009
REMARK  6 active torsions:
REMARK  status: ('A' for Active; 'I' for Inactive)
REMARK    1  A    between atoms: C_1  and  S_2
REMARK    2  A    between atoms: S_2  and  N_5
REMARK    3  A    between atoms: C_9  and  C_11
REMARK    4  A    between atoms: N_13  and  C_14
REMARK    5  A    between atoms: C_14  and  C_19
REMARK    6  A    between atoms: C_19  and  O_20
REMARK                            x       y       z     vdW  Elec       q    Type
REMARK                         _______ _______ _______ _____ _____    ______ ____
ROOT
ATOM      1  C   UNL     1       2.914  -1.762  -0.986  0.00  0.00    +0.232 C 
ATOM      2  O   UNL     1       1.986  -2.282  -0.403  0.00  0.00    -0.274 OA
ATOM      3  N   UNL     1       4.176  -2.163  -0.736  0.00  0.00    -0.306 N 
ATOM      4  H   UNL     1       4.912  -1.800  -1.254  0.00  0.00    +0.149 HD
ENDROOT
BRANCH   1   9
ATOM      5  N   UNL     1       1.210  -0.412  -2.089  0.00  0.00    -0.170 NA
ATOM      6  C   UNL     1       0.771  -0.696  -3.467  0.00  0.00    +0.110 C 
ATOM      7  C   UNL     1       2.048  -0.539  -4.330  0.00  0.00    +0.019 C 
ATOM      8  C   UNL     1       3.135  -1.120  -3.387  0.00  0.00    +0.031 C 
ATOM      9  C   UNL     1       2.655  -0.670  -1.991  0.00  0.00    +0.165 C 
BRANCH   5  11
ATOM     10  C   UNL     1       0.293   1.926  -0.963  0.00  0.00    +0.215 C 
ATOM     11  S   UNL     1       0.239   0.116  -0.856  0.00  0.00    +0.030 S 
ATOM     12  O   UNL     1       0.887  -0.323   0.330  0.00  0.00    -0.158 OA
ATOM     13  O   UNL     1      -1.059  -0.355  -1.190  0.00  0.00    -0.158 OA
ENDBRANCH   5  11
ENDBRANCH   1   9
BRANCH   3  14
ATOM     14  C   UNL     1       4.438  -3.146   0.318  0.00  0.00    +0.058 C 
ATOM     15  C   UNL     1       5.957  -3.294   0.537  0.00  0.00    +0.028 C 
ATOM     16  C   UNL     1       6.265  -2.345   1.721  0.00  0.00    +0.002 C 
ATOM     17  C   UNL     1       5.028  -2.527   2.635  0.00  0.00    +0.002 C 
ATOM     18  C   UNL     1       3.847  -2.659   1.652  0.00  0.00    +0.028 C 
BRANCH  14  19
ATOM     19  C   UNL     1       3.828  -4.497  -0.064  0.00  0.00    +0.181 C 
BRANCH  19  20
ATOM     20  O   UNL     1       4.317  -4.895  -1.346  0.00  0.00    -0.393 OA
ATOM     21  H   UNL     1       3.971  -5.745  -1.652  0.00  0.00    +0.209 HD
ENDBRANCH  19  20
ENDBRANCH  14  19
ENDBRANCH   3  14
TORSDOF 5
