REMARK  Name = ZINC36925370
REMARK  4 active torsions:
REMARK  status: ('A' for Active; 'I' for Inactive)
REMARK    1  A    between atoms: C_6  and  C_7
REMARK    2  A    between atoms: C_7  and  C_8
REMARK    3  A    between atoms: C_10  and  C_13
REMARK    4  A    between atoms: C_14  and  N_18
REMARK                            x       y       z     vdW  Elec       q    Type
REMARK                         _______ _______ _______ _____ _____    ______ ____
ROOT
ATOM      1  C   UNL     1      -1.738  -1.024  -1.408  0.00  0.00    +0.176 A 
ATOM      2  N   UNL     1      -2.518  -0.216  -2.126  0.00  0.00    -0.191 NA
ATOM      3  C   UNL     1      -2.715  -0.730  -3.326  0.00  0.00    +0.267 A 
ATOM      4  O   UNL     1      -2.048  -1.899  -3.390  0.00  0.00    -0.332 OA
ATOM      5  N   UNL     1      -1.417  -2.062  -2.128  0.00  0.00    -0.061 NA
ENDROOT
BRANCH   3   6
ATOM      6  C   UNL     1      -3.514  -0.136  -4.396  0.00  0.00    +0.097 A 
ATOM      7  C   UNL     1      -3.768  -0.623  -5.676  0.00  0.00    +0.044 A 
ATOM      8  C   UNL     1      -4.572   0.177  -6.467  0.00  0.00    +0.031 A 
ATOM      9  C   UNL     1      -5.043   1.339  -5.961  0.00  0.00    +0.048 A 
ATOM     10  S   UNL     1      -4.426   1.396  -4.400  0.00  0.00    -0.090 S 
BRANCH   7  11
ATOM     11  N   UNL     1      -3.245  -1.835  -6.130  0.00  0.00    -0.357 N 
ATOM     12  H   UNL     1      -2.684  -2.369  -5.547  0.00  0.00    +0.142 HD
ATOM     13  H   UNL     1      -3.443  -2.142  -7.028  0.00  0.00    +0.142 HD
ENDBRANCH   7  11
ENDBRANCH   3   6
BRANCH   1  14
ATOM     14  C   UNL     1      -1.293  -0.775   0.010  0.00  0.00    +0.114 C 
BRANCH  14  20
ATOM     15  C   UNL     1      -0.017   1.378   0.010  0.00  0.00    +0.005 A 
ATOM     16  C   UNL     1       1.171   2.086   0.002  0.00  0.00    +0.015 A 
ATOM     17  C   UNL     1       2.378   1.411  -0.013  0.00  0.00    +0.018 A 
ATOM     18  C   UNL     1       2.396   0.027  -0.021  0.00  0.00    +0.015 A 
ATOM     19  C   UNL     1       1.208  -0.679  -0.013  0.00  0.00    +0.005 A 
ATOM     20  C   UNL     1       0.002  -0.004   0.002  0.00  0.00    -0.040 A 
ATOM     21 BR   UNL     1       4.003   2.378  -0.024  0.00  0.00    -0.050 Br
ENDBRANCH  14  20
ENDBRANCH   1  14
TORSDOF 4
