REMARK  Name = ZINC04747305
REMARK  9 active torsions:
REMARK  status: ('A' for Active; 'I' for Inactive)
REMARK    1  A    between atoms: C_1  and  C_2
REMARK    2  A    between atoms: C_2  and  C_3
REMARK    3  A    between atoms: C_2  and  C_4
REMARK    4  A    between atoms: N_6  and  C_7
REMARK    5  A    between atoms: C_9  and  O_22
REMARK    6  A    between atoms: C_11  and  O_21
REMARK    7  A    between atoms: C_13  and  C_19
REMARK    8  A    between atoms: C_16  and  O_18
REMARK    9  A    between atoms: C_19  and  O_20
REMARK                            x       y       z     vdW  Elec       q    Type
REMARK                         _______ _______ _______ _____ _____    ______ ____
ROOT
ATOM      1  C   UNL     1       0.786  -0.486  -1.222  0.00  0.00    +0.160 C 
ATOM      2  C   UNL     1      -0.049  -0.092  -0.000  0.00  0.00    +0.171 C 
ATOM      3  C   UNL     1      -0.160   1.435   0.057  0.00  0.00    +0.176 C 
ATOM      4  C   UNL     1       1.246   2.040   0.094  0.00  0.00    +0.178 C 
ATOM      5  O   UNL     1       1.979   1.609  -1.054  0.00  0.00    -0.341 OA
ATOM      6  C   UNL     1       2.155   0.193  -1.136  0.00  0.00    +0.270 C 
ENDROOT
BRANCH   1   9
ATOM      7  C   UNL     1      -0.830  -0.847  -3.010  0.00  0.00    +0.216 C 
ATOM      8  O   UNL     1      -1.102  -1.917  -2.509  0.00  0.00    -0.276 OA
ATOM      9  N   UNL     1       0.102  -0.054  -2.443  0.00  0.00    -0.305 N 
ATOM     10  H   UNL     1       0.319   0.802  -2.844  0.00  0.00    +0.149 HD
BRANCH   7  12
ATOM     11  C   UNL     1      -2.535  -1.477  -4.697  0.00  0.00    +0.017 C 
ATOM     12  C   UNL     1      -1.534  -0.402  -4.266  0.00  0.00    +0.069 C 
ATOM     13  C   UNL     1      -2.277   0.908  -3.998  0.00  0.00    +0.017 C 
ENDBRANCH   7  12
ENDBRANCH   1   9
BRANCH   6  14
ATOM     14  O   UNL     1       2.920  -0.126  -2.300  0.00  0.00    -0.365 OA
ATOM     15  H   UNL     1       3.801   0.272  -2.313  0.00  0.00    +0.213 HD
ENDBRANCH   6  14
BRANCH   3  16
ATOM     16  O   UNL     1      -0.853   1.907  -1.100  0.00  0.00    -0.387 OA
ATOM     17  H   UNL     1      -0.960   2.868  -1.130  0.00  0.00    +0.210 HD
ENDBRANCH   3  16
BRANCH   2  18
ATOM     18  O   UNL     1       0.586  -0.570   1.187  0.00  0.00    -0.387 OA
ATOM     19  H   UNL     1       0.114  -0.349   2.002  0.00  0.00    +0.210 HD
ENDBRANCH   2  18
BRANCH   4  20
ATOM     20  C   UNL     1       1.144   3.567   0.091  0.00  0.00    +0.190 C 
BRANCH  20  21
ATOM     21  O   UNL     1       2.448   4.131   0.243  0.00  0.00    -0.392 OA
ATOM     22  H   UNL     1       2.460   5.098   0.249  0.00  0.00    +0.210 HD
ENDBRANCH  20  21
ENDBRANCH   4  20
TORSDOF 7
