REMARK  Name = ZINC08828844
REMARK  7 active torsions:
REMARK  status: ('A' for Active; 'I' for Inactive)
REMARK    1  A    between atoms: C_1  and  C_2
REMARK    2  A    between atoms: C_5  and  N_9
REMARK    3  A    between atoms: C_6  and  C_8
REMARK    4  A    between atoms: N_9  and  C_10
REMARK    5  A    between atoms: C_10  and  N_12
REMARK    6  A    between atoms: N_12  and  N_13
REMARK    7  A    between atoms: C_17  and  C_20
REMARK                            x       y       z     vdW  Elec       q    Type
REMARK                         _______ _______ _______ _____ _____    ______ ____
ROOT
ATOM      1  N   UNL     1      -0.126  -6.183  -1.187  0.00  0.00    -0.247 N 
ATOM      2  H   UNL     1      -0.197  -6.665  -2.026  0.00  0.00    +0.172 HD
ENDROOT
BRANCH   1   3
ATOM      3  N   UNL     1      -0.111  -6.886   0.025  0.00  0.00    -0.248 N 
ATOM      4  C   UNL     1      -0.197  -8.274   0.025  0.00  0.00    +0.153 A 
ATOM      5  C   UNL     1      -0.187  -8.967   1.232  0.00  0.00    +0.083 A 
ATOM      6  C   UNL     1      -0.275 -10.348   1.217  0.00  0.00    +0.037 A 
ATOM      7  C   UNL     1      -0.370 -10.992  -0.010  0.00  0.00    +0.074 A 
ATOM      8  C   UNL     1      -0.374 -10.242  -1.169  0.00  0.00    +0.125 A 
ATOM      9  N   UNL     1      -0.294  -8.925  -1.124  0.00  0.00    -0.237 NA
ATOM     10 CL   UNL     1      -0.066  -8.109   2.737  0.00  0.00    -0.080 Cl
ATOM     11  H   UNL     1      -0.039  -6.405   0.864  0.00  0.00    +0.172 HD
BRANCH   7  12
ATOM     12  C   UNL     1      -0.467 -12.494  -0.075  0.00  0.00    +0.419 C 
ATOM     13  F   UNL     1      -1.812 -12.877  -0.036  0.00  0.00    -0.166 F 
ATOM     14  F   UNL     1       0.113 -12.948  -1.265  0.00  0.00    -0.166 F 
ATOM     15  F   UNL     1       0.208 -13.053   1.016  0.00  0.00    -0.166 F 
ENDBRANCH   7  12
ENDBRANCH   1   3
BRANCH   1  16
ATOM     16  C   UNL     1      -0.042  -4.838  -1.187  0.00  0.00    +0.151 C 
ATOM     17  S   UNL     1      -0.061  -3.979  -2.667  0.00  0.00    -0.017 S 
BRANCH  16  18
ATOM     18  N   UNL     1       0.057  -4.170  -0.021  0.00  0.00    -0.296 N 
ATOM     19  H   UNL     1       0.131  -4.658   0.814  0.00  0.00    +0.154 HD
BRANCH  18  24
ATOM     20  C   UNL     1       0.039   1.503   0.004  0.00  0.00    +0.044 C 
ATOM     21  C   UNL     1       0.044  -0.004  -0.003  0.00  0.00    -0.050 A 
ATOM     22  C   UNL     1       0.855  -0.687  -0.890  0.00  0.00    +0.005 A 
ATOM     23  C   UNL     1       0.862  -2.068  -0.899  0.00  0.00    +0.024 A 
ATOM     24  C   UNL     1       0.053  -2.771  -0.015  0.00  0.00    +0.036 A 
ATOM     25  C   UNL     1      -0.760  -2.081   0.875  0.00  0.00    -0.029 A 
ATOM     26  C   UNL     1      -0.758  -0.700   0.882  0.00  0.00    +0.008 A 
ATOM     27  C   UNL     1      -1.639  -2.839   1.836  0.00  0.00    +0.045 C 
ENDBRANCH  18  24
ENDBRANCH  16  18
ENDBRANCH   1  16
TORSDOF 5
