REMARK  Name = ZINC57662568
REMARK  6 active torsions:
REMARK  status: ('A' for Active; 'I' for Inactive)
REMARK    1  A    between atoms: C_3  and  N_19
REMARK    2  A    between atoms: C_6  and  C_7
REMARK    3  A    between atoms: C_7  and  C_9
REMARK    4  A    between atoms: C_7  and  O_18
REMARK    5  A    between atoms: C_9  and  C_10
REMARK    6  A    between atoms: C_10  and  N_11
REMARK                            x       y       z     vdW  Elec       q    Type
REMARK                         _______ _______ _______ _____ _____    ______ ____
ROOT
ATOM      1  C   UNL     1      -1.294  -0.774   0.011  0.00  0.00    +0.146 C 
ENDROOT
BRANCH   1   7
ATOM      2  C   UNL     1      -0.017   1.379   0.010  0.00  0.00    +0.008 A 
ATOM      3  C   UNL     1       1.169   2.087   0.002  0.00  0.00    +0.023 A 
ATOM      4  C   UNL     1       2.381   1.409  -0.013  0.00  0.00    +0.025 A 
ATOM      5  C   UNL     1       2.396   0.020  -0.021  0.00  0.00    +0.023 A 
ATOM      6  C   UNL     1       1.207  -0.682  -0.013  0.00  0.00    +0.008 A 
ATOM      7  C   UNL     1       0.002  -0.004   0.002  0.00  0.00    -0.019 A 
BRANCH   4   8
ATOM      8  N   UNL     1       3.582   2.122  -0.021  0.00  0.00    -0.358 N 
ATOM      9  H   UNL     1       3.570   3.092  -0.016  0.00  0.00    +0.142 HD
ATOM     10  H   UNL     1       4.428   1.647  -0.032  0.00  0.00    +0.142 HD
ENDBRANCH   4   8
ENDBRANCH   1   7
BRANCH   1  11
ATOM     11  O   UNL     1      -1.168  -1.909   0.869  0.00  0.00    -0.387 OA
ATOM     12  H   UNL     1      -0.471  -2.526   0.606  0.00  0.00    +0.210 HD
ENDBRANCH   1  11
BRANCH   1  13
ATOM     13  C   UNL     1      -1.618  -1.242  -1.409  0.00  0.00    +0.051 C 
BRANCH  13  14
ATOM     14  C   UNL     1      -2.993  -1.914  -1.423  0.00  0.00    +0.087 C 
BRANCH  14  15
ATOM     15  N   UNL     1      -3.304  -2.364  -2.786  0.00  0.00    -0.304 NA
ATOM     16  C   UNL     1      -3.391  -1.213  -3.718  0.00  0.00    +0.082 C 
ATOM     17  C   UNL     1      -3.114  -1.708  -5.115  0.00  0.00    -0.004 C 
ATOM     18  C   UNL     1      -4.395  -2.100  -5.869  0.00  0.00    -0.081 C 
ATOM     19  N   UNL     1      -5.353  -2.842  -5.019  0.00  0.00    +0.380 N 
ATOM     20  C   UNL     1      -4.696  -3.815  -4.176  0.00  0.00    -0.067 C 
ATOM     21  C   UNL     1      -4.442  -3.177  -2.798  0.00  0.00    +0.065 C 
ATOM     22  H   UNL     1      -5.849  -2.185  -4.435  0.00  0.00    -0.086 HD
ATOM     23  H   UNL     1      -6.017  -3.317  -5.612  0.00  0.00    -0.086 HD
ENDBRANCH  14  15
ENDBRANCH  13  14
ENDBRANCH   1  13
TORSDOF 6
