REMARK  Name = ZINC41716647
REMARK  4 active torsions:
REMARK  status: ('A' for Active; 'I' for Inactive)
REMARK    1  A    between atoms: C_1  and  C_2
REMARK    2  A    between atoms: C_3  and  N_9
REMARK    3  A    between atoms: C_4  and  C_8
REMARK    4  A    between atoms: C_17  and  O_19
REMARK                            x       y       z     vdW  Elec       q    Type
REMARK                         _______ _______ _______ _____ _____    ______ ____
ROOT
ATOM      1  N   UNL     1      -0.005  -0.363  -2.438  0.00  0.00    -0.317 N 
ATOM      2  C   UNL     1       1.098  -0.106  -3.203  0.00  0.00    +0.092 A 
ATOM      3  C   UNL     1       0.682   0.289  -4.427  0.00  0.00    +0.026 A 
ATOM      4  C   UNL     1      -0.720   0.274  -4.415  0.00  0.00    +0.002 A 
ATOM      5  C   UNL     1      -1.116  -0.133  -3.186  0.00  0.00    +0.029 A 
ATOM      6  C   UNL     1      -2.559  -0.283  -2.771  0.00  0.00    +0.054 C 
ATOM      7  C   UNL     1      -3.434   0.472  -3.779  0.00  0.00    +0.009 C 
ATOM      8  C   UNL     1      -3.049   0.058  -5.202  0.00  0.00    +0.036 C 
ATOM      9  C   UNL     1      -1.662   0.629  -5.537  0.00  0.00    +0.146 C 
ENDROOT
BRANCH   1  12
ATOM     10  C   UNL     1      -0.018   1.503   0.010  0.00  0.00    +0.067 C 
ATOM     11  C   UNL     1       0.002  -0.004   0.002  0.00  0.00    +0.057 A 
ATOM     12  C   UNL     1       0.008  -0.799  -1.098  0.00  0.00    +0.090 A 
ATOM     13  C   UNL     1       0.029  -2.133  -0.663  0.00  0.00    +0.084 A 
ATOM     14  N   UNL     1       0.035  -2.136   0.645  0.00  0.00    -0.177 NA
ATOM     15  N   UNL     1       0.024  -0.808   1.089  0.00  0.00    -0.280 N 
ATOM     16  H   UNL     1       0.029  -0.516   2.014  0.00  0.00    +0.189 HD
ATOM     17  C   UNL     1       0.041  -3.351  -1.550  0.00  0.00    +0.070 C 
ENDBRANCH   1  12
BRANCH   9  18
ATOM     18  O   UNL     1      -1.198   0.048  -6.757  0.00  0.00    -0.387 OA
ATOM     19  H   UNL     1      -1.759   0.238  -7.522  0.00  0.00    +0.210 HD
ENDBRANCH   9  18
TORSDOF 2
