REMARK  Name = ZINC35323475
REMARK  10 active torsions:
REMARK  status: ('A' for Active; 'I' for Inactive)
REMARK    1  A    between atoms: C_1  and  C_2
REMARK    2  A    between atoms: C_2  and  C_4
REMARK    3  A    between atoms: C_2  and  N_13
REMARK    4  A    between atoms: C_4  and  C_6
REMARK    5  A    between atoms: C_4  and  O_12
REMARK    6  A    between atoms: N_13  and  C_14
REMARK    7  A    between atoms: N_13  and  C_15
REMARK    8  A    between atoms: C_17  and  O_27
REMARK    9  A    between atoms: C_19  and  O_26
REMARK   10  A    between atoms: C_21  and  O_25
REMARK                            x       y       z     vdW  Elec       q    Type
REMARK                         _______ _______ _______ _____ _____    ______ ____
ROOT
ATOM      1  N   UNL     1      -0.440  -1.310   0.204  0.00  0.00    +0.401 N 
ATOM      2  C   UNL     1      -1.506  -1.056   1.182  0.00  0.00    -0.092 C 
ATOM      3  H   UNL     1       0.443  -1.399   0.684  0.00  0.00    -0.078 HD
ENDROOT
BRANCH   1   4
ATOM      4  C   UNL     1      -0.729  -2.553  -0.524  0.00  0.00    +0.098 C 
ATOM      5  C   UNL     1      -0.725  -3.731   0.455  0.00  0.00    +0.157 C 
ATOM      6  C   UNL     1      -0.968  -5.029  -0.320  0.00  0.00    +0.174 C 
ATOM      7  C   UNL     1       0.104  -5.171  -1.405  0.00  0.00    +0.171 C 
ATOM      8  C   UNL     1       0.068  -3.939  -2.312  0.00  0.00    +0.191 C 
ATOM      9  O   UNL     1       0.269  -2.763  -1.524  0.00  0.00    -0.389 OA
BRANCH   7  10
ATOM     10  O   UNL     1       1.391  -5.278  -0.793  0.00  0.00    -0.387 OA
ATOM     11  H   UNL     1       2.120  -5.371  -1.423  0.00  0.00    +0.210 HD
ENDBRANCH   7  10
BRANCH   6  12
ATOM     12  O   UNL     1      -0.894  -6.141   0.575  0.00  0.00    -0.387 OA
ATOM     13  H   UNL     1      -1.039  -6.998   0.151  0.00  0.00    +0.210 HD
ENDBRANCH   6  12
BRANCH   5  14
ATOM     14  O   UNL     1       0.540  -3.797   1.117  0.00  0.00    -0.389 OA
ATOM     15  H   UNL     1       0.613  -4.521   1.753  0.00  0.00    +0.210 HD
ENDBRANCH   5  14
ENDBRANCH   1   4
BRANCH   1  17
ATOM     16  C   UNL     1      -1.786   0.269  -1.097  0.00  0.00    -0.010 C 
ATOM     17  C   UNL     1      -0.370  -0.192  -0.746  0.00  0.00    -0.035 C 
BRANCH  17  18
ATOM     18  C   UNL     1       0.401   0.968  -0.113  0.00  0.00    +0.131 C 
BRANCH  18  19
ATOM     19  C   UNL     1       1.756   0.484   0.336  0.00  0.00    -0.021 A 
ATOM     20  C   UNL     1       1.933   0.024   1.627  0.00  0.00    +0.006 A 
ATOM     21  C   UNL     1       3.176  -0.419   2.039  0.00  0.00    +0.000 A 
ATOM     22  C   UNL     1       4.242  -0.404   1.159  0.00  0.00    +0.000 A 
ATOM     23  C   UNL     1       4.065   0.056  -0.133  0.00  0.00    +0.000 A 
ATOM     24  C   UNL     1       2.821   0.495  -0.546  0.00  0.00    +0.006 A 
ENDBRANCH  18  19
BRANCH  18  25
ATOM     25  O   UNL     1      -0.325   1.464   1.014  0.00  0.00    -0.389 OA
ATOM     26  H   UNL     1      -0.168   0.970   1.831  0.00  0.00    +0.210 HD
ENDBRANCH  18  25
ENDBRANCH  17  18
ENDBRANCH   1  17
TORSDOF 8
