REMARK  Name = ZINC05379137
REMARK  8 active torsions:
REMARK  status: ('A' for Active; 'I' for Inactive)
REMARK    1  A    between atoms: C_1  and  C_2
REMARK    2  A    between atoms: C_2  and  C_4
REMARK    3  A    between atoms: C_6  and  C_29
REMARK    4  A    between atoms: C_11  and  C_28
REMARK    5  A    between atoms: C_22  and  C_27
REMARK    6  A    between atoms: C_29  and  C_31
REMARK    7  A    between atoms: C_29  and  C_33
REMARK    8  A    between atoms: C_33  and  N_35
REMARK                            x       y       z     vdW  Elec       q    Type
REMARK                         _______ _______ _______ _____ _____    ______ ____
ROOT
ATOM      1  C   UNL     1       2.315   0.507   1.385  0.00  0.00    +0.066 C 
ATOM      2  C   UNL     1       2.546   1.479   0.203  0.00  0.00    +0.023 C 
ATOM      3  C   UNL     1       3.909   2.179   0.469  0.00  0.00    +0.010 C 
ATOM      4  C   UNL     1       4.608   1.168   1.389  0.00  0.00    -0.001 C 
ATOM      5  C   UNL     1       3.474   0.793   2.364  0.00  0.00    -0.019 C 
ATOM      6  C   UNL     1       3.905  -0.392   3.191  0.00  0.00    +0.008 C 
ATOM      7  C   UNL     1       5.276  -0.157   3.830  0.00  0.00    +0.005 C 
ATOM      8  C   UNL     1       5.860   1.218   3.566  0.00  0.00    -0.001 C 
ATOM      9  C   UNL     1       5.857   1.599   2.091  0.00  0.00    -0.004 C 
ATOM     10  C   UNL     1       6.156   3.087   1.920  0.00  0.00    +0.004 C 
ATOM     11  C   UNL     1       7.342   3.473   2.818  0.00  0.00    +0.004 C 
ATOM     12  C   UNL     1       8.107   2.206   3.167  0.00  0.00    -0.005 C 
ATOM     13  C   UNL     1       7.290   1.322   4.109  0.00  0.00    -0.026 C 
ATOM     14  C   UNL     1       7.977  -0.033   4.223  0.00  0.00    +0.007 C 
ATOM     15  C   UNL     1       9.394   0.155   4.772  0.00  0.00    +0.001 C 
ATOM     16  C   UNL     1      10.206   1.122   3.918  0.00  0.00    +0.000 C 
ATOM     17  C   UNL     1       9.485   2.466   3.756  0.00  0.00    +0.004 C 
ATOM     18  C   UNL     1       7.199   1.962   5.496  0.00  0.00    +0.012 C 
ATOM     19  C   UNL     1       3.027   1.956   3.249  0.00  0.00    +0.012 C 
ENDROOT
BRANCH   1  21
ATOM     20  C   UNL     1      -0.056  -0.279   2.133  0.00  0.00    +0.086 C 
ATOM     21  C   UNL     1       0.999   0.794   2.054  0.00  0.00    +0.134 C 
ATOM     22  O   UNL     1       0.788   1.884   2.529  0.00  0.00    -0.297 OA
ENDBRANCH   1  21
BRANCH   2  23
ATOM     23  C   UNL     1       1.424   2.513   0.131  0.00  0.00    +0.146 C 
BRANCH  23  24
ATOM     24  C   UNL     1       1.742   3.513  -0.901  0.00  0.00    +0.073 C 
ATOM     25  N   UNL     1       1.988   4.285  -1.698  0.00  0.00    -0.196 NA
ENDBRANCH  23  24
BRANCH  23  26
ATOM     26  C   UNL     1       0.129   1.826  -0.218  0.00  0.00    +0.064 C 
ATOM     27  S   UNL     1       0.149   0.357  -0.850  0.00  0.00    -0.039 S 
BRANCH  26  28
ATOM     28  N   UNL     1      -1.045   2.451  -0.002  0.00  0.00    -0.354 N 
ATOM     29  H   UNL     1      -1.879   2.010  -0.231  0.00  0.00    +0.143 HD
ATOM     30  H   UNL     1      -1.057   3.342   0.382  0.00  0.00    +0.143 HD
ENDBRANCH  26  28
ENDBRANCH  23  26
ENDBRANCH   2  23
TORSDOF 5
