REMARK  Name = ZINC42634368
REMARK  9 active torsions:
REMARK  status: ('A' for Active; 'I' for Inactive)
REMARK    1  A    between atoms: C_1  and  C_2
REMARK    2  A    between atoms: C_2  and  C_4
REMARK    3  A    between atoms: C_2  and  N_11
REMARK    4  A    between atoms: N_6  and  C_7
REMARK    5  A    between atoms: C_7  and  C_8
REMARK    6  A    between atoms: C_7  and  C_9
REMARK    7  A    between atoms: C_7  and  C_10
REMARK    8  A    between atoms: N_14  and  S_17
REMARK    9  A    between atoms: S_17  and  N_20
REMARK                            x       y       z     vdW  Elec       q    Type
REMARK                         _______ _______ _______ _____ _____    ______ ____
ROOT
ATOM      1  N   UNL     1      -1.376  -0.512   0.012  0.00  0.00    -0.289 NA
ATOM      2  C   UNL     1      -2.123  -0.032  -1.157  0.00  0.00    +0.102 C 
ATOM      3  C   UNL     1      -3.490  -0.724  -1.206  0.00  0.00    +0.126 C 
ATOM      4  N   UNL     1      -4.162  -0.524   0.086  0.00  0.00    -0.164 NA
ATOM      5  C   UNL     1      -3.422  -0.856   1.314  0.00  0.00    +0.126 C 
ATOM      6  C   UNL     1      -2.059  -0.158   1.264  0.00  0.00    +0.102 C 
ENDROOT
BRANCH   4   7
ATOM      7  S   UNL     1      -5.710   0.058   0.158  0.00  0.00    +0.095 S 
ATOM      8  O   UNL     1      -5.862   0.651   1.441  0.00  0.00    -0.141 OA
ATOM      9  O   UNL     1      -5.929   0.780  -1.046  0.00  0.00    -0.141 OA
BRANCH   7  10
ATOM     10  N   UNL     1      -6.727  -1.249   0.118  0.00  0.00    -0.193 NA
ATOM     11  H   UNL     1      -6.362  -2.146   0.061  0.00  0.00    +0.145 HD
ATOM     12  H   UNL     1      -7.687  -1.117   0.150  0.00  0.00    +0.145 HD
ENDBRANCH   7  10
ENDBRANCH   4   7
BRANCH   1  14
ATOM     13  C   UNL     1      -0.019   1.526   0.010  0.00  0.00    +0.034 C 
ATOM     14  C   UNL     1       0.002  -0.004   0.002  0.00  0.00    +0.140 C 
BRANCH  14  15
ATOM     15  C   UNL     1       0.707  -0.490  -1.238  0.00  0.00    +0.230 C 
ATOM     16  O   UNL     1       0.120  -1.191  -2.034  0.00  0.00    -0.274 OA
ATOM     17  N   UNL     1       1.991  -0.146  -1.462  0.00  0.00    -0.309 N 
ATOM     18  H   UNL     1       2.461   0.415  -0.825  0.00  0.00    +0.149 HD
BRANCH  17  19
ATOM     19  C   UNL     1       2.677  -0.618  -2.667  0.00  0.00    +0.026 C 
ATOM     20  C   UNL     1       1.937  -0.111  -3.906  0.00  0.00    +0.031 C 
ATOM     21  C   UNL     1       4.112  -0.089  -2.678  0.00  0.00    +0.031 C 
ATOM     22  C   UNL     1       2.698  -2.148  -2.675  0.00  0.00    +0.031 C 
ENDBRANCH  17  19
ENDBRANCH  14  15
ENDBRANCH   1  14
TORSDOF 5
