REMARK  Name = ZINC56863324
REMARK  8 active torsions:
REMARK  status: ('A' for Active; 'I' for Inactive)
REMARK    1  A    between atoms: C_1  and  C_2
REMARK    2  A    between atoms: C_2  and  C_4
REMARK    3  A    between atoms: C_2  and  N_13
REMARK    4  A    between atoms: N_6  and  C_7
REMARK    5  A    between atoms: C_7  and  C_8
REMARK    6  A    between atoms: C_8  and  S_9
REMARK    7  A    between atoms: S_9  and  N_12
REMARK    8  A    between atoms: C_14  and  C_16
REMARK                            x       y       z     vdW  Elec       q    Type
REMARK                         _______ _______ _______ _____ _____    ______ ____
ROOT
ATOM      1  C   UNL     1      -0.019   1.526   0.010  0.00  0.00    +0.038 C 
ATOM      2  C   UNL     1       0.002  -0.004   0.002  0.00  0.00    +0.156 C 
ENDROOT
BRANCH   2   3
ATOM      3  C   UNL     1      -1.412  -0.526   0.013  0.00  0.00    +0.233 C 
ATOM      4  O   UNL     1      -1.790  -1.233   0.922  0.00  0.00    -0.274 OA
ATOM      5  N   UNL     1      -2.256  -0.206  -0.988  0.00  0.00    -0.312 N 
ATOM      6  H   UNL     1      -1.953   0.360  -1.716  0.00  0.00    +0.149 HD
BRANCH   5   7
ATOM      7  C   UNL     1      -3.630  -0.713  -0.978  0.00  0.00    +0.128 C 
BRANCH   7   8
ATOM      8  C   UNL     1      -4.370  -0.206  -2.217  0.00  0.00    +0.203 C 
BRANCH   8   9
ATOM      9  S   UNL     1      -6.072  -0.834  -2.205  0.00  0.00    +0.028 S 
ATOM     10  O   UNL     1      -6.075  -2.243  -2.392  0.00  0.00    -0.158 OA
ATOM     11  O   UNL     1      -6.803  -0.243  -1.139  0.00  0.00    -0.158 OA
BRANCH   9  12
ATOM     12  N   UNL     1      -6.761  -0.223  -3.581  0.00  0.00    -0.208 NA
ATOM     13  H   UNL     1      -7.465  -0.716  -4.031  0.00  0.00    +0.144 HD
ATOM     14  H   UNL     1      -6.461   0.628  -3.937  0.00  0.00    +0.144 HD
ENDBRANCH   9  12
ENDBRANCH   8   9
ENDBRANCH   7   8
ENDBRANCH   5   7
ENDBRANCH   2   3
BRANCH   2  15
ATOM     15  N   UNL     1       0.711  -0.489   1.189  0.00  0.00    -0.300 N 
ATOM     16  C   UNL     1       2.054  -0.600   1.174  0.00  0.00    +0.251 C 
ATOM     17  O   UNL     1       2.678  -0.296   0.174  0.00  0.00    -0.270 OA
ATOM     18  H   UNL     1       0.213  -0.731   1.986  0.00  0.00    +0.150 HD
BRANCH  16  19
ATOM     19  C   UNL     1       2.762  -1.085   2.361  0.00  0.00    +0.075 A 
ATOM     20  C   UNL     1       4.124  -1.265   2.553  0.00  0.00    +0.022 A 
ATOM     21  C   UNL     1       4.495  -1.740   3.787  0.00  0.00    +0.024 A 
ATOM     22  C   UNL     1       3.534  -1.995   4.712  0.00  0.00    +0.056 A 
ATOM     23  S   UNL     1       2.099  -1.591   3.936  0.00  0.00    -0.077 S 
ATOM     24 BR   UNL     1       3.759  -2.648   6.472  0.00  0.00    -0.043 Br
ENDBRANCH  16  19
ENDBRANCH   2  15
TORSDOF 7
