REMARK  Name = ZINC44452663
REMARK  4 active torsions:
REMARK  status: ('A' for Active; 'I' for Inactive)
REMARK    1  A    between atoms: C_6  and  N_14
REMARK    2  A    between atoms: C_7  and  C_8
REMARK    3  A    between atoms: C_15  and  C_17
REMARK    4  A    between atoms: C_17  and  N_18
REMARK                            x       y       z     vdW  Elec       q    Type
REMARK                         _______ _______ _______ _____ _____    ______ ____
ROOT
ATOM      1  C   UNL     1      -0.019   1.541   0.011  0.00  0.00    +0.010 C 
ATOM      2  C   UNL     1       1.486   1.876  -0.002  0.00  0.00    +0.037 C 
ATOM      3  C   UNL     1       2.176   0.671   0.633  0.00  0.00    -0.023 A 
ATOM      4  C   UNL     1       1.324  -0.370   0.621  0.00  0.00    -0.004 A 
ATOM      5  S   UNL     1       2.228  -1.699   1.373  0.00  0.00    -0.077 S 
ATOM      6  C   UNL     1       3.676  -0.917   1.697  0.00  0.00    +0.084 A 
ATOM      7  C   UNL     1       3.477   0.369   1.229  0.00  0.00    +0.069 A 
ATOM      8  C   UNL     1       0.002  -0.004   0.002  0.00  0.00    +0.043 C 
ENDROOT
BRANCH   7   9
ATOM      9  C   UNL     1       4.526   1.387   1.327  0.00  0.00    +0.254 C 
ATOM     10  O   UNL     1       4.595   2.097   2.313  0.00  0.00    -0.270 OA
ATOM     11  N   UNL     1       5.415   1.538   0.325  0.00  0.00    -0.236 N 
ATOM     12  C   UNL     1       6.380   2.474   0.415  0.00  0.00    +0.304 C 
ATOM     13  O   UNL     1       6.449   3.183   1.399  0.00  0.00    -0.253 OA
ATOM     14  N   UNL     1       7.268   2.625  -0.588  0.00  0.00    -0.313 N 
ATOM     15  H   UNL     1       5.360   0.972  -0.461  0.00  0.00    +0.159 HD
ATOM     16  H   UNL     1       7.213   2.059  -1.374  0.00  0.00    +0.146 HD
ATOM     17  H   UNL     1       7.963   3.299  -0.523  0.00  0.00    +0.146 HD
ENDBRANCH   7   9
BRANCH   6  18
ATOM     18  N   UNL     1       4.811  -1.440   2.297  0.00  0.00    -0.278 N 
ATOM     19  C   UNL     1       4.831  -2.728   2.696  0.00  0.00    +0.235 C 
ATOM     20  O   UNL     1       3.855  -3.428   2.530  0.00  0.00    -0.274 OA
ATOM     21  H   UNL     1       5.592  -0.880   2.429  0.00  0.00    +0.155 HD
BRANCH  19  22
ATOM     22  C   UNL     1       6.065  -3.296   3.348  0.00  0.00    +0.212 C 
BRANCH  22  23
ATOM     23  N   UNL     1       5.835  -4.703   3.686  0.00  0.00    -0.233 N 
ATOM     24  C   UNL     1       5.323  -5.091   4.861  0.00  0.00    +0.223 C 
ATOM     25  O   UNL     1       4.997  -4.351   5.764  0.00  0.00    -0.275 OA
ATOM     26  C   UNL     1       5.217  -6.600   4.883  0.00  0.00    +0.105 C 
ATOM     27  C   UNL     1       5.761  -7.021   3.503  0.00  0.00    +0.105 C 
ATOM     28  C   UNL     1       6.112  -5.705   2.844  0.00  0.00    +0.223 C 
ATOM     29  O   UNL     1       6.575  -5.579   1.730  0.00  0.00    -0.275 OA
ENDBRANCH  22  23
ENDBRANCH  19  22
ENDBRANCH   6  18
TORSDOF 4
