REMARK  Name = ZINC44807069
REMARK  6 active torsions:
REMARK  status: ('A' for Active; 'I' for Inactive)
REMARK    1  A    between atoms: C_4  and  C_7
REMARK    2  A    between atoms: C_7  and  C_8
REMARK    3  A    between atoms: C_8  and  C_10
REMARK    4  A    between atoms: C_8  and  C_12
REMARK    5  A    between atoms: C_10  and  N_11
REMARK    6  A    between atoms: C_19  and  C_21
REMARK                            x       y       z     vdW  Elec       q    Type
REMARK                         _______ _______ _______ _____ _____    ______ ____
ROOT
ATOM      1  C   UNL     1       4.104  -0.882   1.042  0.00  0.00    +0.062 C 
ENDROOT
BRANCH   1   2
ATOM      2  C   UNL     1       5.344  -1.732   1.148  0.00  0.00    +0.218 C 
ATOM      3  O   UNL     1       5.275  -2.930   0.968  0.00  0.00    -0.275 OA
ATOM      4  N   UNL     1       6.529  -1.163   1.444  0.00  0.00    -0.290 N 
ATOM      5  C   UNL     1       6.652   0.298   1.546  0.00  0.00    +0.108 C 
ATOM      6  C   UNL     1       7.274   0.647   2.902  0.00  0.00    +0.019 C 
ATOM      7  C   UNL     1       8.595  -0.108   3.062  0.00  0.00    +0.004 C 
ATOM      8  C   UNL     1       8.331  -1.615   3.026  0.00  0.00    +0.032 C 
ATOM      9  C   UNL     1       7.720  -1.990   1.677  0.00  0.00    +0.162 C 
BRANCH   9  10
ATOM     10  C   UNL     1       7.330  -3.446   1.689  0.00  0.00    +0.231 C 
ATOM     11  O   UNL     1       6.536  -3.854   2.510  0.00  0.00    -0.274 OA
ATOM     12  N   UNL     1       7.862  -4.294   0.787  0.00  0.00    -0.328 N 
ATOM     13  H   UNL     1       8.497  -3.967   0.130  0.00  0.00    +0.145 HD
ATOM     14  H   UNL     1       7.611  -5.230   0.794  0.00  0.00    +0.145 HD
ENDBRANCH   9  10
ENDBRANCH   1   2
BRANCH   1  15
ATOM     15  C   UNL     1       3.952  -0.380  -0.396  0.00  0.00    +0.046 C 
BRANCH  15  19
ATOM     16  C   UNL     1       0.641   2.308  -0.625  0.00  0.00    +0.000 A 
ATOM     17  C   UNL     1       1.905   2.791  -0.344  0.00  0.00    +0.000 A 
ATOM     18  C   UNL     1       2.977   1.921  -0.269  0.00  0.00    +0.003 A 
ATOM     19  C   UNL     1       2.784   0.568  -0.476  0.00  0.00    -0.047 A 
ATOM     20  C   UNL     1       1.519   0.085  -0.756  0.00  0.00    +0.003 A 
ATOM     21  C   UNL     1       0.448   0.955  -0.832  0.00  0.00    +0.000 A 
ENDBRANCH  15  19
ENDBRANCH   1  15
BRANCH   1  22
ATOM     22  C   UNL     1       2.879  -1.715   1.423  0.00  0.00    -0.073 C 
BRANCH  22  23
ATOM     23  N   UNL     1       2.961  -2.085   2.843  0.00  0.00    +0.379 N 
ATOM     24  H   UNL     1       2.192  -2.694   3.077  0.00  0.00    -0.090 HD
ATOM     25  H   UNL     1       3.833  -2.562   3.016  0.00  0.00    -0.090 HD
ATOM     26  H   UNL     1       2.915  -1.252   3.410  0.00  0.00    -0.090 HD
ENDBRANCH  22  23
ENDBRANCH   1  22
TORSDOF 6
