REMARK  Name = ZINC67591928
REMARK  9 active torsions:
REMARK  status: ('A' for Active; 'I' for Inactive)
REMARK    1  A    between atoms: C_3  and  C_27
REMARK    2  A    between atoms: C_6  and  C_7
REMARK    3  A    between atoms: C_7  and  N_8
REMARK    4  A    between atoms: N_11  and  C_12
REMARK    5  A    between atoms: C_12  and  C_13
REMARK    6  A    between atoms: C_13  and  C_15
REMARK    7  A    between atoms: C_13  and  O_26
REMARK    8  A    between atoms: C_15  and  O_16
REMARK    9  A    between atoms: O_16  and  C_17
REMARK                            x       y       z     vdW  Elec       q    Type
REMARK                         _______ _______ _______ _____ _____    ______ ____
ROOT
ATOM      1  N   UNL     1      -1.729  -1.013  -1.367  0.00  0.00    -0.295 N 
ATOM      2  C   UNL     1      -2.871  -1.687  -1.606  0.00  0.00    +0.300 C 
ATOM      3  O   UNL     1      -3.542  -2.094  -0.677  0.00  0.00    -0.253 OA
ATOM      4  N   UNL     1      -3.271  -1.909  -2.874  0.00  0.00    -0.297 N 
ATOM      5  H   UNL     1      -1.194  -0.688  -2.108  0.00  0.00    +0.151 HD
ATOM      6  H   UNL     1      -2.735  -1.584  -3.615  0.00  0.00    +0.150 HD
ENDROOT
BRANCH   1   7
ATOM      7  C   UNL     1      -1.295  -0.772   0.011  0.00  0.00    +0.141 C 
BRANCH   7  13
ATOM      8  C   UNL     1      -0.017   1.379   0.010  0.00  0.00    +0.006 A 
ATOM      9  C   UNL     1       1.167   2.088   0.002  0.00  0.00    +0.019 A 
ATOM     10  C   UNL     1       2.385   1.407  -0.013  0.00  0.00    +0.052 A 
ATOM     11  C   UNL     1       2.397   0.011  -0.021  0.00  0.00    +0.019 A 
ATOM     12  C   UNL     1       1.206  -0.686  -0.013  0.00  0.00    +0.006 A 
ATOM     13  C   UNL     1       0.002  -0.004   0.002  0.00  0.00    -0.030 A 
BRANCH  10  14
ATOM     14  C   UNL     1       3.617   2.136  -0.021  0.00  0.00    +0.099 C 
ATOM     15  N   UNL     1       4.595   2.715  -0.028  0.00  0.00    -0.191 NA
ENDBRANCH  10  14
ENDBRANCH   7  13
ENDBRANCH   1   7
BRANCH   4  16
ATOM     16  C   UNL     1      -4.513  -2.641  -3.133  0.00  0.00    +0.140 C 
BRANCH  16  17
ATOM     17  C   UNL     1      -4.732  -2.754  -4.643  0.00  0.00    +0.169 C 
BRANCH  17  18
ATOM     18  O   UNL     1      -4.823  -1.446  -5.211  0.00  0.00    -0.387 OA
ATOM     19  H   UNL     1      -5.548  -0.913  -4.856  0.00  0.00    +0.210 HD
ENDBRANCH  17  18
BRANCH  17  20
ATOM     20  C   UNL     1      -6.029  -3.519  -4.914  0.00  0.00    +0.261 C 
BRANCH  20  21
ATOM     21  O   UNL     1      -6.176  -3.726  -6.320  0.00  0.00    -0.489 OA
BRANCH  21  22
ATOM     22  C   UNL     1      -7.284  -4.396  -6.734  0.00  0.00    +0.124 A 
ATOM     23  C   UNL     1      -8.214  -4.839  -5.804  0.00  0.00    +0.049 A 
ATOM     24  C   UNL     1      -9.341  -5.520  -6.222  0.00  0.00    +0.053 A 
ATOM     25  C   UNL     1      -9.547  -5.762  -7.571  0.00  0.00    +0.166 A 
ATOM     26  C   UNL     1      -8.615  -5.319  -8.506  0.00  0.00    +0.170 A 
ATOM     27  C   UNL     1      -7.488  -4.631  -8.085  0.00  0.00    +0.095 A 
ATOM     28  O   UNL     1      -9.042  -5.678  -9.752  0.00  0.00    -0.452 OA
ATOM     29  C   UNL     1     -10.034  -6.699  -9.538  0.00  0.00    +0.466 C 
ATOM     30  O   UNL     1     -10.558  -6.399  -8.231  0.00  0.00    -0.453 OA
ENDBRANCH  21  22
ENDBRANCH  20  21
ENDBRANCH  17  20
ENDBRANCH  16  17
ENDBRANCH   4  16
TORSDOF 9
