REMARK  Name = ZINC53036926
REMARK  4 active torsions:
REMARK  status: ('A' for Active; 'I' for Inactive)
REMARK    1  A    between atoms: C_1  and  C_2
REMARK    2  A    between atoms: C_5  and  C_7
REMARK    3  A    between atoms: C_7  and  N_8
REMARK    4  A    between atoms: N_8  and  C_9
REMARK                            x       y       z     vdW  Elec       q    Type
REMARK                         _______ _______ _______ _____ _____    ______ ____
ROOT
ATOM      1  C   UNL     1       2.901  -4.767  -1.460  0.00  0.00    +0.174 C 
ATOM      2  C   UNL     1       3.638  -4.799  -2.779  0.00  0.00    +0.003 A 
ATOM      3  C   UNL     1       4.503  -3.919  -3.390  0.00  0.00    +0.046 A 
ATOM      4  C   UNL     1       5.036  -4.224  -4.632  0.00  0.00    +0.125 A 
ATOM      5  C   UNL     1       4.695  -5.413  -5.254  0.00  0.00    +0.055 A 
ATOM      6  C   UNL     1       3.829  -6.296  -4.642  0.00  0.00    +0.042 A 
ATOM      7  C   UNL     1       3.289  -5.995  -3.393  0.00  0.00    +0.053 A 
ATOM      8  N   UNL     1       2.405  -6.713  -2.583  0.00  0.00    -0.283 N 
ATOM      9  C   UNL     1       2.127  -6.067  -1.434  0.00  0.00    +0.239 C 
ATOM     10  O   UNL     1       1.395  -6.453  -0.547  0.00  0.00    -0.273 OA
ATOM     11 BR   UNL     1       3.372  -7.917  -5.502  0.00  0.00    -0.048 Br
ATOM     12  F   UNL     1       5.885  -3.363  -5.235  0.00  0.00    -0.205 F 
ATOM     13  H   UNL     1       2.034  -7.577  -2.821  0.00  0.00    +0.155 HD
ENDROOT
BRANCH   1  14
ATOM     14  N   UNL     1       1.984  -3.621  -1.411  0.00  0.00    -0.295 NA
ATOM     15  H   UNL     1       1.137  -3.813  -1.924  0.00  0.00    +0.123 HD
BRANCH  14  16
ATOM     16  C   UNL     1       1.684  -3.245  -0.023  0.00  0.00    +0.156 C 
BRANCH  16  21
ATOM     17  C   UNL     1      -0.018   1.503   0.010  0.00  0.00    +0.086 C 
ATOM     18  C   UNL     1       0.002  -0.004   0.002  0.00  0.00    +0.102 A 
ATOM     19  C   UNL     1      -1.078  -0.805   0.003  0.00  0.00    +0.044 A 
ATOM     20  C   UNL     1      -0.601  -2.136  -0.007  0.00  0.00    +0.046 A 
ATOM     21  C   UNL     1       0.742  -2.069  -0.013  0.00  0.00    +0.119 A 
ATOM     22  O   UNL     1       1.102  -0.775  -0.013  0.00  0.00    -0.464 OA
ENDBRANCH  16  21
ENDBRANCH  14  16
ENDBRANCH   1  14
TORSDOF 3
