REMARK  Name = ZINC37783944
REMARK  3 active torsions:
REMARK  status: ('A' for Active; 'I' for Inactive)
REMARK    1  A    between atoms: C_9  and  N_11
REMARK    2  A    between atoms: N_11  and  C_12
REMARK    3  A    between atoms: C_12  and  C_13
REMARK                            x       y       z     vdW  Elec       q    Type
REMARK                         _______ _______ _______ _____ _____    ______ ____
ROOT
ATOM      1  C   UNL     1      -0.017   1.384   0.010  0.00  0.00    +0.004 A 
ATOM      2  C   UNL     1       1.157   2.102   0.002  0.00  0.00    +0.028 A 
ATOM      3  C   UNL     1       2.381   1.437  -0.013  0.00  0.00    +0.067 A 
ATOM      4  C   UNL     1       2.411   0.031  -0.021  0.00  0.00    +0.040 A 
ATOM      5  C   UNL     1       3.773  -0.352  -0.036  0.00  0.00    +0.144 A 
ATOM      6  N   UNL     1       4.508   0.723  -0.037  0.00  0.00    -0.181 NA
ATOM      7  N   UNL     1       3.687   1.857  -0.023  0.00  0.00    -0.277 N 
ATOM      8  H   UNL     1       3.989   2.779  -0.022  0.00  0.00    +0.189 HD
ATOM      9  C   UNL     1       1.203  -0.688  -0.013  0.00  0.00    +0.038 A 
ATOM     10  C   UNL     1       0.002  -0.004   0.002  0.00  0.00    +0.024 A 
ENDROOT
BRANCH   9  11
ATOM     11  N   UNL     1       1.216  -2.082  -0.021  0.00  0.00    -0.336 N 
ATOM     12  H   UNL     1       2.060  -2.559  -0.032  0.00  0.00    +0.147 HD
BRANCH  11  13
ATOM     13  C   UNL     1      -0.046  -2.826  -0.013  0.00  0.00    +0.176 C 
BRANCH  13  14
ATOM     14  C   UNL     1       0.243  -4.305  -0.024  0.00  0.00    +0.123 A 
ATOM     15  C   UNL     1       0.399  -5.084   1.061  0.00  0.00    +0.047 A 
ATOM     16  C   UNL     1       0.654  -6.394   0.592  0.00  0.00    +0.056 A 
ATOM     17  C   UNL     1       0.638  -6.337  -0.752  0.00  0.00    +0.165 A 
ATOM     18  O   UNL     1       0.383  -5.070  -1.120  0.00  0.00    -0.453 OA
ATOM     19  I   UNL     1       0.949  -7.950  -2.052  0.00  0.00    -0.001 I 
ENDBRANCH  13  14
ENDBRANCH  11  13
ENDBRANCH   9  11
TORSDOF 3
