REMARK  Name = ZINC48795423
REMARK  9 active torsions:
REMARK  status: ('A' for Active; 'I' for Inactive)
REMARK    1  A    between atoms: C_1  and  C_2
REMARK    2  A    between atoms: C_2  and  C_4
REMARK    3  A    between atoms: C_2  and  O_10
REMARK    4  A    between atoms: O_10  and  C_11
REMARK    5  A    between atoms: C_12  and  C_18
REMARK    6  A    between atoms: C_18  and  N_19
REMARK    7  A    between atoms: N_19  and  C_20
REMARK    8  A    between atoms: C_20  and  C_21
REMARK    9  A    between atoms: C_20  and  C_22
REMARK                            x       y       z     vdW  Elec       q    Type
REMARK                         _______ _______ _______ _____ _____    ______ ____
ROOT
ATOM      1  C   UNL     1       2.132  -0.558  -0.652  0.00  0.00    +0.137 A 
ATOM      2  C   UNL     1       2.758   0.635  -0.986  0.00  0.00    -0.022 A 
ATOM      3  C   UNL     1       4.136   0.726  -0.945  0.00  0.00    +0.005 A 
ATOM      4  C   UNL     1       4.892  -0.370  -0.572  0.00  0.00    +0.002 A 
ATOM      5  C   UNL     1       4.272  -1.560  -0.238  0.00  0.00    +0.019 A 
ATOM      6  C   UNL     1       2.893  -1.655  -0.272  0.00  0.00    +0.060 A 
ATOM      7 BR   UNL     1       2.044  -3.280   0.192  0.00  0.00    -0.047 Br
ENDROOT
BRANCH   1   8
ATOM      8  O   UNL     1       0.777  -0.649  -0.691  0.00  0.00    -0.479 OA
BRANCH   8  10
ATOM      9  C   UNL     1       0.104  -2.428  -2.183  0.00  0.00    +0.062 C 
ATOM     10  C   UNL     1       0.181  -0.916  -1.963  0.00  0.00    +0.256 C 
BRANCH  10  11
ATOM     11  C   UNL     1      -1.207  -0.331  -2.000  0.00  0.00    +0.261 C 
ATOM     12  O   UNL     1      -1.678   0.176  -1.004  0.00  0.00    -0.271 OA
ATOM     13  N   UNL     1      -1.925  -0.372  -3.139  0.00  0.00    -0.237 N 
ATOM     14  C   UNL     1      -3.167   0.151  -3.172  0.00  0.00    +0.303 C 
ATOM     15  O   UNL     1      -3.639   0.659  -2.174  0.00  0.00    -0.253 OA
ATOM     16  N   UNL     1      -3.885   0.110  -4.312  0.00  0.00    -0.313 N 
ATOM     17  H   UNL     1      -1.548  -0.778  -3.936  0.00  0.00    +0.159 HD
ATOM     18  H   UNL     1      -3.509  -0.295  -5.108  0.00  0.00    +0.146 HD
ATOM     19  H   UNL     1      -4.779   0.487  -4.336  0.00  0.00    +0.146 HD
ENDBRANCH  10  11
ENDBRANCH   8  10
ENDBRANCH   1   8
BRANCH   2  20
ATOM     20  C   UNL     1       1.935   1.830  -1.393  0.00  0.00    -0.043 C 
BRANCH  20  21
ATOM     21  N   UNL     1       1.367   2.464  -0.196  0.00  0.00    +0.383 N 
ATOM     22  H   UNL     1       0.712   1.833   0.240  0.00  0.00    -0.085 HD
ATOM     23  H   UNL     1       2.108   2.681   0.453  0.00  0.00    -0.085 HD
BRANCH  21  24
ATOM     24  C   UNL     1       0.674   3.701  -0.580  0.00  0.00    -0.078 C 
ATOM     25  C   UNL     1      -0.518   3.361  -1.477  0.00  0.00    -0.014 C 
ATOM     26  C   UNL     1       0.179   4.419   0.677  0.00  0.00    -0.014 C 
ENDBRANCH  21  24
ENDBRANCH  20  21
ENDBRANCH   2  20
TORSDOF 6
