REMARK  Name = ZINC66992937
REMARK  9 active torsions:
REMARK  status: ('A' for Active; 'I' for Inactive)
REMARK    1  A    between atoms: C_4  and  O_22
REMARK    2  A    between atoms: C_5  and  C_7
REMARK    3  A    between atoms: C_7  and  N_8
REMARK    4  A    between atoms: N_8  and  C_9
REMARK    5  A    between atoms: C_9  and  C_10
REMARK    6  A    between atoms: C_10  and  C_12
REMARK    7  A    between atoms: C_10  and  O_21
REMARK    8  A    between atoms: C_12  and  O_13
REMARK    9  A    between atoms: O_13  and  C_14
REMARK                            x       y       z     vdW  Elec       q    Type
REMARK                         _______ _______ _______ _____ _____    ______ ____
ROOT
ATOM      1  C   UNL     1       1.507  -4.150   1.328  0.00  0.00    -0.047 C 
ENDROOT
BRANCH   1   2
ATOM      2  N   UNL     1       1.488  -2.681   1.337  0.00  0.00    +0.384 N 
ATOM      3  H   UNL     1       2.380  -2.334   1.655  0.00  0.00    -0.085 HD
ATOM      4  H   UNL     1       0.761  -2.357   1.958  0.00  0.00    -0.085 HD
BRANCH   2   5
ATOM      5  C   UNL     1       1.227  -2.187  -0.022  0.00  0.00    -0.043 C 
BRANCH   5  10
ATOM      6  C   UNL     1      -0.017   1.378   0.010  0.00  0.00    +0.000 A 
ATOM      7  C   UNL     1       1.170   2.088   0.002  0.00  0.00    +0.004 A 
ATOM      8  C   UNL     1       2.377   1.417  -0.013  0.00  0.00    +0.045 A 
ATOM      9  C   UNL     1       2.399   0.030  -0.021  0.00  0.00    +0.118 A 
ATOM     10  C   UNL     1       1.207  -0.680  -0.013  0.00  0.00    -0.023 A 
ATOM     11  C   UNL     1       0.002  -0.004   0.002  0.00  0.00    +0.005 A 
BRANCH   9  12
ATOM     12  O   UNL     1       3.586  -0.632  -0.037  0.00  0.00    -0.507 OA
ATOM     13  H   UNL     1       3.938  -0.829   0.842  0.00  0.00    +0.292 HD
ENDBRANCH   9  12
ENDBRANCH   5  10
ENDBRANCH   2   5
ENDBRANCH   1   2
BRANCH   1  14
ATOM     14  C   UNL     1       1.778  -4.664   2.743  0.00  0.00    +0.135 C 
BRANCH  14  15
ATOM     15  O   UNL     1       3.042  -4.174   3.194  0.00  0.00    -0.390 OA
ATOM     16  H   UNL     1       3.789  -4.446   2.643  0.00  0.00    +0.210 HD
ENDBRANCH  14  15
BRANCH  14  17
ATOM     17  C   UNL     1       1.798  -6.194   2.735  0.00  0.00    +0.258 C 
BRANCH  17  18
ATOM     18  O   UNL     1       1.935  -6.676   4.073  0.00  0.00    -0.489 OA
BRANCH  18  19
ATOM     19  C   UNL     1       1.970  -8.024   4.242  0.00  0.00    +0.121 A 
ATOM     20  C   UNL     1       1.880  -8.865   3.142  0.00  0.00    +0.046 A 
ATOM     21  C   UNL     1       1.917 -10.235   3.317  0.00  0.00    +0.018 A 
ATOM     22  C   UNL     1       2.042 -10.769   4.587  0.00  0.00    +0.014 A 
ATOM     23  C   UNL     1       2.132  -9.932   5.685  0.00  0.00    +0.018 A 
ATOM     24  C   UNL     1       2.102  -8.562   5.514  0.00  0.00    +0.046 A 
ATOM     25  I   UNL     1       2.096 -12.847   4.848  0.00  0.00    -0.044 I 
ENDBRANCH  18  19
ENDBRANCH  17  18
ENDBRANCH  14  17
ENDBRANCH   1  14
TORSDOF 9
