REMARK  Name = ZINC16886515
REMARK  5 active torsions:
REMARK  status: ('A' for Active; 'I' for Inactive)
REMARK    1  A    between atoms: C_1  and  C_2
REMARK    2  A    between atoms: C_5  and  C_9
REMARK    3  A    between atoms: C_6  and  C_8
REMARK    4  A    between atoms: C_9  and  N_10
REMARK    5  A    between atoms: C_14  and  C_18
REMARK                            x       y       z     vdW  Elec       q    Type
REMARK                         _______ _______ _______ _____ _____    ______ ____
ROOT
ATOM      1  N   UNL     1       1.317  -0.623   0.024  0.00  0.00    -0.277 N 
ATOM      2  C   UNL     1       0.076  -0.107   0.144  0.00  0.00    +0.256 A 
ATOM      3  O   UNL     1      -0.889  -0.840   0.297  0.00  0.00    -0.268 OA
ATOM      4  C   UNL     1      -0.087   1.285   0.092  0.00  0.00    +0.098 A 
ATOM      5  C   UNL     1       1.036   2.080  -0.083  0.00  0.00    +0.080 A 
ATOM      6  N   UNL     1       2.243   1.509  -0.197  0.00  0.00    -0.216 NA
ATOM      7  C   UNL     1       2.386   0.202  -0.146  0.00  0.00    +0.196 A 
ATOM      8  N   UNL     1       3.638  -0.341  -0.267  0.00  0.00    -0.329 N 
ATOM      9  H   UNL     1       3.745  -1.302  -0.337  0.00  0.00    +0.145 HD
ATOM     10  H   UNL     1       4.417   0.236  -0.283  0.00  0.00    +0.145 HD
ENDROOT
BRANCH   5  11
ATOM     11  C   UNL     1       0.903   3.554  -0.143  0.00  0.00    +0.001 A 
ATOM     12  C   UNL     1      -0.354   4.149  -0.031  0.00  0.00    +0.010 A 
ATOM     13  C   UNL     1      -0.472   5.522  -0.083  0.00  0.00    +0.001 A 
ATOM     14  C   UNL     1       0.652   6.310  -0.257  0.00  0.00    +0.000 A 
ATOM     15  C   UNL     1       1.901   5.726  -0.374  0.00  0.00    +0.001 A 
ATOM     16  C   UNL     1       2.032   4.353  -0.319  0.00  0.00    +0.010 A 
ENDBRANCH   5  11
BRANCH   1  17
ATOM     17  C   UNL     1       1.514  -2.074   0.075  0.00  0.00    +0.163 C 
BRANCH  17  22
ATOM     18  C   UNL     1       1.221  -4.250  -5.270  0.00  0.00    +0.044 C 
ATOM     19  C   UNL     1       1.297  -3.683  -3.876  0.00  0.00    -0.050 A 
ATOM     20  C   UNL     1       1.258  -2.314  -3.683  0.00  0.00    +0.004 A 
ATOM     21  C   UNL     1       1.324  -1.794  -2.405  0.00  0.00    +0.006 A 
ATOM     22  C   UNL     1       1.438  -2.641  -1.319  0.00  0.00    -0.025 A 
ATOM     23  C   UNL     1       1.476  -4.010  -1.511  0.00  0.00    -0.045 A 
ATOM     24  C   UNL     1       1.406  -4.530  -2.789  0.00  0.00    +0.007 A 
ATOM     25  C   UNL     1       1.593  -4.934  -0.326  0.00  0.00    +0.044 C 
ENDBRANCH  17  22
ENDBRANCH   1  17
TORSDOF 3
