REMARK  Name = ZINC24229907
REMARK  7 active torsions:
REMARK  status: ('A' for Active; 'I' for Inactive)
REMARK    1  A    between atoms: C_1  and  C_2
REMARK    2  A    between atoms: N_5  and  C_11
REMARK    3  A    between atoms: C_7  and  C_10
REMARK    4  A    between atoms: C_11  and  C_13
REMARK    5  A    between atoms: C_11  and  C_14
REMARK    6  A    between atoms: N_19  and  C_20
REMARK    7  A    between atoms: C_20  and  C_21
REMARK                            x       y       z     vdW  Elec       q    Type
REMARK                         _______ _______ _______ _____ _____    ______ ____
ROOT
ATOM      1  C   UNL     1       1.364   1.698   0.014  0.00  0.00    +0.237 C 
ATOM      2  O   UNL     1       1.666   2.502   0.870  0.00  0.00    -0.274 OA
ATOM      3  N   UNL     1       2.260   1.353  -0.931  0.00  0.00    -0.239 N 
ATOM      4  C   UNL     1       3.491   1.901  -0.925  0.00  0.00    +0.306 C 
ATOM      5  O   UNL     1       3.794   2.706  -0.068  0.00  0.00    -0.252 OA
ATOM      6  N   UNL     1       4.387   1.555  -1.871  0.00  0.00    -0.291 N 
ATOM      7  H   UNL     1       1.986   0.623  -1.708  0.00  0.00    +0.159 HD
ATOM      8  H   UNL     1       4.113   0.826  -2.648  0.00  0.00    +0.151 HD
ENDROOT
BRANCH   1   9
ATOM      9  C   UNL     1      -0.013   1.086   0.008  0.00  0.00    +0.141 C 
ATOM     10  C   UNL     1      -0.846   1.715  -1.110  0.00  0.00    +0.034 C 
BRANCH   9  14
ATOM     11  C   UNL     1      -2.149   4.416   2.936  0.00  0.00    +0.039 C 
ATOM     12  C   UNL     1      -1.671   2.967   2.819  0.00  0.00    +0.130 C 
ATOM     13  C   UNL     1      -1.052   2.743   1.437  0.00  0.00    +0.116 C 
ATOM     14  N   UNL     1      -0.664   1.332   1.302  0.00  0.00    -0.287 NA
ATOM     15  C   UNL     1      -1.829   0.452   1.480  0.00  0.00    +0.116 C 
ATOM     16  C   UNL     1      -2.440   0.699   2.862  0.00  0.00    +0.130 C 
ATOM     17  O   UNL     1      -2.782   2.082   2.987  0.00  0.00    -0.371 OA
ATOM     18  C   UNL     1      -1.425   0.324   3.944  0.00  0.00    +0.039 C 
ENDBRANCH   9  14
ENDBRANCH   1   9
BRANCH   6  19
ATOM     19  C   UNL     1       5.726   2.150  -1.865  0.00  0.00    +0.219 C 
BRANCH  19  20
ATOM     20  C   UNL     1       6.538   1.592  -3.035  0.00  0.00    +0.405 C 
ATOM     21  F   UNL     1       5.895   1.901  -4.239  0.00  0.00    -0.169 F 
ATOM     22  F   UNL     1       7.816   2.160  -3.029  0.00  0.00    -0.169 F 
ATOM     23  F   UNL     1       6.645   0.203  -2.908  0.00  0.00    -0.169 F 
ENDBRANCH  19  20
ENDBRANCH   6  19
TORSDOF 4
