REMARK  Name = ZINC19231203
REMARK  5 active torsions:
REMARK  status: ('A' for Active; 'I' for Inactive)
REMARK    1  A    between atoms: C_1  and  C_2
REMARK    2  A    between atoms: C_7  and  N_8
REMARK    3  A    between atoms: N_8  and  S_9
REMARK    4  A    between atoms: S_9  and  C_12
REMARK    5  A    between atoms: N_18  and  N_19
REMARK                            x       y       z     vdW  Elec       q    Type
REMARK                         _______ _______ _______ _____ _____    ______ ____
ROOT
ATOM      1  S   UNL     1      -2.501  -0.453   0.729  0.00  0.00    +0.074 S 
ATOM      2  O   UNL     1      -3.810  -0.951   0.489  0.00  0.00    -0.150 OA
ATOM      3  O   UNL     1      -1.333  -1.154   0.323  0.00  0.00    -0.150 OA
ENDROOT
BRANCH   1   4
ATOM      4  C   UNL     1      -2.365  -0.211   2.469  0.00  0.00    +0.127 A 
ATOM      5  C   UNL     1      -3.503  -0.017   3.241  0.00  0.00    +0.034 A 
ATOM      6  C   UNL     1      -3.353   0.169   4.603  0.00  0.00    +0.046 A 
ATOM      7  C   UNL     1      -2.073   0.156   5.150  0.00  0.00    +0.132 A 
ATOM      8  N   UNL     1      -1.013  -0.033   4.380  0.00  0.00    -0.237 NA
ATOM      9  C   UNL     1      -1.127  -0.218   3.079  0.00  0.00    +0.141 A 
ATOM     10  N   UNL     1      -1.907   0.342   6.518  0.00  0.00    -0.268 N 
ATOM     11  H   UNL     1      -2.785   0.498   7.162  0.00  0.00    +0.167 HD
BRANCH  10  12
ATOM     12  N   UNL     1      -0.654   0.330   7.061  0.00  0.00    -0.255 NA
ATOM     13  H   UNL     1      -0.724   0.492   8.147  0.00  0.00    +0.140 HD
ATOM     14  H   UNL     1      -0.179  -0.643   6.866  0.00  0.00    +0.140 HD
ENDBRANCH  10  12
ENDBRANCH   1   4
BRANCH   1  15
ATOM     15  N   UNL     1      -2.426   1.042   0.019  0.00  0.00    -0.216 N 
ATOM     16  H   UNL     1      -3.270   1.407  -0.585  0.00  0.00    +0.174 HD
BRANCH  15  23
ATOM     17  C   UNL     1      -2.782   3.856   0.231  0.00  0.00    +0.046 C 
ATOM     18  C   UNL     1      -1.419   3.218   0.295  0.00  0.00    -0.027 A 
ATOM     19  C   UNL     1      -0.294   4.003   0.455  0.00  0.00    +0.020 A 
ATOM     20  C   UNL     1       0.958   3.418   0.514  0.00  0.00    +0.018 A 
ATOM     21  C   UNL     1       1.088   2.044   0.414  0.00  0.00    +0.017 A 
ATOM     22  C   UNL     1      -0.033   1.253   0.253  0.00  0.00    +0.026 A 
ATOM     23  C   UNL     1      -1.291   1.839   0.188  0.00  0.00    +0.051 A 
ATOM     24 BR   UNL     1       2.495   4.497   0.734  0.00  0.00    -0.050 Br
ENDBRANCH  15  23
ENDBRANCH   1  15
TORSDOF 4
