REMARK  Name = ZINC05462503
REMARK  5 active torsions:
REMARK  status: ('A' for Active; 'I' for Inactive)
REMARK    1  A    between atoms: C_1  and  C_2
REMARK    2  A    between atoms: C_2  and  C_23
REMARK    3  A    between atoms: C_7  and  C_10
REMARK    4  A    between atoms: C_12  and  O_19
REMARK    5  A    between atoms: C_14  and  O_18
REMARK                            x       y       z     vdW  Elec       q    Type
REMARK                         _______ _______ _______ _____ _____    ______ ____
ROOT
ATOM      1  C   UNL     1      -4.905   2.076   0.386  0.00  0.00    +0.011 C 
ATOM      2  C   UNL     1      -3.428   2.443   0.540  0.00  0.00    -0.023 C 
ATOM      3  C   UNL     1      -2.565   1.287   0.026  0.00  0.00    +0.060 C 
ATOM      4  C   UNL     1      -1.119   1.713   0.016  0.00  0.00    +0.027 A 
ATOM      5  C   UNL     1      -0.728   3.047   0.021  0.00  0.00    +0.038 A 
ATOM      6  C   UNL     1       0.724   3.057   0.009  0.00  0.00    +0.037 A 
ATOM      7  C   UNL     1       1.103   1.762   0.001  0.00  0.00    +0.049 A 
ATOM      8  N   UNL     1      -0.011   0.966   0.007  0.00  0.00    -0.359 N 
ATOM      9  H   UNL     1       0.002  -0.004   0.002  0.00  0.00    +0.165 HD
ATOM     10  C   UNL     1      -1.703   4.143   0.028  0.00  0.00    +0.165 C 
ATOM     11  O   UNL     1      -1.385   5.296   0.228  0.00  0.00    -0.292 OA
ATOM     12  C   UNL     1      -3.142   3.726  -0.247  0.00  0.00    +0.086 C 
ATOM     13  C   UNL     1      -3.121   2.682   2.020  0.00  0.00    +0.011 C 
ENDROOT
BRANCH   7  14
ATOM     14  C   UNL     1       2.527   1.270  -0.013  0.00  0.00    +0.195 C 
ATOM     15  C   UNL     1       3.090   1.294  -1.452  0.00  0.00    +0.180 C 
ATOM     16  C   UNL     1       4.563   1.724  -1.271  0.00  0.00    +0.171 C 
ATOM     17  C   UNL     1       4.716   1.909   0.255  0.00  0.00    +0.194 C 
ATOM     18  O   UNL     1       3.377   2.169   0.731  0.00  0.00    -0.365 OA
BRANCH  16  19
ATOM     19  O   UNL     1       5.446   0.705  -1.743  0.00  0.00    -0.387 OA
ATOM     20  H   UNL     1       6.383   0.899  -1.599  0.00  0.00    +0.210 HD
ENDBRANCH  16  19
BRANCH  15  21
ATOM     21  O   UNL     1       2.385   2.247  -2.249  0.00  0.00    -0.386 OA
ATOM     22  H   UNL     1       2.697   2.304  -3.163  0.00  0.00    +0.210 HD
ENDBRANCH  15  21
ENDBRANCH   7  14
TORSDOF 3
