REMARK  Name = ZINC35694541
REMARK  6 active torsions:
REMARK  status: ('A' for Active; 'I' for Inactive)
REMARK    1  A    between atoms: C_1  and  C_2
REMARK    2  A    between atoms: C_2  and  C_4
REMARK    3  A    between atoms: C_2  and  N_10
REMARK    4  A    between atoms: N_10  and  S_11
REMARK    5  A    between atoms: S_11  and  C_14
REMARK    6  A    between atoms: C_18  and  N_20
REMARK                            x       y       z     vdW  Elec       q    Type
REMARK                         _______ _______ _______ _____ _____    ______ ____
ROOT
ATOM      1  S   UNL     1       2.265  -0.053  -1.478  0.00  0.00    -0.059 S 
ATOM      2  O   UNL     1       2.278   1.352  -1.689  0.00  0.00    -0.191 OA
ATOM      3  O   UNL     1       3.036  -0.679  -0.461  0.00  0.00    -0.191 OA
ENDROOT
BRANCH   1   4
ATOM      4  C   UNL     1       2.745  -0.795  -3.002  0.00  0.00    +0.067 A 
ATOM      5  C   UNL     1       3.293  -2.065  -3.010  0.00  0.00    +0.026 A 
ATOM      6  C   UNL     1       3.672  -2.651  -4.204  0.00  0.00    +0.023 A 
ATOM      7  C   UNL     1       3.504  -1.969  -5.394  0.00  0.00    +0.062 A 
ATOM      8  C   UNL     1       2.953  -0.693  -5.389  0.00  0.00    +0.045 A 
ATOM      9  C   UNL     1       2.569  -0.110  -4.189  0.00  0.00    +0.049 A 
ATOM     10 CL   UNL     1       3.981  -2.705  -6.892  0.00  0.00    -0.082 Cl
BRANCH   8  11
ATOM     11  N   UNL     1       2.782   0.000  -6.591  0.00  0.00    -0.357 N 
ATOM     12  H   UNL     1       3.047  -0.409  -7.429  0.00  0.00    +0.142 HD
ATOM     13  H   UNL     1       2.397   0.890  -6.586  0.00  0.00    +0.142 HD
ENDBRANCH   8  11
ENDBRANCH   1   4
BRANCH   1  14
ATOM     14  N   UNL     1       0.688  -0.476  -1.203  0.00  0.00    +0.475 NA
BRANCH  14  16
ATOM     15  C   UNL     1      -0.019   1.526   0.010  0.00  0.00    -0.013 C 
ATOM     16  C   UNL     1       0.002  -0.004   0.002  0.00  0.00    -0.053 C 
BRANCH  16  17
ATOM     17  C   UNL     1      -1.412  -0.526   0.013  0.00  0.00    +0.022 A 
ATOM     18  C   UNL     1      -1.822  -1.408  -0.969  0.00  0.00    +0.021 A 
ATOM     19  C   UNL     1      -3.124  -1.882  -0.950  0.00  0.00    +0.003 A 
ATOM     20  C   UNL     1      -3.970  -1.449   0.060  0.00  0.00    +0.020 A 
ATOM     21  C   UNL     1      -3.489  -0.565   1.008  0.00  0.00    +0.111 A 
ATOM     22  N   UNL     1      -2.242  -0.140   0.962  0.00  0.00    -0.262 NA
ENDBRANCH  16  17
ENDBRANCH  14  16
ENDBRANCH   1  14
TORSDOF 5
