REMARK  Name = ZINC63709374
REMARK  6 active torsions:
REMARK  status: ('A' for Active; 'I' for Inactive)
REMARK    1  A    between atoms: C_1  and  C_2
REMARK    2  A    between atoms: C_7  and  N_8
REMARK    3  A    between atoms: N_15  and  C_29
REMARK    4  A    between atoms: C_16  and  S_18
REMARK    5  A    between atoms: S_18  and  C_19
REMARK    6  A    between atoms: C_19  and  C_20
REMARK                            x       y       z     vdW  Elec       q    Type
REMARK                         _______ _______ _______ _____ _____    ______ ____
ROOT
ATOM      1  N   UNL     1      -0.010  -0.048   2.375  0.00  0.00    -0.264 N 
ATOM      2  C   UNL     1      -1.236   0.311   3.061  0.00  0.00    +0.221 C 
ATOM      3  C   UNL     1      -0.957   0.182   4.598  0.00  0.00    +0.182 C 
ATOM      4  C   UNL     1      -2.075   0.825   5.300  0.00  0.00    +0.243 C 
ATOM      5  O   UNL     1      -1.928   1.540   6.268  0.00  0.00    -0.273 OA
ATOM      6  N   UNL     1      -3.306   0.538   4.756  0.00  0.00    -0.218 N 
ATOM      7  C   UNL     1      -3.384  -0.380   3.716  0.00  0.00    +0.165 C 
ATOM      8  N   UNL     1      -2.415  -0.529   2.856  0.00  0.00    -0.238 NA
ATOM      9  S   UNL     1       0.688   0.952   4.582  0.00  0.00    -0.086 S 
ATOM     10  C   UNL     1       1.162   0.358   2.952  0.00  0.00    +0.116 C 
ATOM     11  S   UNL     1       2.733   0.314   2.273  0.00  0.00    -0.028 S 
ENDROOT
BRANCH   1  18
ATOM     12  C   UNL     1      -0.121   1.384  -0.081  0.00  0.00    +0.045 C 
ATOM     13  C   UNL     1      -0.078  -0.122  -0.038  0.00  0.00    -0.029 A 
ATOM     14  C   UNL     1      -0.086  -0.848  -1.213  0.00  0.00    +0.005 A 
ATOM     15  C   UNL     1      -0.048  -2.229  -1.174  0.00  0.00    +0.000 A 
ATOM     16  C   UNL     1      -0.001  -2.889   0.040  0.00  0.00    +0.002 A 
ATOM     17  C   UNL     1       0.008  -2.169   1.219  0.00  0.00    +0.024 A 
ATOM     18  C   UNL     1      -0.025  -0.781   1.183  0.00  0.00    +0.040 A 
ENDBRANCH   1  18
BRANCH   6  19
ATOM     19  C   UNL     1      -4.462   1.161   5.243  0.00  0.00    +0.043 A 
ATOM     20  C   UNL     1      -5.161   2.054   4.442  0.00  0.00    +0.024 A 
ATOM     21  C   UNL     1      -6.301   2.667   4.925  0.00  0.00    +0.002 A 
ATOM     22  C   UNL     1      -6.746   2.391   6.205  0.00  0.00    +0.000 A 
ATOM     23  C   UNL     1      -6.053   1.502   7.005  0.00  0.00    +0.002 A 
ATOM     24  C   UNL     1      -4.915   0.882   6.526  0.00  0.00    +0.024 A 
ENDBRANCH   6  19
BRANCH   7  25
ATOM     25  S   UNL     1      -4.832  -1.372   3.561  0.00  0.00    -0.086 S 
BRANCH  25  26
ATOM     26  C   UNL     1      -4.505  -2.400   2.102  0.00  0.00    +0.124 C 
BRANCH  26  27
ATOM     27  C   UNL     1      -5.700  -3.322   1.851  0.00  0.00    +0.184 C 
ATOM     28  N   UNL     1      -6.925  -2.528   1.690  0.00  0.00    -0.363 N 
ATOM     29  C   UNL     1      -7.748  -2.885   2.633  0.00  0.00    +0.060 A 
ATOM     30  C   UNL     1      -9.108  -2.455   2.987  0.00  0.00    +0.027 A 
ATOM     31  C   UNL     1      -9.729  -3.017   4.043  0.00  0.00    +0.002 A 
ATOM     32  C   UNL     1      -9.128  -4.012   4.835  0.00  0.00    +0.002 A 
ATOM     33  C   UNL     1      -7.886  -4.477   4.598  0.00  0.00    +0.027 A 
ATOM     34  C   UNL     1      -7.112  -3.938   3.470  0.00  0.00    +0.060 A 
ATOM     35  N   UNL     1      -5.920  -4.191   3.014  0.00  0.00    -0.363 N 
ATOM     36  H   UNL     1      -7.090  -1.859   1.007  0.00  0.00    +0.162 HD
ATOM     37  H   UNL     1      -5.292  -4.835   3.375  0.00  0.00    +0.162 HD
ENDBRANCH  26  27
ENDBRANCH  25  26
ENDBRANCH   7  25
TORSDOF 5
