REMARK  Name = ZINC40910111
REMARK  6 active torsions:
REMARK  status: ('A' for Active; 'I' for Inactive)
REMARK    1  A    between atoms: C_1  and  C_2
REMARK    2  A    between atoms: C_8  and  C_12
REMARK    3  A    between atoms: N_14  and  C_15
REMARK    4  A    between atoms: C_15  and  C_16
REMARK    5  A    between atoms: C_15  and  C_17
REMARK    6  A    between atoms: C_15  and  C_18
REMARK                            x       y       z     vdW  Elec       q    Type
REMARK                         _______ _______ _______ _____ _____    ______ ____
ROOT
ATOM      1  C   UNL     1      -0.019   1.526   0.010  0.00  0.00    +0.044 C 
ATOM      2  C   UNL     1       0.002  -0.004   0.002  0.00  0.00    +0.082 C 
ATOM      3  C   UNL     1      -1.404  -0.622   0.037  0.00  0.00    +0.046 C 
ATOM      4  C   UNL     1      -1.621  -0.740   1.566  0.00  0.00    +0.099 C 
ATOM      5  C   UNL     1      -0.224  -0.854   2.133  0.00  0.00    +0.217 C 
ATOM      6  O   UNL     1       0.033  -1.143   3.282  0.00  0.00    -0.276 OA
ATOM      7  N   UNL     1       0.703  -0.589   1.174  0.00  0.00    -0.275 N 
ATOM      8  C   UNL     1       2.143  -0.788   0.970  0.00  0.00    +0.173 C 
ATOM      9  C   UNL     1       2.620  -0.629  -0.494  0.00  0.00    +0.103 C 
ATOM     10  S   UNL     1       0.998  -0.704  -1.380  0.00  0.00    -0.133 S 
ENDROOT
BRANCH   8  11
ATOM     11  C   UNL     1       2.887   0.211   1.819  0.00  0.00    +0.235 C 
ATOM     12  O   UNL     1       2.273   0.994   2.512  0.00  0.00    -0.274 OA
ATOM     13  N   UNL     1       4.235   0.233   1.809  0.00  0.00    -0.299 N 
ATOM     14  H   UNL     1       4.726  -0.394   1.254  0.00  0.00    +0.150 HD
BRANCH  13  15
ATOM     15  C   UNL     1       4.958   1.203   2.634  0.00  0.00    +0.130 C 
ATOM     16  C   UNL     1       4.562   2.621   2.219  0.00  0.00    +0.043 C 
ATOM     17  C   UNL     1       4.603   0.985   4.106  0.00  0.00    +0.043 C 
BRANCH  15  18
ATOM     18  C   UNL     1       6.441   1.019   2.442  0.00  0.00    +0.378 C 
ATOM     19  O   UNL     1       6.856   0.158   1.686  0.00  0.00    -0.244 OA
ATOM     20  O   UNL     1       7.226   1.732   3.043  0.00  0.00    -0.244 OA
ENDBRANCH  15  18
ENDBRANCH  13  15
ENDBRANCH   8  11
TORSDOF 3
