REMARK  Name = ZINC20086814
REMARK  14 active torsions:
REMARK  status: ('A' for Active; 'I' for Inactive)
REMARK    1  A    between atoms: C_1  and  C_2
REMARK    2  A    between atoms: N_8  and  C_9
REMARK    3  A    between atoms: C_10  and  C_18
REMARK    4  A    between atoms: C_12  and  C_16
REMARK    5  A    between atoms: C_13  and  N_15
REMARK    6  A    between atoms: C_20  and  C_29
REMARK    7  A    between atoms: C_21  and  O_28
REMARK    8  A    between atoms: C_22  and  C_24
REMARK    9  A    between atoms: C_24  and  C_25
REMARK   10  A    between atoms: C_24  and  C_26
REMARK   11  A    between atoms: C_24  and  C_27
REMARK   12  A    between atoms: C_29  and  C_30
REMARK   13  A    between atoms: C_29  and  C_31
REMARK   14  A    between atoms: C_29  and  C_32
REMARK                            x       y       z     vdW  Elec       q    Type
REMARK                         _______ _______ _______ _____ _____    ______ ____
ROOT
ATOM      1  C   UNL     1      -1.520  -4.037   4.751  0.00  0.00    +0.064 C 
ATOM      2  C   UNL     1      -1.457  -3.197   3.502  0.00  0.00    +0.022 A 
ATOM      3  C   UNL     1      -1.183  -3.784   2.317  0.00  0.00    +0.068 A 
ATOM      4  C   UNL     1      -1.123  -3.003   1.145  0.00  0.00    +0.141 A 
ATOM      5  C   UNL     1      -1.348  -1.645   1.235  0.00  0.00    +0.072 A 
ATOM      6  C   UNL     1      -1.628  -1.080   2.486  0.00  0.00    +0.259 A 
ATOM      7  O   UNL     1      -1.829   0.121   2.581  0.00  0.00    -0.267 OA
ATOM      8  N   UNL     1      -1.677  -1.859   3.582  0.00  0.00    -0.315 N 
ATOM      9  C   UNL     1      -1.973  -1.254   4.883  0.00  0.00    +0.152 C 
ATOM     10  C   UNL     1      -1.293  -0.774   0.010  0.00  0.00    +0.103 C 
ATOM     11  C   UNL     1      -1.379  -1.619  -1.230  0.00  0.00    +0.098 C 
ATOM     12  C   UNL     1      -1.157  -2.954  -1.187  0.00  0.00    +0.199 C 
ATOM     13  O   UNL     1      -0.851  -3.587  -0.041  0.00  0.00    -0.441 OA
ENDROOT
BRANCH  10  14
ATOM     14  C   UNL     1       0.002  -0.004   0.002  0.00  0.00    -0.034 A 
ATOM     15  C   UNL     1      -0.017   1.378   0.010  0.00  0.00    +0.012 A 
ATOM     16  C   UNL     1       1.169   2.087   0.002  0.00  0.00    -0.000 A 
ATOM     17  C   UNL     1       2.380   1.409  -0.013  0.00  0.00    +0.124 A 
ATOM     18  C   UNL     1       2.396   0.022  -0.020  0.00  0.00    -0.000 A 
ATOM     19  C   UNL     1       1.207  -0.681  -0.013  0.00  0.00    +0.012 A 
BRANCH  18  20
ATOM     20  C   UNL     1       3.710  -0.717  -0.037  0.00  0.00    -0.009 C 
ATOM     21  C   UNL     1       3.447  -2.224  -0.043  0.00  0.00    +0.015 C 
ATOM     22  C   UNL     1       4.496  -0.332  -1.292  0.00  0.00    +0.015 C 
ATOM     23  C   UNL     1       4.520  -0.345   1.207  0.00  0.00    +0.015 C 
ENDBRANCH  18  20
BRANCH  16  24
ATOM     24  C   UNL     1       1.148   3.593   0.010  0.00  0.00    -0.009 C 
ATOM     25  C   UNL     1      -0.301   4.083   0.026  0.00  0.00    +0.015 C 
ATOM     26  C   UNL     1       1.874   4.107   1.255  0.00  0.00    +0.015 C 
ATOM     27  C   UNL     1       1.851   4.120  -1.243  0.00  0.00    +0.015 C 
ENDBRANCH  16  24
BRANCH  17  28
ATOM     28  O   UNL     1       3.548   2.104  -0.021  0.00  0.00    -0.506 OA
ATOM     29  H   UNL     1       4.508   1.566  -0.033  0.00  0.00    +0.292 HD
ENDBRANCH  17  28
ENDBRANCH  10  14
BRANCH  12  30
ATOM     30  N   UNL     1      -1.247  -3.682  -2.347  0.00  0.00    -0.328 N 
ATOM     31  H   UNL     1      -1.069  -4.768  -2.330  0.00  0.00    +0.145 HD
ATOM     32  H   UNL     1      -1.496  -3.180  -3.293  0.00  0.00    +0.145 HD
ENDBRANCH  12  30
BRANCH  11  33
ATOM     33  C   UNL     1      -1.702  -1.001  -2.481  0.00  0.00    +0.101 C 
ATOM     34  N   UNL     1      -1.958  -0.510  -3.473  0.00  0.00    -0.191 NA
ENDBRANCH  11  33
TORSDOF 6
