REMARK  Name = ZINC13001994
REMARK  7 active torsions:
REMARK  status: ('A' for Active; 'I' for Inactive)
REMARK    1  A    between atoms: C_1  and  C_2
REMARK    2  A    between atoms: C_2  and  C_4
REMARK    3  A    between atoms: C_2  and  S_20
REMARK    4  A    between atoms: N_9  and  C_10
REMARK    5  A    between atoms: S_20  and  C_21
REMARK    6  A    between atoms: C_25  and  C_27
REMARK    7  A    between atoms: C_28  and  C_29
REMARK                            x       y       z     vdW  Elec       q    Type
REMARK                         _______ _______ _______ _____ _____    ______ ____
ROOT
ATOM      1  C   UNL     1       0.708  -0.486  -1.239  0.00  0.00    +0.234 C 
ATOM      2  O   UNL     1       0.066  -0.786  -2.223  0.00  0.00    -0.274 OA
ATOM      3  N   UNL     1       2.051  -0.595  -1.251  0.00  0.00    -0.239 N 
ATOM      4  C   UNL     1       2.681  -1.037  -2.358  0.00  0.00    +0.310 C 
ATOM      5  O   UNL     1       2.038  -1.337  -3.344  0.00  0.00    -0.252 OA
ATOM      6  N   UNL     1       4.025  -1.146  -2.370  0.00  0.00    -0.269 N 
ATOM      7  H   UNL     1       2.564  -0.355  -0.464  0.00  0.00    +0.159 HD
ATOM      8  H   UNL     1       4.543  -0.843  -1.608  0.00  0.00    +0.156 HD
ENDROOT
BRANCH   6   9
ATOM      9  C   UNL     1       4.673  -1.696  -3.484  0.00  0.00    +0.038 A 
ATOM     10  C   UNL     1       5.812  -2.471  -3.312  0.00  0.00    +0.027 A 
ATOM     11  C   UNL     1       6.452  -3.012  -4.410  0.00  0.00    +0.051 A 
ATOM     12  C   UNL     1       5.958  -2.785  -5.686  0.00  0.00    +0.162 A 
ATOM     13  C   UNL     1       4.817  -2.011  -5.861  0.00  0.00    +0.164 A 
ATOM     14  C   UNL     1       4.173  -1.471  -4.759  0.00  0.00    +0.072 A 
ATOM     15  O   UNL     1       4.314  -1.784  -7.105  0.00  0.00    -0.485 OA
ATOM     16  C   UNL     1       5.190  -2.033  -8.210  0.00  0.00    +0.270 C 
ATOM     17  C   UNL     1       5.872  -3.389  -7.985  0.00  0.00    +0.270 C 
ATOM     18  O   UNL     1       6.605  -3.324  -6.757  0.00  0.00    -0.485 OA
ENDBRANCH   6   9
BRANCH   1  20
ATOM     19  C   UNL     1      -0.019   1.538  -0.005  0.00  0.00    +0.029 C 
ATOM     20  C   UNL     1       0.003   0.008  -0.002  0.00  0.00    +0.137 C 
BRANCH  20  21
ATOM     21  S   UNL     1      -1.698  -0.622   0.018  0.00  0.00    -0.074 S 
BRANCH  21  22
ATOM     22  C   UNL     1      -2.332  -0.089   1.573  0.00  0.00    +0.185 A 
ATOM     23  N   UNL     1      -3.575  -0.329   2.047  0.00  0.00    -0.253 N 
ATOM     24  H   UNL     1      -4.281  -0.822   1.600  0.00  0.00    +0.191 HD
ATOM     25  N   UNL     1      -3.644   0.276   3.312  0.00  0.00    -0.152 NA
ATOM     26  C   UNL     1      -2.472   0.834   3.535  0.00  0.00    +0.175 A 
ATOM     27  N   UNL     1      -1.676   0.605   2.477  0.00  0.00    -0.202 NA
BRANCH  26  28
ATOM     28  C   UNL     1      -2.094   1.582   4.746  0.00  0.00    +0.051 C 
ATOM     29  C   UNL     1      -2.984   1.740   5.745  0.00  0.00    +0.019 C 
BRANCH  29  30
ATOM     30  C   UNL     1      -2.608   2.484   6.950  0.00  0.00    +0.012 A 
ATOM     31  C   UNL     1      -3.361   2.752   8.081  0.00  0.00    +0.015 A 
ATOM     32  C   UNL     1      -2.781   3.480   9.094  0.00  0.00    +0.008 A 
ATOM     33  C   UNL     1      -1.499   3.909   8.956  0.00  0.00    +0.046 A 
ATOM     34  S   UNL     1      -1.057   3.274   7.347  0.00  0.00    -0.097 S 
ENDBRANCH  29  30
ENDBRANCH  26  28
ENDBRANCH  21  22
ENDBRANCH  20  21
ENDBRANCH   1  20
TORSDOF 6
