REMARK  Name = ZINC42115840
REMARK  6 active torsions:
REMARK  status: ('A' for Active; 'I' for Inactive)
REMARK    1  A    between atoms: C_1  and  C_2
REMARK    2  A    between atoms: C_12  and  N_14
REMARK    3  A    between atoms: N_14  and  C_15
REMARK    4  A    between atoms: C_15  and  C_16
REMARK    5  A    between atoms: C_16  and  S_17
REMARK    6  A    between atoms: S_17  and  N_20
REMARK                            x       y       z     vdW  Elec       q    Type
REMARK                         _______ _______ _______ _____ _____    ______ ____
ROOT
ATOM      1  C   UNL     1      -0.018   1.503   0.010  0.00  0.00    +0.044 C 
ATOM      2  C   UNL     1       0.002  -0.004   0.002  0.00  0.00    -0.047 A 
ATOM      3  C   UNL     1       0.006  -0.691  -1.200  0.00  0.00    +0.011 A 
ATOM      4  C   UNL     1       0.024  -2.068  -1.204  0.00  0.00    +0.003 A 
ATOM      5  C   UNL     1       0.040  -2.783  -0.014  0.00  0.00    +0.074 A 
ATOM      6  C   UNL     1       0.036  -2.085   1.194  0.00  0.00    +0.145 A 
ATOM      7  C   UNL     1       0.023  -0.703   1.195  0.00  0.00    +0.043 A 
ATOM      8  F   UNL     1       0.051  -2.760   2.363  0.00  0.00    -0.204 F 
ATOM      9  N   UNL     1       0.057  -4.155  -0.276  0.00  0.00    -0.281 N 
ATOM     10  C   UNL     1       0.054  -4.421  -1.593  0.00  0.00    +0.239 C 
ATOM     11  O   UNL     1       0.067  -5.520  -2.106  0.00  0.00    -0.273 OA
ATOM     12  C   UNL     1       0.033  -3.092  -2.316  0.00  0.00    +0.173 C 
ATOM     13  H   UNL     1       0.070  -4.837   0.414  0.00  0.00    +0.155 HD
ENDROOT
BRANCH  12  14
ATOM     14  N   UNL     1       1.235  -2.938  -3.147  0.00  0.00    -0.300 NA
ATOM     15  H   UNL     1       1.534  -1.975  -3.176  0.00  0.00    +0.123 HD
BRANCH  14  16
ATOM     16  C   UNL     1       1.008  -3.461  -4.502  0.00  0.00    +0.106 C 
BRANCH  16  17
ATOM     17  C   UNL     1       2.279  -3.284  -5.335  0.00  0.00    +0.200 C 
BRANCH  17  18
ATOM     18  S   UNL     1       1.999  -3.929  -7.008  0.00  0.00    +0.028 S 
ATOM     19  O   UNL     1       1.844  -5.341  -6.968  0.00  0.00    -0.158 OA
ATOM     20  O   UNL     1       1.058  -3.115  -7.695  0.00  0.00    -0.158 OA
BRANCH  18  21
ATOM     21  N   UNL     1       3.430  -3.683  -7.804  0.00  0.00    -0.208 NA
ATOM     22  H   UNL     1       4.176  -3.269  -7.343  0.00  0.00    +0.144 HD
ATOM     23  H   UNL     1       3.522  -3.953  -8.731  0.00  0.00    +0.144 HD
ENDBRANCH  18  21
ENDBRANCH  17  18
ENDBRANCH  16  17
ENDBRANCH  14  16
ENDBRANCH  12  14
TORSDOF 5
