REMARK  Name = ZINC42325234
REMARK  5 active torsions:
REMARK  status: ('A' for Active; 'I' for Inactive)
REMARK    1  A    between atoms: C_1  and  C_2
REMARK    2  A    between atoms: C_2  and  C_4
REMARK    3  A    between atoms: C_2  and  N_10
REMARK    4  A    between atoms: N_13  and  C_14
REMARK    5  A    between atoms: C_14  and  C_15
REMARK                            x       y       z     vdW  Elec       q    Type
REMARK                         _______ _______ _______ _____ _____    ______ ____
ROOT
ATOM      1  N   UNL     1       0.688  -0.476  -1.203  0.00  0.00    -0.294 N 
ATOM      2  C   UNL     1       2.031  -0.587  -1.215  0.00  0.00    +0.300 C 
ATOM      3  O   UNL     1       2.674  -0.294  -0.225  0.00  0.00    -0.253 OA
ATOM      4  N   UNL     1       2.662  -1.022  -2.324  0.00  0.00    -0.299 N 
ATOM      5  H   UNL     1       0.175  -0.710  -1.993  0.00  0.00    +0.151 HD
ATOM      6  H   UNL     1       2.149  -1.255  -3.114  0.00  0.00    +0.150 HD
ENDROOT
BRANCH   1   8
ATOM      7  C   UNL     1      -0.019   1.526   0.010  0.00  0.00    +0.030 C 
ATOM      8  C   UNL     1       0.002  -0.004   0.002  0.00  0.00    +0.100 C 
BRANCH   8   9
ATOM      9  C   UNL     1      -1.433  -0.534   0.013  0.00  0.00    +0.138 C 
ATOM     10  C   UNL     1      -2.149  -0.121   1.324  0.00  0.00    +0.035 C 
ATOM     11  C   UNL     1      -3.634  -0.155   0.872  0.00  0.00    +0.031 C 
ATOM     12  C   UNL     1      -3.540   0.308  -0.598  0.00  0.00    +0.160 C 
ATOM     13  O   UNL     1      -2.197   0.074  -1.041  0.00  0.00    -0.375 OA
ENDBRANCH   8   9
ENDBRANCH   1   8
BRANCH   4  14
ATOM     14  C   UNL     1       4.122  -1.142  -2.336  0.00  0.00    +0.111 C 
BRANCH  14  15
ATOM     15  C   UNL     1       4.580  -1.652  -3.704  0.00  0.00    +0.029 C 
ATOM     16  C   UNL     1       4.084  -3.093  -3.913  0.00  0.00    +0.029 C 
ATOM     17  C   UNL     1       4.800  -3.726  -5.131  0.00  0.00    +0.166 C 
ATOM     18  S   UNL     1       6.407  -2.833  -5.163  0.00  0.00    -0.031 S 
ATOM     19  O   UNL     1       7.446  -3.737  -4.811  0.00  0.00    -0.174 OA
ATOM     20  O   UNL     1       6.502  -2.096  -6.375  0.00  0.00    -0.174 OA
ATOM     21  C   UNL     1       6.134  -1.661  -3.768  0.00  0.00    +0.171 C 
ENDBRANCH  14  15
ENDBRANCH   4  14
TORSDOF 4
