REMARK  Name = ZINC32949097
REMARK  6 active torsions:
REMARK  status: ('A' for Active; 'I' for Inactive)
REMARK    1  A    between atoms: C_4  and  C_7
REMARK    2  A    between atoms: C_7  and  C_8
REMARK    3  A    between atoms: C_8  and  C_10
REMARK    4  A    between atoms: C_8  and  N_20
REMARK    5  A    between atoms: C_10  and  C_11
REMARK    6  A    between atoms: N_23  and  C_24
REMARK                            x       y       z     vdW  Elec       q    Type
REMARK                         _______ _______ _______ _____ _____    ______ ____
ROOT
ATOM      1  C   UNL     1       2.691   4.222  -1.159  0.00  0.00    +0.083 C 
ENDROOT
BRANCH   1   2
ATOM      2  N   UNL     1       1.811   5.086  -1.950  0.00  0.00    -0.296 N 
ATOM      3  C   UNL     1       0.694   4.580  -2.509  0.00  0.00    +0.304 C 
ATOM      4  O   UNL     1       0.416   3.406  -2.356  0.00  0.00    -0.253 OA
ATOM      5  N   UNL     1      -0.115   5.374  -3.236  0.00  0.00    -0.269 N 
ATOM      6  H   UNL     1       2.062   6.148  -2.088  0.00  0.00    +0.151 HD
ATOM      7  H   UNL     1       0.088   6.453  -3.303  0.00  0.00    +0.156 HD
BRANCH   5   8
ATOM      8  C   UNL     1      -1.214   4.827  -3.908  0.00  0.00    +0.037 A 
ATOM      9  C   UNL     1      -1.141   3.541  -4.428  0.00  0.00    +0.023 A 
ATOM     10  C   UNL     1      -2.229   3.000  -5.086  0.00  0.00    +0.005 A 
ATOM     11  C   UNL     1      -3.387   3.741  -5.237  0.00  0.00    +0.038 A 
ATOM     12  C   UNL     1      -3.461   5.025  -4.724  0.00  0.00    +0.125 A 
ATOM     13  C   UNL     1      -2.377   5.570  -4.060  0.00  0.00    +0.061 A 
ATOM     14  F   UNL     1      -4.593   5.747  -4.874  0.00  0.00    -0.205 F 
ENDBRANCH   5   8
ENDBRANCH   1   2
BRANCH   1  15
ATOM     15  C   UNL     1       2.179   4.154   0.281  0.00  0.00    +0.057 C 
BRANCH  15  19
ATOM     16  C   UNL     1      -1.639   2.239   0.339  0.00  0.00    +0.000 A 
ATOM     17  C   UNL     1      -0.487   1.488   0.474  0.00  0.00    +0.000 A 
ATOM     18  C   UNL     1       0.749   2.107   0.454  0.00  0.00    +0.004 A 
ATOM     19  C   UNL     1       0.832   3.479   0.303  0.00  0.00    -0.046 A 
ATOM     20  C   UNL     1      -0.321   4.231   0.174  0.00  0.00    +0.004 A 
ATOM     21  C   UNL     1      -1.556   3.611   0.194  0.00  0.00    +0.000 A 
ENDBRANCH  15  19
ENDBRANCH   1  15
BRANCH   1  22
ATOM     22  C   UNL     1       4.110   4.794  -1.169  0.00  0.00    +0.058 C 
BRANCH  22  23
ATOM     23  C   UNL     1       4.661   4.747  -2.571  0.00  0.00    -0.042 A 
ATOM     24  C   UNL     1       4.471   5.819  -3.422  0.00  0.00    +0.007 A 
ATOM     25  C   UNL     1       4.975   5.781  -4.709  0.00  0.00    +0.050 A 
ATOM     26  C   UNL     1       5.672   4.667  -5.149  0.00  0.00    +0.166 A 
ATOM     27  C   UNL     1       5.863   3.587  -4.290  0.00  0.00    +0.166 A 
ATOM     28  C   UNL     1       5.360   3.634  -3.000  0.00  0.00    +0.053 A 
ATOM     29  O   UNL     1       6.571   2.625  -4.951  0.00  0.00    -0.453 OA
ATOM     30  C   UNL     1       7.162   3.291  -6.082  0.00  0.00    +0.466 C 
ATOM     31  O   UNL     1       6.260   4.381  -6.347  0.00  0.00    -0.453 OA
ENDBRANCH  22  23
ENDBRANCH   1  22
TORSDOF 6
