REMARK  Name = ZINC45726550
REMARK  6 active torsions:
REMARK  status: ('A' for Active; 'I' for Inactive)
REMARK    1  A    between atoms: C_11  and  C_29
REMARK    2  A    between atoms: C_14  and  C_16
REMARK    3  A    between atoms: C_16  and  S_17
REMARK    4  A    between atoms: S_17  and  C_18
REMARK    5  A    between atoms: C_21  and  C_24
REMARK    6  A    between atoms: N_22  and  N_23
REMARK                            x       y       z     vdW  Elec       q    Type
REMARK                         _______ _______ _______ _____ _____    ______ ____
ROOT
ATOM      1  C   UNL     1      -0.017   1.379   0.010  0.00  0.00    +0.002 A 
ATOM      2  C   UNL     1       1.168   2.092   0.002  0.00  0.00    +0.002 A 
ATOM      3  C   UNL     1       2.381   1.427  -0.003  0.00  0.00    +0.025 A 
ATOM      4  C   UNL     1       2.409   0.043  -0.005  0.00  0.00    +0.058 A 
ATOM      5  C   UNL     1       1.213  -0.677  -0.015  0.00  0.00    +0.055 A 
ATOM      6  C   UNL     1       0.002  -0.004   0.002  0.00  0.00    +0.025 A 
ATOM      7  N   UNL     1       1.256  -2.074  -0.075  0.00  0.00    -0.284 N 
ATOM      8  C   UNL     1       2.050  -2.771   0.767  0.00  0.00    +0.219 C 
ATOM      9  O   UNL     1       2.143  -3.974   0.650  0.00  0.00    -0.275 OA
ATOM     10  C   UNL     1       2.819  -2.062   1.850  0.00  0.00    +0.128 C 
ATOM     11  C   UNL     1       4.024  -1.336   1.250  0.00  0.00    +0.194 C 
ATOM     12  N   UNL     1       3.628  -0.648   0.020  0.00  0.00    -0.257 N 
ATOM     13  C   UNL     1       4.422  -0.680  -1.069  0.00  0.00    +0.231 C 
ATOM     14  O   UNL     1       5.474  -1.281  -1.035  0.00  0.00    -0.274 OA
ATOM     15  H   UNL     1       0.712  -2.546  -0.725  0.00  0.00    +0.155 HD
ENDROOT
BRANCH  11  16
ATOM     16  C   UNL     1       4.552  -0.310   2.256  0.00  0.00    +0.409 C 
ATOM     17  F   UNL     1       4.939  -0.965   3.430  0.00  0.00    -0.169 F 
ATOM     18  F   UNL     1       5.654   0.355   1.708  0.00  0.00    -0.169 F 
ATOM     19  F   UNL     1       3.546   0.617   2.549  0.00  0.00    -0.169 F 
ENDBRANCH  11  16
BRANCH  13  20
ATOM     20  C   UNL     1       4.001   0.032  -2.329  0.00  0.00    +0.173 C 
BRANCH  20  21
ATOM     21  S   UNL     1       5.270  -0.195  -3.604  0.00  0.00    -0.075 S 
BRANCH  21  22
ATOM     22  C   UNL     1       4.639   0.683  -4.995  0.00  0.00    +0.209 A 
ATOM     23  N   UNL     1       3.505   1.345  -5.049  0.00  0.00    -0.120 NA
ATOM     24  N   UNL     1       3.353   1.867  -6.213  0.00  0.00    -0.123 NA
ATOM     25  C   UNL     1       4.383   1.572  -6.976  0.00  0.00    +0.217 A 
ATOM     26  N   UNL     1       5.241   0.809  -6.216  0.00  0.00    -0.221 N 
BRANCH  25  27
ATOM     27  C   UNL     1       4.583   1.984  -8.374  0.00  0.00    +0.173 A 
ATOM     28  C   UNL     1       3.899   2.966  -9.025  0.00  0.00    +0.053 A 
ATOM     29  C   UNL     1       4.414   3.020 -10.334  0.00  0.00    +0.042 A 
ATOM     30  C   UNL     1       5.376   2.079 -10.420  0.00  0.00    +0.196 A 
ATOM     31  O   UNL     1       5.479   1.459  -9.233  0.00  0.00    -0.460 OA
ENDBRANCH  25  27
BRANCH  26  32
ATOM     32  N   UNL     1       6.442   0.284  -6.602  0.00  0.00    -0.294 N 
ATOM     33  H   UNL     1       6.323  -0.636  -7.000  0.00  0.00    +0.163 HD
ATOM     34  H   UNL     1       6.914   0.899  -7.247  0.00  0.00    +0.163 HD
ENDBRANCH  26  32
ENDBRANCH  21  22
ENDBRANCH  20  21
ENDBRANCH  13  20
TORSDOF 6
