REMARK  Name = ZINC05945243
REMARK  2 active torsions:
REMARK  status: ('A' for Active; 'I' for Inactive)
REMARK    1  A    between atoms: C_3  and  C_6
REMARK    2  A    between atoms: C_9  and  C_18
REMARK                            x       y       z     vdW  Elec       q    Type
REMARK                         _______ _______ _______ _____ _____    ______ ____
ROOT
ATOM      1  C   UNL     1       2.499   1.455  -0.015  0.00  0.00    +0.141 C 
ATOM      2  C   UNL     1       3.084   1.558   1.398  0.00  0.00    +0.066 C 
ATOM      3  C   UNL     1       2.939   2.995   1.915  0.00  0.00    +0.216 C 
ATOM      4  N   UNL     1       3.432   3.917   0.891  0.00  0.00    -0.220 N 
ATOM      5  C   UNL     1       3.584   3.595  -0.416  0.00  0.00    +0.216 A 
ATOM      6  N   UNL     1       4.045   4.645  -1.042  0.00  0.00    -0.180 NA
ATOM      7  C   UNL     1       4.199   5.653  -0.171  0.00  0.00    +0.233 A 
ATOM      8  N   UNL     1       3.833   5.247   1.024  0.00  0.00    -0.132 NA
ATOM      9  N   UNL     1       4.670   6.929  -0.484  0.00  0.00    -0.326 N 
ATOM     10  N   UNL     1       3.273   2.336  -0.911  0.00  0.00    -0.304 N 
ATOM     11  H   UNL     1       4.918   7.144  -1.397  0.00  0.00    +0.145 HD
ATOM     12  H   UNL     1       4.750   7.601   0.211  0.00  0.00    +0.145 HD
ATOM     13  H   UNL     1       3.549   2.051  -1.796  0.00  0.00    +0.150 HD
ENDROOT
BRANCH   1  16
ATOM     14  C   UNL     1      -1.159   1.903   0.017  0.00  0.00    +0.041 A 
ATOM     15  C   UNL     1      -0.013   1.076   0.008  0.00  0.00    +0.046 A 
ATOM     16  C   UNL     1       1.057   1.892   0.002  0.00  0.00    +0.125 A 
ATOM     17  O   UNL     1       0.621   3.162   0.013  0.00  0.00    -0.466 OA
ATOM     18  C   UNL     1      -0.722   3.175   0.026  0.00  0.00    +0.195 A 
ENDBRANCH   1  16
BRANCH   3  19
ATOM     19  C   UNL     1       3.757   3.167   3.196  0.00  0.00    +0.412 C 
ATOM     20  F   UNL     1       3.632   4.483   3.656  0.00  0.00    -0.168 F 
ATOM     21  F   UNL     1       3.284   2.285   4.174  0.00  0.00    -0.168 F 
ATOM     22  F   UNL     1       5.103   2.891   2.932  0.00  0.00    -0.168 F 
ENDBRANCH   3  19
TORSDOF 2
