REMARK  Name = ZINC61809668
REMARK  7 active torsions:
REMARK  status: ('A' for Active; 'I' for Inactive)
REMARK    1  A    between atoms: C_1  and  C_2
REMARK    2  A    between atoms: C_5  and  S_9
REMARK    3  A    between atoms: S_9  and  N_12
REMARK    4  A    between atoms: N_12  and  C_13
REMARK    5  A    between atoms: N_12  and  C_17
REMARK    6  A    between atoms: C_13  and  C_14
REMARK    7  A    between atoms: C_17  and  C_18
REMARK                            x       y       z     vdW  Elec       q    Type
REMARK                         _______ _______ _______ _____ _____    ______ ____
ROOT
ATOM      1  N   UNL     1       1.558  -5.005   0.505  0.00  0.00    -0.159 NA
ENDROOT
BRANCH   1   2
ATOM      2  S   UNL     1       0.030  -4.707  -0.061  0.00  0.00    +0.063 S 
ATOM      3  O   UNL     1      -0.870  -5.263   0.887  0.00  0.00    -0.153 OA
ATOM      4  O   UNL     1       0.025  -5.086  -1.431  0.00  0.00    -0.153 OA
BRANCH   2   9
ATOM      5  C   UNL     1      -0.790   1.270   0.079  0.00  0.00    +0.044 C 
ATOM      6  C   UNL     1      -0.585  -0.223   0.043  0.00  0.00    -0.049 A 
ATOM      7  C   UNL     1      -1.181  -1.026   0.998  0.00  0.00    +0.005 A 
ATOM      8  C   UNL     1      -0.993  -2.395   0.966  0.00  0.00    +0.030 A 
ATOM      9  C   UNL     1      -0.209  -2.962  -0.021  0.00  0.00    +0.119 A 
ATOM     10  C   UNL     1       0.387  -2.160  -0.977  0.00  0.00    +0.044 A 
ATOM     11  C   UNL     1       0.194  -0.790  -0.948  0.00  0.00    +0.020 A 
ATOM     12 BR   UNL     1       1.459  -2.935  -2.328  0.00  0.00    -0.048 Br
ENDBRANCH   2   9
ENDBRANCH   1   2
BRANCH   1  13
ATOM     13  C   UNL     1       1.764  -5.333   1.918  0.00  0.00    +0.205 C 
BRANCH  13  14
ATOM     14  C   UNL     1       1.742  -6.829   2.095  0.00  0.00    +0.226 C 
ATOM     15  O   UNL     1       1.571  -7.551   1.135  0.00  0.00    -0.275 OA
ATOM     16  N   UNL     1       1.912  -7.366   3.319  0.00  0.00    -0.328 N 
ATOM     17  H   UNL     1       2.049  -6.789   4.087  0.00  0.00    +0.145 HD
ATOM     18  H   UNL     1       1.898  -8.329   3.433  0.00  0.00    +0.145 HD
ENDBRANCH  13  14
ENDBRANCH   1  13
BRANCH   1  19
ATOM     19  C   UNL     1       2.703  -4.939  -0.406  0.00  0.00    +0.205 C 
BRANCH  19  20
ATOM     20  C   UNL     1       3.329  -3.571  -0.329  0.00  0.00    +0.226 C 
ATOM     21  O   UNL     1       2.865  -2.733   0.415  0.00  0.00    -0.275 OA
ATOM     22  N   UNL     1       4.406  -3.279  -1.085  0.00  0.00    -0.328 N 
ATOM     23  H   UNL     1       4.777  -3.949  -1.680  0.00  0.00    +0.145 HD
ATOM     24  H   UNL     1       4.809  -2.398  -1.036  0.00  0.00    +0.145 HD
ENDBRANCH  19  20
ENDBRANCH   1  19
TORSDOF 6
