REMARK  Name = ZINC45294054
REMARK  5 active torsions:
REMARK  status: ('A' for Active; 'I' for Inactive)
REMARK    1  A    between atoms: C_1  and  C_2
REMARK    2  A    between atoms: C_2  and  C_4
REMARK    3  A    between atoms: C_2  and  N_19
REMARK    4  A    between atoms: N_6  and  C_7
REMARK    5  A    between atoms: N_6  and  C_8
REMARK                            x       y       z     vdW  Elec       q    Type
REMARK                         _______ _______ _______ _____ _____    ______ ____
ROOT
ATOM      1  C   UNL     1      -1.313  -0.391   0.097  0.00  0.00    +0.236 C 
ATOM      2  O   UNL     1      -0.141  -0.079   0.087  0.00  0.00    -0.274 OA
ATOM      3  N   UNL     1      -2.079  -0.167  -0.990  0.00  0.00    -0.296 N 
ATOM      4  C   UNL     1      -1.473   0.355  -2.217  0.00  0.00    +0.132 C 
ENDROOT
BRANCH   3   5
ATOM      5  C   UNL     1      -3.516  -0.446  -0.943  0.00  0.00    +0.106 C 
ATOM      6  C   UNL     1      -4.289   0.863  -1.091  0.00  0.00    +0.027 C 
ATOM      7  C   UNL     1      -5.776   0.531  -1.259  0.00  0.00    +0.007 C 
ATOM      8  C   UNL     1      -5.973  -0.115  -2.629  0.00  0.00    +0.035 C 
ATOM      9  C   UNL     1      -5.003  -1.250  -2.825  0.00  0.00    -0.042 A 
ATOM     10  C   UNL     1      -3.873  -1.400  -2.053  0.00  0.00    -0.024 A 
ATOM     11  C   UNL     1      -3.016  -2.466  -2.290  0.00  0.00    +0.006 A 
ATOM     12  C   UNL     1      -3.290  -3.377  -3.290  0.00  0.00    +0.000 A 
ATOM     13  C   UNL     1      -4.426  -3.228  -4.062  0.00  0.00    +0.000 A 
ATOM     14  C   UNL     1      -5.278  -2.170  -3.828  0.00  0.00    +0.004 A 
ENDBRANCH   3   5
BRANCH   1  16
ATOM     15  C   UNL     1      -2.036  -2.537   1.106  0.00  0.00    +0.038 C 
ATOM     16  C   UNL     1      -1.914  -1.028   1.323  0.00  0.00    +0.157 C 
BRANCH  16  17
ATOM     17  N   UNL     1      -1.052  -0.769   2.480  0.00  0.00    -0.289 N 
ATOM     18  C   UNL     1      -1.573  -0.775   3.723  0.00  0.00    +0.298 C 
ATOM     19  O   UNL     1      -2.757  -0.995   3.885  0.00  0.00    -0.253 OA
ATOM     20  N   UNL     1      -0.780  -0.537   4.786  0.00  0.00    -0.313 N 
ATOM     21  H   UNL     1      -0.107  -0.593   2.350  0.00  0.00    +0.151 HD
ATOM     22  H   UNL     1       0.165  -0.361   4.657  0.00  0.00    +0.146 HD
ATOM     23  H   UNL     1      -1.154  -0.541   5.681  0.00  0.00    +0.146 HD
ENDBRANCH  16  17
ENDBRANCH   1  16
TORSDOF 3
