REMARK  Name = ZINC40707515
REMARK  5 active torsions:
REMARK  status: ('A' for Active; 'I' for Inactive)
REMARK    1  A    between atoms: C_1  and  C_2
REMARK    2  A    between atoms: C_7  and  C_18
REMARK    3  A    between atoms: C_8  and  C_10
REMARK    4  A    between atoms: C_10  and  N_11
REMARK    5  A    between atoms: C_18  and  C_19
REMARK                            x       y       z     vdW  Elec       q    Type
REMARK                         _______ _______ _______ _____ _____    ______ ____
ROOT
ATOM      1  C   UNL     1      -0.018   1.503   0.010  0.00  0.00    +0.109 C 
ATOM      2  C   UNL     1       0.002  -0.004   0.002  0.00  0.00    +0.216 C 
ATOM      3  O   UNL     1       1.060  -0.596  -0.011  0.00  0.00    -0.276 OA
ATOM      4  N   UNL     1      -1.156  -0.694   0.009  0.00  0.00    -0.265 N 
ATOM      5  C   UNL     1      -1.137  -2.084   0.002  0.00  0.00    +0.165 A 
ATOM      6  N   UNL     1      -0.095  -2.887  -0.007  0.00  0.00    -0.229 NA
ATOM      7  C   UNL     1      -0.245  -4.199  -0.013  0.00  0.00    +0.066 A 
ATOM      8  C   UNL     1      -1.515  -4.674  -0.011  0.00  0.00    +0.029 A 
ATOM      9  S   UNL     1      -2.441  -3.147   0.009  0.00  0.00    -0.055 S 
ATOM     10  H   UNL     1      -2.002  -0.220   0.020  0.00  0.00    +0.157 HD
ENDROOT
BRANCH   8  11
ATOM     11  C   UNL     1      -2.009  -6.098  -0.018  0.00  0.00    +0.128 C 
BRANCH  11  12
ATOM     12  N   UNL     1      -2.163  -6.569   1.365  0.00  0.00    -0.299 NA
ATOM     13  C   UNL     1      -3.223  -5.857   2.038  0.00  0.00    +0.083 C 
ATOM     14  C   UNL     1      -2.915  -5.581   3.524  0.00  0.00    -0.004 C 
ATOM     15  C   UNL     1      -2.260  -6.793   4.215  0.00  0.00    -0.081 C 
ATOM     16  N   UNL     1      -2.870  -8.038   3.812  0.00  0.00    +0.380 N 
ATOM     17  C   UNL     1      -2.073  -8.602   2.705  0.00  0.00    -0.067 C 
ATOM     18  C   UNL     1      -2.415  -8.031   1.404  0.00  0.00    +0.066 C 
ATOM     19  H   UNL     1      -2.878  -8.681   4.589  0.00  0.00    -0.086 HD
ATOM     20  H   UNL     1      -3.815  -7.869   3.499  0.00  0.00    -0.086 HD
ENDBRANCH  11  12
ENDBRANCH   8  11
BRANCH   7  21
ATOM     21  C   UNL     1       0.942  -5.126  -0.024  0.00  0.00    +0.181 C 
BRANCH  21  22
ATOM     22  C   UNL     1       1.344  -5.444   1.394  0.00  0.00    +0.362 C 
ATOM     23  O   UNL     1       0.723  -4.962   2.326  0.00  0.00    -0.246 OA
ATOM     24  O   UNL     1       2.289  -6.183   1.609  0.00  0.00    -0.246 OA
ENDBRANCH  21  22
ENDBRANCH   7  21
TORSDOF 4
