REMARK  Name = ZINC01233927
REMARK  7 active torsions:
REMARK  status: ('A' for Active; 'I' for Inactive)
REMARK    1  A    between atoms: C_1  and  O_2
REMARK    2  A    between atoms: O_2  and  C_3
REMARK    3  A    between atoms: C_6  and  O_9
REMARK    4  A    between atoms: O_9  and  C_10
REMARK    5  A    between atoms: C_10  and  C_12
REMARK    6  A    between atoms: C_10  and  N_16
REMARK    7  A    between atoms: N_19  and  C_20
REMARK                            x       y       z     vdW  Elec       q    Type
REMARK                         _______ _______ _______ _____ _____    ______ ____
ROOT
ATOM      1  C   UNL     1      -0.409   2.240   1.177  0.00  0.00    +0.315 C 
ENDROOT
BRANCH   1   2
ATOM      2  N   UNL     1      -0.727   3.662   1.027  0.00  0.00    -0.261 N 
ATOM      3  C   UNL     1      -1.969   4.107   1.304  0.00  0.00    +0.307 C 
ATOM      4  O   UNL     1      -2.799   3.347   1.764  0.00  0.00    -0.252 OA
ATOM      5  N   UNL     1      -2.290   5.395   1.070  0.00  0.00    -0.269 N 
ATOM      6  H   UNL     1      -0.044   4.283   0.728  0.00  0.00    +0.154 HD
ATOM      7  H   UNL     1      -1.610   6.019   0.772  0.00  0.00    +0.156 HD
BRANCH   5   8
ATOM      8  C   UNL     1      -3.606   5.833   1.258  0.00  0.00    +0.035 A 
ATOM      9  C   UNL     1      -4.142   6.804   0.422  0.00  0.00    +0.023 A 
ATOM     10  C   UNL     1      -5.443   7.231   0.607  0.00  0.00    +0.002 A 
ATOM     11  C   UNL     1      -6.208   6.699   1.629  0.00  0.00    +0.000 A 
ATOM     12  C   UNL     1      -5.675   5.736   2.466  0.00  0.00    +0.002 A 
ATOM     13  C   UNL     1      -4.377   5.301   2.283  0.00  0.00    +0.023 A 
ENDBRANCH   5   8
ENDBRANCH   1   2
BRANCH   1  14
ATOM     14  C   UNL     1       0.512   1.800   0.036  0.00  0.00    +0.244 C 
ATOM     15 CL   UNL     1       0.904   0.050   0.221  0.00  0.00    -0.078 Cl
ATOM     16 CL   UNL     1       2.034   2.766   0.086  0.00  0.00    -0.078 Cl
ATOM     17 CL   UNL     1      -0.318   2.067  -1.542  0.00  0.00    -0.078 Cl
ENDBRANCH   1  14
BRANCH   1  18
ATOM     18  O   UNL     1       0.249   2.029   2.428  0.00  0.00    -0.467 OA
BRANCH  18  22
ATOM     19  C   UNL     1      -0.618  -1.475   4.432  0.00  0.00    +0.120 A 
ATOM     20  C   UNL     1       0.227  -0.538   5.007  0.00  0.00    +0.049 A 
ATOM     21  C   UNL     1       0.517   0.635   4.337  0.00  0.00    +0.049 A 
ATOM     22  C   UNL     1      -0.037   0.874   3.088  0.00  0.00    +0.124 A 
ATOM     23  C   UNL     1      -0.886  -0.061   2.515  0.00  0.00    +0.049 A 
ATOM     24  C   UNL     1      -1.172  -1.235   3.183  0.00  0.00    +0.049 A 
BRANCH  19  26
ATOM     25  C   UNL     1      -1.780  -3.550   4.439  0.00  0.00    +0.277 C 
ATOM     26  O   UNL     1      -0.903  -2.629   5.092  0.00  0.00    -0.495 OA
ENDBRANCH  19  26
ENDBRANCH  18  22
ENDBRANCH   1  18
TORSDOF 6
