REMARK  Name = ZINC36132175
REMARK  7 active torsions:
REMARK  status: ('A' for Active; 'I' for Inactive)
REMARK    1  A    between atoms: C_1  and  N_2
REMARK    2  A    between atoms: N_2  and  C_3
REMARK    3  A    between atoms: C_4  and  C_6
REMARK    4  A    between atoms: N_11  and  C_12
REMARK    5  A    between atoms: C_15  and  S_19
REMARK    6  A    between atoms: C_17  and  N_18
REMARK    7  A    between atoms: S_19  and  N_22
REMARK                            x       y       z     vdW  Elec       q    Type
REMARK                         _______ _______ _______ _____ _____    ______ ____
ROOT
ATOM      1  C   UNL     1      -1.504  -2.123  -3.577  0.00  0.00    +0.051 A 
ATOM      2  C   UNL     1      -1.152  -1.057  -4.391  0.00  0.00    +0.027 A 
ATOM      3  C   UNL     1      -2.031  -0.608  -5.360  0.00  0.00    +0.030 A 
ATOM      4  C   UNL     1      -3.260  -1.219  -5.521  0.00  0.00    +0.107 A 
ATOM      5  C   UNL     1      -3.619  -2.283  -4.713  0.00  0.00    +0.053 A 
ATOM      6  C   UNL     1      -2.743  -2.743  -3.743  0.00  0.00    +0.048 A 
ENDROOT
BRANCH   1  11
ATOM      7  C   UNL     1      -0.556  -2.104  -1.206  0.00  0.00    +0.160 C 
ATOM      8  C   UNL     1       0.548  -2.909  -0.489  0.00  0.00    +0.033 C 
ATOM      9  C   UNL     1       0.668  -4.187  -1.361  0.00  0.00    +0.021 C 
ATOM     10  C   UNL     1       0.417  -3.620  -2.781  0.00  0.00    +0.106 C 
ATOM     11  N   UNL     1      -0.616  -2.580  -2.596  0.00  0.00    -0.317 N 
BRANCH   7  15
ATOM     12  C   UNL     1      -0.415   1.584  -0.195  0.00  0.00    +0.131 C 
ATOM     13  N   UNL     1      -0.649   0.138  -0.165  0.00  0.00    -0.306 N 
ATOM     14  C   UNL     1      -1.351  -0.467   0.970  0.00  0.00    +0.131 C 
ATOM     15  C   UNL     1      -0.218  -0.636  -1.181  0.00  0.00    +0.236 C 
ATOM     16  O   UNL     1       0.441  -0.150  -2.076  0.00  0.00    -0.274 OA
ENDBRANCH   7  15
ENDBRANCH   1  11
BRANCH   6  17
ATOM     17  N   UNL     1      -3.102  -3.823  -2.928  0.00  0.00    -0.356 N 
ATOM     18  H   UNL     1      -2.489  -4.142  -2.247  0.00  0.00    +0.142 HD
ATOM     19  H   UNL     1      -3.964  -4.253  -3.044  0.00  0.00    +0.142 HD
ENDBRANCH   6  17
BRANCH   4  20
ATOM     20  S   UNL     1      -4.374  -0.640  -6.757  0.00  0.00    +0.056 S 
ATOM     21  O   UNL     1      -5.677  -1.026  -6.344  0.00  0.00    -0.153 OA
ATOM     22  O   UNL     1      -4.027   0.714  -7.015  0.00  0.00    -0.153 OA
BRANCH  20  23
ATOM     23  N   UNL     1      -4.048  -1.484  -8.144  0.00  0.00    -0.204 NA
ATOM     24  H   UNL     1      -3.345  -2.153  -8.151  0.00  0.00    +0.144 HD
ATOM     25  H   UNL     1      -4.559  -1.310  -8.950  0.00  0.00    +0.144 HD
ENDBRANCH  20  23
ENDBRANCH   4  20
TORSDOF 5
