REMARK  Name = ZINC65179960
REMARK  8 active torsions:
REMARK  status: ('A' for Active; 'I' for Inactive)
REMARK    1  A    between atoms: C_1  and  C_2
REMARK    2  A    between atoms: C_2  and  C_3
REMARK    3  A    between atoms: C_2  and  C_4
REMARK    4  A    between atoms: C_4  and  N_5
REMARK    5  A    between atoms: N_8  and  N_9
REMARK    6  A    between atoms: C_10  and  C_12
REMARK    7  A    between atoms: C_17  and  S_18
REMARK    8  A    between atoms: S_18  and  N_21
REMARK                            x       y       z     vdW  Elec       q    Type
REMARK                         _______ _______ _______ _____ _____    ______ ____
ROOT
ATOM      1  C   UNL     1      -0.074  -6.753  -0.763  0.00  0.00    +0.064 A 
ATOM      2  C   UNL     1       1.110  -6.027  -0.909  0.00  0.00    +0.015 A 
ATOM      3  C   UNL     1       2.317  -6.690  -0.981  0.00  0.00    +0.001 A 
ATOM      4  C   UNL     1       2.358  -8.071  -0.908  0.00  0.00    +0.002 A 
ATOM      5  C   UNL     1       1.189  -8.797  -0.763  0.00  0.00    +0.029 A 
ATOM      6  C   UNL     1      -0.025  -8.146  -0.684  0.00  0.00    +0.118 A 
ENDROOT
BRANCH   1   8
ATOM      7  N   UNL     1      -1.430  -4.719  -0.889  0.00  0.00    -0.229 N 
ATOM      8  C   UNL     1      -1.371  -6.050  -0.684  0.00  0.00    +0.262 C 
ATOM      9  O   UNL     1      -2.386  -6.671  -0.436  0.00  0.00    -0.269 OA
ATOM     10  H   UNL     1      -0.620  -4.223  -1.087  0.00  0.00    +0.173 HD
BRANCH   7  14
ATOM     11  N   UNL     1      -1.593  -2.032  -1.295  0.00  0.00    -0.298 N 
ATOM     12  C   UNL     1      -2.718  -2.721  -1.020  0.00  0.00    +0.316 C 
ATOM     13  O   UNL     1      -3.786  -2.143  -0.955  0.00  0.00    -0.251 OA
ATOM     14  N   UNL     1      -2.660  -4.052  -0.815  0.00  0.00    -0.218 N 
ATOM     15  H   UNL     1      -0.742  -2.493  -1.347  0.00  0.00    +0.150 HD
ATOM     16  H   UNL     1      -3.469  -4.548  -0.617  0.00  0.00    +0.174 HD
BRANCH  11  17
ATOM     17  C   UNL     1      -1.657  -0.585  -1.518  0.00  0.00    +0.108 C 
BRANCH  17  19
ATOM     18  C   UNL     1      -0.335   1.434  -2.164  0.00  0.00    +0.009 C 
ATOM     19  C   UNL     1      -0.253  -0.052  -1.809  0.00  0.00    -0.000 C 
ATOM     20  C   UNL     1       0.629  -0.233  -0.572  0.00  0.00    +0.009 C 
ENDBRANCH  17  19
ENDBRANCH  11  17
ENDBRANCH   7  14
ENDBRANCH   1   8
BRANCH   6  21
ATOM     21  S   UNL     1      -1.512  -9.071  -0.492  0.00  0.00    +0.062 S 
ATOM     22  O   UNL     1      -1.853  -9.012   0.886  0.00  0.00    -0.153 OA
ATOM     23  O   UNL     1      -2.397  -8.634  -1.514  0.00  0.00    -0.153 OA
BRANCH  21  24
ATOM     24  N   UNL     1      -1.151 -10.653  -0.823  0.00  0.00    -0.177 NA
ATOM     25  C   UNL     1      -1.093 -11.133  -2.210  0.00  0.00    +0.109 C 
ATOM     26  C   UNL     1       0.260 -11.814  -2.440  0.00  0.00    +0.017 C 
ATOM     27  C   UNL     1       0.462 -12.907  -1.388  0.00  0.00    +0.003 C 
ATOM     28  C   UNL     1       0.469 -12.278   0.007  0.00  0.00    +0.017 C 
ATOM     29  C   UNL     1      -0.876 -11.601   0.265  0.00  0.00    +0.109 C 
ENDBRANCH  21  24
ENDBRANCH   6  21
TORSDOF 6
