REMARK  Name = ZINC37895793
REMARK  7 active torsions:
REMARK  status: ('A' for Active; 'I' for Inactive)
REMARK    1  A    between atoms: C_1  and  C_2
REMARK    2  A    between atoms: C_3  and  C_12
REMARK    3  A    between atoms: C_4  and  S_10
REMARK    4  A    between atoms: S_10  and  C_11
REMARK    5  A    between atoms: C_19  and  C_21
REMARK    6  A    between atoms: C_21  and  C_22
REMARK    7  A    between atoms: C_22  and  O_23
REMARK                            x       y       z     vdW  Elec       q    Type
REMARK                         _______ _______ _______ _____ _____    ______ ____
ROOT
ATOM      1  C   UNL     1      -2.482  -0.037   0.008  0.00  0.00    +0.251 C 
ATOM      2  O   UNL     1      -2.534   1.173   0.120  0.00  0.00    -0.270 OA
ATOM      3  N   UNL     1      -3.620  -0.752  -0.097  0.00  0.00    -0.294 N 
ATOM      4  C   UNL     1      -3.581  -2.221  -0.109  0.00  0.00    +0.108 C 
ATOM      5  C   UNL     1      -4.525  -2.748   0.976  0.00  0.00    +0.019 C 
ATOM      6  C   UNL     1      -5.920  -2.154   0.765  0.00  0.00    +0.003 C 
ATOM      7  C   UNL     1      -5.850  -0.630   0.884  0.00  0.00    +0.022 C 
ATOM      8  C   UNL     1      -4.922  -0.079  -0.196  0.00  0.00    +0.078 C 
ENDROOT
BRANCH   1  11
ATOM      9  C   UNL     1      -0.568   0.393   2.153  0.00  0.00    +0.064 C 
ATOM     10  C   UNL     1      -0.256  -0.526   1.000  0.00  0.00    +0.032 A 
ATOM     11  C   UNL     1      -1.178  -0.719  -0.012  0.00  0.00    +0.088 A 
ATOM     12  C   UNL     1      -0.817  -1.626  -1.108  0.00  0.00    +0.116 A 
ATOM     13  N   UNL     1       0.371  -2.218  -1.080  0.00  0.00    -0.186 NA
ATOM     14  C   UNL     1       1.220  -1.995  -0.080  0.00  0.00    +0.347 A 
ATOM     15  O   UNL     1       2.302  -2.557  -0.090  0.00  0.00    -0.245 OA
ATOM     16  N   UNL     1       0.929  -1.169   0.937  0.00  0.00    -0.310 N 
ATOM     17  H   UNL     1       1.581  -1.034   1.643  0.00  0.00    +0.170 HD
BRANCH  12  18
ATOM     18  S   UNL     1      -1.937  -1.925  -2.435  0.00  0.00    -0.108 S 
ATOM     19  C   UNL     1      -1.049  -3.087  -3.507  0.00  0.00    +0.091 C 
ENDBRANCH  12  18
ENDBRANCH   1  11
BRANCH   8  20
ATOM     20  C   UNL     1      -4.737   1.426   0.008  0.00  0.00    +0.050 C 
BRANCH  20  21
ATOM     21  C   UNL     1      -6.095   2.125  -0.098  0.00  0.00    +0.157 C 
BRANCH  21  22
ATOM     22  O   UNL     1      -5.939   3.514   0.200  0.00  0.00    -0.395 OA
ATOM     23  H   UNL     1      -6.762   4.021   0.151  0.00  0.00    +0.209 HD
ENDBRANCH  21  22
ENDBRANCH  20  21
ENDBRANCH   8  20
TORSDOF 5
