REMARK  Name = ZINC32707991
REMARK  5 active torsions:
REMARK  status: ('A' for Active; 'I' for Inactive)
REMARK    1  A    between atoms: C_5  and  C_7
REMARK    2  A    between atoms: N_11  and  C_15
REMARK    3  A    between atoms: C_15  and  C_17
REMARK    4  A    between atoms: C_15  and  C_21
REMARK    5  A    between atoms: C_17  and  C_18
REMARK                            x       y       z     vdW  Elec       q    Type
REMARK                         _______ _______ _______ _____ _____    ______ ____
ROOT
ATOM      1  C   UNL     1       1.255  -2.153  -0.022  0.00  0.00    +0.029 C 
ATOM      2  C   UNL     1       0.099  -2.855   0.087  0.00  0.00    +0.077 C 
ATOM      3  C   UNL     1      -1.297  -2.372   0.119  0.00  0.00    +0.259 C 
ATOM      4  O   UNL     1      -1.566  -1.187   0.043  0.00  0.00    -0.269 OA
ATOM      5  N   UNL     1      -2.240  -3.292   0.234  0.00  0.00    -0.241 N 
ATOM      6  C   UNL     1      -1.937  -4.604   0.318  0.00  0.00    +0.121 C 
ATOM      7  S   UNL     1      -3.005  -5.934   0.469  0.00  0.00    -0.027 S 
ATOM      8  S   UNL     1      -0.154  -4.619   0.225  0.00  0.00    -0.061 S 
ENDROOT
BRANCH   1  13
ATOM      9  C   UNL     1       0.400   1.342   1.032  0.00  0.00    +0.001 A 
ATOM     10  C   UNL     1       1.188   2.083   0.168  0.00  0.00    +0.001 A 
ATOM     11  C   UNL     1       1.998   1.450  -0.757  0.00  0.00    +0.020 A 
ATOM     12  C   UNL     1       2.026   0.072  -0.827  0.00  0.00    +0.048 A 
ATOM     13  C   UNL     1       1.232  -0.685   0.044  0.00  0.00    -0.005 A 
ATOM     14  C   UNL     1       0.416  -0.035   0.977  0.00  0.00    +0.009 A 
ATOM     15 CL   UNL     1       3.042  -0.721  -1.990  0.00  0.00    -0.083 Cl
ENDBRANCH   1  13
BRANCH   5  16
ATOM     16  C   UNL     1      -3.644  -2.878   0.272  0.00  0.00    +0.206 C 
BRANCH  16  17
ATOM     17  C   UNL     1      -4.385  -3.507  -0.880  0.00  0.00    +0.377 C 
ATOM     18  O   UNL     1      -3.848  -4.372  -1.551  0.00  0.00    -0.244 OA
ATOM     19  O   UNL     1      -5.521  -3.151  -1.141  0.00  0.00    -0.244 OA
ENDBRANCH  16  17
BRANCH  16  20
ATOM     20  C   UNL     1      -4.274  -3.331   1.591  0.00  0.00    +0.159 C 
BRANCH  20  21
ATOM     21  C   UNL     1      -3.614  -2.608   2.737  0.00  0.00    +0.358 C 
ATOM     22  O   UNL     1      -2.723  -1.805   2.519  0.00  0.00    -0.246 OA
ATOM     23  O   UNL     1      -3.971  -2.826   3.882  0.00  0.00    -0.246 OA
ENDBRANCH  20  21
ENDBRANCH  16  20
ENDBRANCH   5  16
TORSDOF 5
