REMARK  Name = ZINC53113207
REMARK  8 active torsions:
REMARK  status: ('A' for Active; 'I' for Inactive)
REMARK    1  A    between atoms: C_1  and  C_2
REMARK    2  A    between atoms: C_7  and  C_9
REMARK    3  A    between atoms: C_7  and  N_11
REMARK    4  A    between atoms: C_9  and  O_10
REMARK    5  A    between atoms: N_11  and  S_12
REMARK    6  A    between atoms: S_12  and  C_15
REMARK    7  A    between atoms: C_15  and  C_16
REMARK    8  A    between atoms: C_19  and  N_22
REMARK                            x       y       z     vdW  Elec       q    Type
REMARK                         _______ _______ _______ _____ _____    ______ ____
ROOT
ATOM      1  S   UNL     1       1.368   2.358   3.185  0.00  0.00    +0.034 S 
ATOM      2  O   UNL     1       0.949   3.687   3.464  0.00  0.00    -0.158 OA
ATOM      3  O   UNL     1       1.845   1.515   4.224  0.00  0.00    -0.158 OA
ENDROOT
BRANCH   1   4
ATOM      4  N   UNL     1       0.011   1.599   2.614  0.00  0.00    -0.186 NA
ATOM      5  H   UNL     1      -0.840   2.063   2.613  0.00  0.00    +0.148 HD
BRANCH   4  11
ATOM      6  C   UNL     1      -0.510   2.472   0.331  0.00  0.00    +0.007 C 
ATOM      7  C   UNL     1      -0.420   1.038  -0.195  0.00  0.00    -0.012 C 
ATOM      8  C   UNL     1      -1.799   0.379  -0.117  0.00  0.00    +0.003 C 
ATOM      9  C   UNL     1      -2.274   0.360   1.337  0.00  0.00    +0.002 C 
ATOM     10  C   UNL     1      -1.281  -0.434   2.188  0.00  0.00    +0.026 C 
ATOM     11  C   UNL     1       0.098   0.225   2.111  0.00  0.00    +0.063 C 
ATOM     12  C   UNL     1       0.573   0.244   0.656  0.00  0.00    +0.029 C 
BRANCH  11  13
ATOM     13  C   UNL     1       1.091  -0.568   2.962  0.00  0.00    +0.179 C 
BRANCH  13  14
ATOM     14  O   UNL     1       0.654  -0.574   4.322  0.00  0.00    -0.393 OA
ATOM     15  H   UNL     1       1.194  -1.123   4.907  0.00  0.00    +0.209 HD
ENDBRANCH  13  14
ENDBRANCH  11  13
ENDBRANCH   4  11
ENDBRANCH   1   4
BRANCH   1  16
ATOM     16  C   UNL     1       2.529   2.349   1.790  0.00  0.00    +0.220 C 
BRANCH  16  17
ATOM     17  C   UNL     1       3.794   3.065   2.186  0.00  0.00    -0.025 A 
ATOM     18  C   UNL     1       3.909   4.428   1.980  0.00  0.00    +0.007 A 
ATOM     19  C   UNL     1       5.067   5.087   2.341  0.00  0.00    +0.023 A 
ATOM     20  C   UNL     1       6.118   4.380   2.912  0.00  0.00    +0.025 A 
ATOM     21  C   UNL     1       6.000   3.011   3.117  0.00  0.00    +0.023 A 
ATOM     22  C   UNL     1       4.836   2.359   2.759  0.00  0.00    +0.007 A 
BRANCH  20  23
ATOM     23  N   UNL     1       7.291   5.044   3.278  0.00  0.00    -0.358 N 
ATOM     24  H   UNL     1       7.373   6.000   3.134  0.00  0.00    +0.142 HD
ATOM     25  H   UNL     1       8.024   4.549   3.676  0.00  0.00    +0.142 HD
ENDBRANCH  20  23
ENDBRANCH  16  17
ENDBRANCH   1  16
TORSDOF 7
