REMARK  Name = ZINC37174184
REMARK  6 active torsions:
REMARK  status: ('A' for Active; 'I' for Inactive)
REMARK    1  A    between atoms: C_1  and  N_2
REMARK    2  A    between atoms: N_2  and  C_3
REMARK    3  A    between atoms: N_2  and  C_16
REMARK    4  A    between atoms: C_3  and  C_4
REMARK    5  A    between atoms: N_6  and  C_7
REMARK    6  A    between atoms: C_10  and  N_14
REMARK                            x       y       z     vdW  Elec       q    Type
REMARK                         _______ _______ _______ _____ _____    ______ ____
ROOT
ATOM      1  C   UNL     1      -0.031  -1.384  -2.793  0.00  0.00    +0.201 C 
ATOM      2  O   UNL     1      -1.090  -1.958  -2.941  0.00  0.00    -0.278 OA
ATOM      3  N   UNL     1       0.336  -0.414  -3.654  0.00  0.00    -0.285 N 
ATOM      4  H   UNL     1       1.147   0.094  -3.495  0.00  0.00    +0.155 HD
ENDROOT
BRANCH   3   5
ATOM      5  C   UNL     1      -0.454  -0.140  -4.780  0.00  0.00    +0.070 A 
ATOM      6  C   UNL     1      -1.458   0.817  -4.708  0.00  0.00    +0.065 A 
ATOM      7  C   UNL     1      -2.237   1.087  -5.817  0.00  0.00    +0.044 A 
ATOM      8  C   UNL     1      -2.015   0.401  -7.005  0.00  0.00    +0.027 A 
ATOM      9  C   UNL     1      -1.011  -0.556  -7.077  0.00  0.00    +0.044 A 
ATOM     10  C   UNL     1      -0.228  -0.821  -5.969  0.00  0.00    +0.065 A 
ATOM     11 CL   UNL     1       1.032  -2.012  -6.062  0.00  0.00    -0.082 Cl
ATOM     12 CL   UNL     1      -1.737   1.673  -3.223  0.00  0.00    -0.082 Cl
BRANCH   8  13
ATOM     13  N   UNL     1      -2.803   0.674  -8.128  0.00  0.00    -0.358 N 
ATOM     14  H   UNL     1      -3.504   1.343  -8.077  0.00  0.00    +0.142 HD
ATOM     15  H   UNL     1      -2.647   0.196  -8.957  0.00  0.00    +0.142 HD
ENDBRANCH   8  13
ENDBRANCH   3   5
BRANCH   1  16
ATOM     16  C   UNL     1       0.873  -1.755  -1.646  0.00  0.00    +0.019 C 
BRANCH  16  18
ATOM     17  C   UNL     1      -0.982  -2.330  -0.237  0.00  0.00    -0.095 C 
ATOM     18  N   UNL     1       0.251  -2.829  -0.860  0.00  0.00    +0.386 N 
ATOM     19  H   UNL     1       0.031  -3.605  -1.467  0.00  0.00    -0.081 HD
BRANCH  18  20
ATOM     20  C   UNL     1       1.183  -3.274   0.185  0.00  0.00    -0.058 C 
ATOM     21  C   UNL     1       2.482  -3.729  -0.479  0.00  0.00    -0.004 C 
ATOM     22  C   UNL     1       3.182  -4.809   0.392  0.00  0.00    +0.067 C 
ATOM     23  S   UNL     1       1.703  -5.768   0.941  0.00  0.00    -0.162 S 
ATOM     24  C   UNL     1       0.502  -4.378   1.016  0.00  0.00    +0.054 C 
ENDBRANCH  18  20
ENDBRANCH  16  18
ENDBRANCH   1  16
TORSDOF 5
