REMARK  Name = ZINC29042186
REMARK  4 active torsions:
REMARK  status: ('A' for Active; 'I' for Inactive)
REMARK    1  A    between atoms: C_4  and  O_19
REMARK    2  A    between atoms: C_6  and  O_18
REMARK    3  A    between atoms: C_8  and  O_17
REMARK    4  A    between atoms: C_10  and  O_16
REMARK                            x       y       z     vdW  Elec       q    Type
REMARK                         _______ _______ _______ _____ _____    ______ ____
ROOT
ATOM      1  C   UNL     1      -0.809   1.631   1.204  0.00  0.00    +0.256 C 
ATOM      2  C   UNL     1      -0.013   1.086   0.008  0.00  0.00    +0.148 C 
ATOM      3  C   UNL     1       1.406   1.663  -0.002  0.00  0.00    +0.169 C 
ATOM      4  C   UNL     1       2.045   1.374  -1.364  0.00  0.00    +0.177 C 
ATOM      5  C   UNL     1       1.272   2.082  -2.477  0.00  0.00    +0.192 C 
ATOM      6  C   UNL     1      -0.166   1.545  -2.533  0.00  0.00    +0.237 C 
ATOM      7  N   UNL     1      -0.718   1.625  -1.174  0.00  0.00    -0.259 N 
ATOM      8  C   UNL     1      -1.859   2.189  -0.774  0.00  0.00    +0.233 C 
ATOM      9  S   UNL     1      -3.056   2.754  -1.860  0.00  0.00    +0.006 S 
ATOM     10  O   UNL     1      -1.979   2.270   0.559  0.00  0.00    -0.472 OA
ENDROOT
BRANCH   6  11
ATOM     11  O   UNL     1      -0.160   0.186  -2.977  0.00  0.00    -0.371 OA
ATOM     12  H   UNL     1      -1.107  -0.364  -3.077  0.00  0.00    +0.212 HD
ENDBRANCH   6  11
BRANCH   5  13
ATOM     13  O   UNL     1       1.916   1.843  -3.730  0.00  0.00    -0.385 OA
ATOM     14  H   UNL     1       1.502   2.275  -4.653  0.00  0.00    +0.210 HD
ENDBRANCH   5  13
BRANCH   4  15
ATOM     15  O   UNL     1       3.397   1.837  -1.360  0.00  0.00    -0.386 OA
ATOM     16  H   UNL     1       4.022   1.716  -2.257  0.00  0.00    +0.210 HD
ENDBRANCH   4  15
BRANCH   3  17
ATOM     17  O   UNL     1       2.180   1.050   1.030  0.00  0.00    -0.387 OA
ATOM     18  H   UNL     1       3.231   1.341   1.176  0.00  0.00    +0.210 HD
ENDBRANCH   3  17
TORSDOF 4
