REMARK  Name = ZINC35381982
REMARK  3 active torsions:
REMARK  status: ('A' for Active; 'I' for Inactive)
REMARK    1  A    between atoms: C_5  and  C_6
REMARK    2  A    between atoms: C_6  and  C_8
REMARK    3  A    between atoms: C_6  and  N_19
REMARK                            x       y       z     vdW  Elec       q    Type
REMARK                         _______ _______ _______ _____ _____    ______ ____
ROOT
ATOM      1  C   UNL     1      -1.208  -0.902   0.009  0.00  0.00    +0.025 C 
ENDROOT
BRANCH   1   2
ATOM      2  C   UNL     1      -1.451  -1.407   1.408  0.00  0.00    -0.037 A 
ATOM      3  C   UNL     1      -0.943  -2.632   1.798  0.00  0.00    +0.053 A 
ATOM      4  C   UNL     1      -1.163  -3.098   3.085  0.00  0.00    +0.162 A 
ATOM      5  C   UNL     1      -1.895  -2.330   3.983  0.00  0.00    +0.163 A 
ATOM      6  C   UNL     1      -2.405  -1.103   3.586  0.00  0.00    +0.065 A 
ATOM      7  C   UNL     1      -2.177  -0.641   2.302  0.00  0.00    +0.024 A 
ATOM      8 BR   UNL     1      -2.866   1.036   1.767  0.00  0.00    -0.050 Br
ATOM      9  O   UNL     1      -2.117  -2.766   5.253  0.00  0.00    -0.485 OA
ATOM     10  C   UNL     1      -1.911  -4.162   5.500  0.00  0.00    +0.270 C 
ATOM     11  C   UNL     1      -0.579  -4.572   4.857  0.00  0.00    +0.270 C 
ATOM     12  O   UNL     1      -0.659  -4.308   3.452  0.00  0.00    -0.485 OA
ENDBRANCH   1   2
BRANCH   1  17
ATOM     13  C   UNL     1      -0.016   1.341   0.009  0.00  0.00    +0.044 A 
ATOM     14  C   UNL     1       1.331   1.769  -0.001  0.00  0.00    +0.057 A 
ATOM     15  C   UNL     1       2.093   0.659  -0.014  0.00  0.00    +0.170 A 
ATOM     16  O   UNL     1       1.282  -0.412  -0.012  0.00  0.00    -0.454 OA
ATOM     17  C   UNL     1       0.002  -0.004   0.002  0.00  0.00    +0.096 A 
ATOM     18 BR   UNL     1       3.983   0.615  -0.034  0.00  0.00    -0.008 Br
ENDBRANCH   1  17
BRANCH   1  19
ATOM     19  N   UNL     1      -0.979  -2.041  -0.889  0.00  0.00    +0.387 N 
ATOM     20  H   UNL     1      -1.789  -2.642  -0.885  0.00  0.00    -0.089 HD
ATOM     21  H   UNL     1      -0.816  -1.703  -1.826  0.00  0.00    -0.089 HD
ATOM     22  H   UNL     1      -0.173  -2.560  -0.575  0.00  0.00    -0.089 HD
ENDBRANCH   1  19
TORSDOF 3
