REMARK  Name = ZINC05489473
REMARK  4 active torsions:
REMARK  status: ('A' for Active; 'I' for Inactive)
REMARK    1  A    between atoms: C_1  and  C_2
REMARK    2  A    between atoms: C_2  and  C_3
REMARK    3  A    between atoms: C_10  and  N_19
REMARK    4  A    between atoms: C_11  and  C_17
REMARK                            x       y       z     vdW  Elec       q    Type
REMARK                         _______ _______ _______ _____ _____    ______ ____
ROOT
ATOM      1  C   UNL     1       2.147   0.624   0.056  0.00  0.00    +0.044 A 
ATOM      2  C   UNL     1       1.286  -0.456   0.273  0.00  0.00    +0.048 A 
ATOM      3  C   UNL     1       0.037   0.009   0.380  0.00  0.00    +0.245 A 
ATOM      4  N   UNL     1      -0.006   1.327   0.171  0.00  0.00    -0.135 NA
ATOM      5  N   UNL     1       1.365   1.770  -0.020  0.00  0.00    -0.278 N 
ATOM      6  H   UNL     1       1.680   2.706  -0.175  0.00  0.00    +0.189 HD
ATOM      7  O   UNL     1      -1.035  -0.763   0.576  0.00  0.00    -0.422 OA
ATOM      8  C   UNL     1      -0.798  -1.992   1.102  0.00  0.00    +0.200 C 
ATOM      9  C   UNL     1       0.372  -2.538   1.121  0.00  0.00    +0.097 C 
ATOM     10  C   UNL     1       1.598  -1.860   0.483  0.00  0.00    +0.039 C 
ATOM     11  C   UNL     1       2.825  -2.064   1.452  0.00  0.00    -0.002 C 
ATOM     12  C   UNL     1       4.125  -2.571   0.951  0.00  0.00    -0.081 C 
ATOM     13  C   UNL     1       3.234  -2.645  -1.328  0.00  0.00    -0.081 C 
ATOM     14  C   UNL     1       1.852  -2.503  -0.917  0.00  0.00    -0.002 C 
ATOM     15  N   UNL     1       3.968  -3.414  -0.212  0.00  0.00    +0.379 N 
ATOM     16  H   UNL     1       3.423  -4.246   0.042  0.00  0.00    -0.086 HD
ATOM     17  H   UNL     1       4.894  -3.701  -0.551  0.00  0.00    -0.086 HD
ENDROOT
BRANCH   8  18
ATOM     18  N   UNL     1      -1.829  -2.602   1.658  0.00  0.00    -0.328 N 
ATOM     19  H   UNL     1      -1.710  -3.465   2.083  0.00  0.00    +0.145 HD
ATOM     20  H   UNL     1      -2.705  -2.186   1.640  0.00  0.00    +0.145 HD
ENDBRANCH   8  18
BRANCH   1  22
ATOM     21  C   UNL     1       4.102   2.043  -0.327  0.00  0.00    +0.010 C 
ATOM     22  C   UNL     1       3.595   0.609  -0.161  0.00  0.00    +0.052 C 
ENDBRANCH   1  22
BRANCH   9  23
ATOM     23  C   UNL     1       0.521  -3.858   1.585  0.00  0.00    +0.101 C 
ATOM     24  N   UNL     1       0.642  -4.923   1.960  0.00  0.00    -0.191 NA
ENDBRANCH   9  23
TORSDOF 3
