REMARK  Name = ZINC13639013
REMARK  5 active torsions:
REMARK  status: ('A' for Active; 'I' for Inactive)
REMARK    1  A    between atoms: C_1  and  C_2
REMARK    2  A    between atoms: C_5  and  C_21
REMARK    3  A    between atoms: C_5  and  C_22
REMARK    4  A    between atoms: C_13  and  N_16
REMARK    5  A    between atoms: C_14  and  O_15
REMARK                            x       y       z     vdW  Elec       q    Type
REMARK                         _______ _______ _______ _____ _____    ______ ____
ROOT
ATOM      1  C   UNL     1      -0.019   1.526   0.010  0.00  0.00    +0.012 C 
ATOM      2  C   UNL     1       0.002  -0.004   0.002  0.00  0.00    +0.020 C 
ATOM      3  C   UNL     1      -1.436  -0.534   0.012  0.00  0.00    +0.036 C 
ATOM      4  C   UNL     1      -1.490  -2.065   0.088  0.00  0.00    +0.044 C 
ATOM      5  N   UNL     1      -0.729  -2.498   1.270  0.00  0.00    -0.304 N 
ATOM      6  C   UNL     1       0.301  -1.713   1.750  0.00  0.00    +0.058 A 
ATOM      7  C   UNL     1       0.729  -0.501   1.217  0.00  0.00    -0.020 A 
ATOM      8  C   UNL     1       1.774   0.114   1.860  0.00  0.00    +0.006 A 
ATOM      9  C   UNL     1       2.359  -0.464   2.982  0.00  0.00    +0.001 A 
ATOM     10  C   UNL     1       1.938  -1.675   3.518  0.00  0.00    +0.012 A 
ATOM     11  C   UNL     1       0.879  -2.311   2.876  0.00  0.00    +0.031 A 
ATOM     12  C   UNL     1       0.128  -3.551   3.070  0.00  0.00    +0.152 A 
ATOM     13  C   UNL     1      -0.840  -3.596   2.047  0.00  0.00    +0.222 A 
ATOM     14  C   UNL     1      -0.868  -2.666  -1.174  0.00  0.00    +0.034 C 
ATOM     15  C   UNL     1      -2.944  -2.524   0.215  0.00  0.00    +0.034 C 
ENDROOT
BRANCH  12  16
ATOM     16  N   UNL     1       0.323  -4.463   4.030  0.00  0.00    -0.166 NA
ATOM     17  N   UNL     1      -0.421  -5.516   4.080  0.00  0.00    -0.256 N 
ATOM     18  C   UNL     1      -0.226  -6.434   5.046  0.00  0.00    +0.165 C 
ATOM     19  N   UNL     1       0.765  -6.250   5.979  0.00  0.00    -0.378 N 
ATOM     20  S   UNL     1      -1.183  -7.789   5.110  0.00  0.00    -0.012 SA
ATOM     21  H   UNL     1       1.325  -5.458   5.941  0.00  0.00    +0.158 HD
ATOM     22  H   UNL     1      -1.121  -5.646   3.421  0.00  0.00    +0.191 HD
ATOM     23  H   UNL     1       0.906  -6.911   6.674  0.00  0.00    +0.158 HD
ENDBRANCH  12  16
BRANCH  13  24
ATOM     24  O   UNL     1      -1.741  -4.585   1.872  0.00  0.00    -0.492 OA
ATOM     25  H   UNL     1      -1.433  -5.301   1.299  0.00  0.00    +0.294 HD
ENDBRANCH  13  24
TORSDOF 2
