REMARK  Name = ZINC29003864
REMARK  7 active torsions:
REMARK  status: ('A' for Active; 'I' for Inactive)
REMARK    1  A    between atoms: C_1  and  C_2
REMARK    2  A    between atoms: C_2  and  C_3
REMARK    3  A    between atoms: C_2  and  C_4
REMARK    4  A    between atoms: C_4  and  N_5
REMARK    5  A    between atoms: C_9  and  N_10
REMARK    6  A    between atoms: N_10  and  C_11
REMARK    7  A    between atoms: C_16  and  O_17
REMARK                            x       y       z     vdW  Elec       q    Type
REMARK                         _______ _______ _______ _____ _____    ______ ____
ROOT
ATOM      1  N   UNL     1       5.926   6.685  -0.233  0.00  0.00    -0.249 N 
ATOM      2  C   UNL     1       4.734   6.064  -0.120  0.00  0.00    +0.258 C 
ATOM      3  O   UNL     1       3.704   6.703  -0.017  0.00  0.00    -0.269 OA
ATOM      4  C   UNL     1       4.713   4.590  -0.124  0.00  0.00    +0.113 C 
ATOM      5  C   UNL     1       3.529   3.885  -0.012  0.00  0.00    +0.090 C 
ATOM      6  C   UNL     1       6.010   3.901  -0.247  0.00  0.00    +0.256 C 
ATOM      7  O   UNL     1       6.074   2.686  -0.254  0.00  0.00    -0.270 OA
ATOM      8  N   UNL     1       7.124   4.654  -0.358  0.00  0.00    -0.263 N 
ATOM      9  C   UNL     1       7.068   5.993  -0.347  0.00  0.00    +0.146 C 
ATOM     10  S   UNL     1       8.534   6.866  -0.487  0.00  0.00    -0.018 S 
ATOM     11  H   UNL     1       8.107   4.170  -0.461  0.00  0.00    +0.157 HD
ENDROOT
BRANCH   5  12
ATOM     12  N   UNL     1       2.350   4.540  -0.021  0.00  0.00    -0.317 N 
ATOM     13  H   UNL     1       2.332   5.640  -0.031  0.00  0.00    +0.152 HD
BRANCH  12  14
ATOM     14  C   UNL     1       1.149   3.821  -0.019  0.00  0.00    +0.074 A 
ATOM     15  C   UNL     1       1.170   2.434  -0.008  0.00  0.00    +0.047 A 
ATOM     16  C   UNL     1      -0.018   1.726  -0.006  0.00  0.00    +0.043 A 
ATOM     17  C   UNL     1      -1.228   2.398  -0.022  0.00  0.00    +0.023 A 
ATOM     18  C   UNL     1      -1.255   3.780  -0.028  0.00  0.00    +0.049 A 
ATOM     19  C   UNL     1      -0.069   4.497  -0.030  0.00  0.00    +0.138 A 
ATOM     20 CL   UNL     1       0.009  -0.010   0.009  0.00  0.00    -0.083 Cl
BRANCH  19  21
ATOM     21  O   UNL     1      -0.095   5.856  -0.041  0.00  0.00    -0.505 OA
ATOM     22  H   UNL     1      -1.058   6.388  -0.049  0.00  0.00    +0.292 HD
ENDBRANCH  19  21
ENDBRANCH  12  14
ENDBRANCH   5  12
BRANCH   1  23
ATOM     23  C   UNL     1       5.973   8.149  -0.231  0.00  0.00    +0.118 C 
BRANCH  23  25
ATOM     24  C   UNL     1       7.483   8.204   1.759  0.00  0.00    +0.009 C 
ATOM     25  C   UNL     1       6.129   8.653   1.205  0.00  0.00    +0.001 C 
ATOM     26  C   UNL     1       6.053  10.181   1.221  0.00  0.00    +0.009 C 
ENDBRANCH  23  25
ENDBRANCH   1  23
TORSDOF 5
