REMARK  Name = ZINC03500171
REMARK  7 active torsions:
REMARK  status: ('A' for Active; 'I' for Inactive)
REMARK    1  A    between atoms: C_1  and  C_2
REMARK    2  A    between atoms: C_5  and  C_8
REMARK    3  A    between atoms: C_11  and  S_14
REMARK    4  A    between atoms: N_12  and  N_13
REMARK    5  A    between atoms: S_14  and  C_15
REMARK    6  A    between atoms: C_15  and  C_16
REMARK    7  A    between atoms: N_18  and  C_19
REMARK                            x       y       z     vdW  Elec       q    Type
REMARK                         _______ _______ _______ _____ _____    ______ ____
ROOT
ATOM      1  C   UNL     1      -1.230  -1.992   0.105  0.00  0.00    +0.182 A 
ATOM      2  N   UNL     1       0.079  -2.080   0.101  0.00  0.00    -0.127 NA
ATOM      3  N   UNL     1       0.599  -0.905   0.077  0.00  0.00    -0.121 NA
ATOM      4  C   UNL     1      -0.348   0.006   0.074  0.00  0.00    +0.209 A 
ATOM      5  N   UNL     1      -1.544  -0.652   0.088  0.00  0.00    -0.224 N 
ENDROOT
BRANCH   1  10
ATOM      6  C   UNL     1      -4.955  -6.377   0.178  0.00  0.00    +0.044 C 
ATOM      7  C   UNL     1      -3.980  -5.229   0.159  0.00  0.00    -0.050 A 
ATOM      8  C   UNL     1      -4.397  -3.978  -0.259  0.00  0.00    +0.004 A 
ATOM      9  C   UNL     1      -3.509  -2.922  -0.279  0.00  0.00    +0.012 A 
ATOM     10  C   UNL     1      -2.187  -3.119   0.123  0.00  0.00    +0.021 A 
ATOM     11  C   UNL     1      -1.771  -4.385   0.538  0.00  0.00    +0.012 A 
ATOM     12  C   UNL     1      -2.671  -5.431   0.558  0.00  0.00    +0.004 A 
ENDBRANCH   1  10
BRANCH   5  13
ATOM     13  N   UNL     1      -2.793  -0.097   0.085  0.00  0.00    -0.295 N 
ATOM     14  H   UNL     1      -3.095   0.108  -0.855  0.00  0.00    +0.163 HD
ATOM     15  H   UNL     1      -3.455  -0.695   0.556  0.00  0.00    +0.163 HD
ENDBRANCH   5  13
BRANCH   4  16
ATOM     16  S   UNL     1      -0.117   1.753   0.049  0.00  0.00    -0.075 S 
BRANCH  16  17
ATOM     17  C   UNL     1       1.691   1.831   0.041  0.00  0.00    +0.173 C 
BRANCH  17  18
ATOM     18  C   UNL     1       2.132   3.272   0.019  0.00  0.00    +0.228 C 
ATOM     19  O   UNL     1       1.304   4.159   0.010  0.00  0.00    -0.275 OA
ATOM     20  N   UNL     1       3.445   3.575   0.009  0.00  0.00    -0.284 N 
ATOM     21  H   UNL     1       4.105   2.869  -0.067  0.00  0.00    +0.155 HD
BRANCH  20  22
ATOM     22  C   UNL     1       3.856   4.909   0.109  0.00  0.00    +0.053 A 
ATOM     23  C   UNL     1       3.031   5.848   0.714  0.00  0.00    +0.025 A 
ATOM     24  C   UNL     1       3.439   7.164   0.812  0.00  0.00    +0.003 A 
ATOM     25  C   UNL     1       4.668   7.548   0.308  0.00  0.00    +0.021 A 
ATOM     26  C   UNL     1       5.493   6.617  -0.296  0.00  0.00    +0.061 A 
ATOM     27  C   UNL     1       5.093   5.296  -0.392  0.00  0.00    +0.080 A 
ATOM     28 CL   UNL     1       6.131   4.125  -1.143  0.00  0.00    -0.080 Cl
ATOM     29 CL   UNL     1       7.035   7.104  -0.927  0.00  0.00    -0.082 Cl
ENDBRANCH  20  22
ENDBRANCH  17  18
ENDBRANCH  16  17
ENDBRANCH   4  16
TORSDOF 6
