REMARK  Name = ZINC43870057
REMARK  9 active torsions:
REMARK  status: ('A' for Active; 'I' for Inactive)
REMARK    1  A    between atoms: C_1  and  N_2
REMARK    2  A    between atoms: N_2  and  C_3
REMARK    3  A    between atoms: N_2  and  C_4
REMARK    4  A    between atoms: C_4  and  C_6
REMARK    5  A    between atoms: C_4  and  C_26
REMARK    6  A    between atoms: C_6  and  N_7
REMARK    7  A    between atoms: N_10  and  C_11
REMARK    8  A    between atoms: C_13  and  C_22
REMARK    9  A    between atoms: C_16  and  N_17
REMARK                            x       y       z     vdW  Elec       q    Type
REMARK                         _______ _______ _______ _____ _____    ______ ____
ROOT
ATOM      1  N   UNL     1      -0.352   1.324   2.192  0.00  0.00    -0.300 N 
ATOM      2  C   UNL     1      -1.160   1.923   3.089  0.00  0.00    +0.304 C 
ATOM      3  O   UNL     1      -1.562   1.304   4.055  0.00  0.00    -0.253 OA
ATOM      4  N   UNL     1      -1.523   3.210   2.915  0.00  0.00    -0.268 N 
ATOM      5  H   UNL     1      -0.032   1.818   1.421  0.00  0.00    +0.150 HD
ATOM      6  H   UNL     1      -1.262   3.683   2.109  0.00  0.00    +0.156 HD
ENDROOT
BRANCH   4   7
ATOM      7  C   UNL     1      -2.277   3.864   3.897  0.00  0.00    +0.061 A 
ATOM      8  C   UNL     1      -3.133   3.139   4.714  0.00  0.00    +0.037 A 
ATOM      9  C   UNL     1      -3.876   3.787   5.683  0.00  0.00    +0.057 A 
ATOM     10  C   UNL     1      -3.769   5.156   5.841  0.00  0.00    +0.014 A 
ATOM     11  C   UNL     1      -2.919   5.886   5.032  0.00  0.00    +0.030 A 
ATOM     12  C   UNL     1      -2.165   5.243   4.061  0.00  0.00    +0.087 A 
BRANCH  12  13
ATOM     13  N   UNL     1      -1.297   5.981   3.243  0.00  0.00    -0.238 N 
ATOM     14  C   UNL     1      -1.023   7.300   3.358  0.00  0.00    +0.114 A 
ATOM     15  C   UNL     1      -0.142   7.624   2.383  0.00  0.00    +0.041 A 
ATOM     16  C   UNL     1       0.131   6.467   1.647  0.00  0.00    +0.135 A 
ATOM     17  N   UNL     1      -0.556   5.480   2.164  0.00  0.00    -0.175 NA
ENDBRANCH  12  13
BRANCH   9  18
ATOM     18  C   UNL     1      -4.806   2.998   6.568  0.00  0.00    +0.417 C 
ATOM     19  F   UNL     1      -4.116   2.576   7.710  0.00  0.00    -0.166 F 
ATOM     20  F   UNL     1      -5.885   3.804   6.946  0.00  0.00    -0.166 F 
ATOM     21  F   UNL     1      -5.279   1.881   5.871  0.00  0.00    -0.166 F 
ENDBRANCH   9  18
ENDBRANCH   4   7
BRANCH   1  22
ATOM     22  C   UNL     1       0.042  -0.074   2.381  0.00  0.00    +0.098 C 
BRANCH  22  23
ATOM     23  C   UNL     1       0.852  -0.544   1.171  0.00  0.00    +0.016 C 
BRANCH  23  24
ATOM     24  C   UNL     1      -0.028  -0.545  -0.052  0.00  0.00    +0.093 A 
ATOM     25  C   UNL     1      -0.630  -1.622  -0.588  0.00  0.00    +0.043 A 
ATOM     26  C   UNL     1      -1.351  -1.170  -1.717  0.00  0.00    +0.041 A 
ATOM     27  C   UNL     1      -1.146   0.157  -1.804  0.00  0.00    +0.195 A 
ATOM     28  O   UNL     1      -0.349   0.531  -0.790  0.00  0.00    -0.469 OA
ENDBRANCH  23  24
BRANCH  23  30
ATOM     29  C   UNL     1       2.894   0.293   2.110  0.00  0.00    -0.096 C 
ATOM     30  N   UNL     1       1.986   0.365   0.958  0.00  0.00    +0.384 N 
ATOM     31  C   UNL     1       2.707  -0.029  -0.260  0.00  0.00    -0.096 C 
ATOM     32  H   UNL     1       1.645   1.310   0.857  0.00  0.00    -0.082 HD
ENDBRANCH  23  30
ENDBRANCH  22  23
ENDBRANCH   1  22
TORSDOF 7
