REMARK  Name = ZINC04083953
REMARK  9 active torsions:
REMARK  status: ('A' for Active; 'I' for Inactive)
REMARK    1  A    between atoms: C_1  and  C_2
REMARK    2  A    between atoms: C_7  and  O_10
REMARK    3  A    between atoms: O_10  and  C_11
REMARK    4  A    between atoms: C_11  and  C_13
REMARK    5  A    between atoms: C_14  and  C_31
REMARK    6  A    between atoms: C_19  and  C_21
REMARK    7  A    between atoms: C_23  and  O_29
REMARK    8  A    between atoms: C_24  and  O_28
REMARK    9  A    between atoms: O_29  and  C_30
REMARK                            x       y       z     vdW  Elec       q    Type
REMARK                         _______ _______ _______ _____ _____    ______ ____
ROOT
ATOM      1  C   UNL     1       3.017  -4.460  -0.838  0.00  0.00    +0.078 C 
ATOM      2  C   UNL     1       3.725  -5.610  -0.855  0.00  0.00    +0.021 C 
ATOM      3  N   UNL     1       4.214  -6.119  -2.024  0.00  0.00    -0.273 N 
ATOM      4  C   UNL     1       4.039  -5.537  -3.218  0.00  0.00    +0.304 C 
ATOM      5  O   UNL     1       4.512  -6.066  -4.205  0.00  0.00    -0.252 OA
ATOM      6  N   UNL     1       3.354  -4.386  -3.361  0.00  0.00    -0.288 N 
ATOM      7  C   UNL     1       2.779  -3.758  -2.159  0.00  0.00    +0.144 C 
ATOM      8  C   UNL     1       3.980  -6.344   0.436  0.00  0.00    +0.061 C 
ATOM      9  H   UNL     1       4.717  -6.947  -1.988  0.00  0.00    +0.156 HD
ATOM     10  H   UNL     1       3.239  -3.982  -4.235  0.00  0.00    +0.151 HD
ENDROOT
BRANCH   7  11
ATOM     11  C   UNL     1       3.344  -2.365  -2.053  0.00  0.00    -0.018 A 
ATOM     12  C   UNL     1       2.493  -1.283  -1.922  0.00  0.00    +0.055 A 
ATOM     13  C   UNL     1       3.010  -0.002  -1.824  0.00  0.00    +0.163 A 
ATOM     14  C   UNL     1       4.388   0.194  -1.858  0.00  0.00    +0.173 A 
ATOM     15  C   UNL     1       5.236  -0.895  -1.989  0.00  0.00    +0.063 A 
ATOM     16  C   UNL     1       4.713  -2.172  -2.082  0.00  0.00    +0.025 A 
ATOM     17 BR   UNL     1       7.109  -0.634  -2.036  0.00  0.00    -0.046 Br
BRANCH  14  18
ATOM     18  O   UNL     1       4.901   1.450  -1.763  0.00  0.00    -0.503 OA
ATOM     19  H   UNL     1       5.082   1.733  -0.856  0.00  0.00    +0.292 HD
ENDBRANCH  14  18
BRANCH  13  20
ATOM     20  O   UNL     1       2.174   1.063  -1.696  0.00  0.00    -0.491 OA
ATOM     21  C   UNL     1       0.780   0.780  -1.558  0.00  0.00    +0.277 C 
ENDBRANCH  13  20
ENDBRANCH   7  11
BRANCH   1  22
ATOM     22  C   UNL     1       2.510  -3.933   0.373  0.00  0.00    +0.339 C 
ATOM     23  O   UNL     1       3.103  -3.035   0.941  0.00  0.00    -0.245 OA
BRANCH  22  24
ATOM     24  O   UNL     1       1.367  -4.425   0.897  0.00  0.00    -0.458 OA
BRANCH  24  30
ATOM     25  C   UNL     1      -2.526  -5.611   2.225  0.00  0.00    +0.007 C 
ATOM     26  C   UNL     1      -1.006  -5.436   2.172  0.00  0.00    -0.011 C 
ATOM     27  C   UNL     1      -0.379  -6.054   3.423  0.00  0.00    +0.003 C 
ATOM     28  C   UNL     1       1.141  -5.880   3.370  0.00  0.00    +0.004 C 
ATOM     29  C   UNL     1       1.481  -4.389   3.311  0.00  0.00    +0.045 C 
ATOM     30  C   UNL     1       0.853  -3.772   2.060  0.00  0.00    +0.177 C 
ATOM     31  C   UNL     1      -0.666  -3.946   2.113  0.00  0.00    +0.048 C 
ENDBRANCH  24  30
ENDBRANCH  22  24
ENDBRANCH   1  22
TORSDOF 6
