REMARK  Name = ZINC41643562
REMARK  6 active torsions:
REMARK  status: ('A' for Active; 'I' for Inactive)
REMARK    1  A    between atoms: C_1  and  C_2
REMARK    2  A    between atoms: C_2  and  O_3
REMARK    3  A    between atoms: O_3  and  C_4
REMARK    4  A    between atoms: C_8  and  C_15
REMARK    5  A    between atoms: C_20  and  C_23
REMARK    6  A    between atoms: C_29  and  C_33
REMARK                            x       y       z     vdW  Elec       q    Type
REMARK                         _______ _______ _______ _____ _____    ______ ____
ROOT
ATOM      1  C   UNL     1       0.568  -6.958   0.751  0.00  0.00    +0.248 C 
ATOM      2  O   UNL     1       0.758  -8.153   0.859  0.00  0.00    -0.270 OA
ATOM      3  N   UNL     1      -0.160  -6.482  -0.279  0.00  0.00    -0.293 N 
ATOM      4  C   UNL     1      -0.834  -7.389  -1.224  0.00  0.00    +0.113 C 
ATOM      5  C   UNL     1      -2.341  -7.142  -1.122  0.00  0.00    +0.054 C 
ATOM      6  C   UNL     1      -2.632  -5.671  -1.122  0.00  0.00    -0.039 C 
ATOM      7  C   UNL     1      -1.747  -4.741  -0.844  0.00  0.00    -0.004 C 
ATOM      8  C   UNL     1      -0.319  -5.038  -0.499  0.00  0.00    +0.135 C 
ENDROOT
BRANCH   1  13
ATOM      9  C   UNL     1      -0.711  -5.404   5.513  0.00  0.00    +0.124 A 
ATOM     10  C   UNL     1      -1.277  -6.291   4.599  0.00  0.00    +0.046 A 
ATOM     11  C   UNL     1      -0.690  -6.499   3.384  0.00  0.00    +0.016 A 
ATOM     12  C   UNL     1       0.485  -5.818   3.054  0.00  0.00    +0.030 A 
ATOM     13  C   UNL     1       1.138  -6.022   1.752  0.00  0.00    +0.054 A 
ATOM     14  C   UNL     1       2.284  -5.326   1.491  0.00  0.00    +0.105 A 
ATOM     15  C   UNL     1       2.803  -4.441   2.467  0.00  0.00    +0.338 A 
ATOM     16  O   UNL     1       3.825  -3.824   2.226  0.00  0.00    -0.245 OA
ATOM     17  O   UNL     1       2.197  -4.264   3.650  0.00  0.00    -0.422 OA
ATOM     18  C   UNL     1       1.062  -4.921   3.972  0.00  0.00    +0.143 A 
ATOM     19  C   UNL     1       0.451  -4.717   5.200  0.00  0.00    +0.092 A 
BRANCH   9  20
ATOM     20  O   UNL     1      -1.305  -5.207   6.718  0.00  0.00    -0.492 OA
BRANCH  20  22
ATOM     21  C   UNL     1      -3.021  -5.596   8.375  0.00  0.00    +0.048 C 
ATOM     22  C   UNL     1      -2.500  -5.946   6.980  0.00  0.00    +0.225 C 
ENDBRANCH  20  22
ENDBRANCH   9  20
ENDBRANCH   1  13
BRANCH   6  23
ATOM     23  C   UNL     1      -4.003  -5.239  -1.458  0.00  0.00    +0.003 A 
ATOM     24  C   UNL     1      -4.569  -5.224  -2.692  0.00  0.00    +0.091 A 
ATOM     25  N   UNL     1      -5.849  -4.761  -2.606  0.00  0.00    -0.360 N 
ATOM     26  H   UNL     1      -6.455  -4.661  -3.357  0.00  0.00    +0.165 HD
ATOM     27  C   UNL     1      -6.159  -4.457  -1.297  0.00  0.00    +0.047 A 
ATOM     28  C   UNL     1      -5.025  -4.746  -0.519  0.00  0.00    +0.010 A 
ATOM     29  C   UNL     1      -5.052  -4.538   0.858  0.00  0.00    -0.041 A 
ATOM     30  C   UNL     1      -6.196  -4.052   1.452  0.00  0.00    +0.004 A 
ATOM     31  C   UNL     1      -7.318  -3.770   0.685  0.00  0.00    +0.002 A 
ATOM     32  C   UNL     1      -7.303  -3.963  -0.679  0.00  0.00    +0.026 A 
ATOM     33  C   UNL     1      -3.837  -4.844   1.695  0.00  0.00    +0.044 C 
ENDBRANCH   6  23
TORSDOF 4
