REMARK  Name = ZINC49977332
REMARK  6 active torsions:
REMARK  status: ('A' for Active; 'I' for Inactive)
REMARK    1  A    between atoms: C_1  and  C_2
REMARK    2  A    between atoms: C_5  and  N_9
REMARK    3  A    between atoms: C_6  and  C_8
REMARK    4  A    between atoms: N_9  and  C_10
REMARK    5  A    between atoms: C_11  and  C_13
REMARK    6  A    between atoms: C_18  and  N_19
REMARK                            x       y       z     vdW  Elec       q    Type
REMARK                         _______ _______ _______ _____ _____    ______ ____
ROOT
ATOM      1  N   UNL     1      -0.085  -3.966   0.487  0.00  0.00    -0.270 N 
ATOM      2  C   UNL     1       1.196  -4.568   0.863  0.00  0.00    +0.138 C 
ATOM      3  C   UNL     1      -1.168  -4.747   0.303  0.00  0.00    +0.252 C 
ATOM      4  O   UNL     1      -2.207  -4.261  -0.101  0.00  0.00    -0.270 OA
ENDROOT
BRANCH   1   9
ATOM      5  C   UNL     1      -0.493   1.651  -0.192  0.00  0.00    +0.044 C 
ATOM      6  C   UNL     1      -0.384   0.159  -0.012  0.00  0.00    -0.050 A 
ATOM      7  C   UNL     1      -0.051  -0.644  -1.087  0.00  0.00    +0.005 A 
ATOM      8  C   UNL     1       0.049  -2.012  -0.925  0.00  0.00    +0.024 A 
ATOM      9  C   UNL     1      -0.185  -2.581   0.320  0.00  0.00    +0.039 A 
ATOM     10  C   UNL     1      -0.519  -1.772   1.398  0.00  0.00    -0.029 A 
ATOM     11  C   UNL     1      -0.613  -0.404   1.230  0.00  0.00    +0.008 A 
ATOM     12  C   UNL     1      -0.775  -2.386   2.751  0.00  0.00    +0.045 C 
ENDBRANCH   1   9
BRANCH   3  13
ATOM     13  C   UNL     1      -1.094  -6.191   0.592  0.00  0.00    +0.059 A 
ATOM     14  C   UNL     1      -0.495  -6.641   1.772  0.00  0.00    +0.035 A 
ATOM     15  C   UNL     1      -0.428  -7.993   2.036  0.00  0.00    +0.042 A 
ATOM     16  C   UNL     1      -0.953  -8.909   1.136  0.00  0.00    +0.022 A 
ATOM     17  C   UNL     1      -1.546  -8.479  -0.033  0.00  0.00    +0.025 A 
ATOM     18  C   UNL     1      -1.629  -7.120  -0.313  0.00  0.00    +0.037 A 
ATOM     19 CL   UNL     1       0.316  -8.551   3.502  0.00  0.00    -0.084 Cl
BRANCH  18  20
ATOM     20  N   UNL     1      -2.232  -6.685  -1.486  0.00  0.00    -0.357 N 
ATOM     21  H   UNL     1      -2.318  -5.735  -1.664  0.00  0.00    +0.142 HD
ATOM     22  H   UNL     1      -2.567  -7.330  -2.128  0.00  0.00    +0.142 HD
ENDBRANCH  18  20
ENDBRANCH   3  13
TORSDOF 3
