REMARK  Name = ZINC50443430
REMARK  5 active torsions:
REMARK  status: ('A' for Active; 'I' for Inactive)
REMARK    1  A    between atoms: C_1  and  C_2
REMARK    2  A    between atoms: C_4  and  C_16
REMARK    3  A    between atoms: N_5  and  C_7
REMARK    4  A    between atoms: C_7  and  C_8
REMARK    5  A    between atoms: C_13  and  N_14
REMARK                            x       y       z     vdW  Elec       q    Type
REMARK                         _______ _______ _______ _____ _____    ______ ____
ROOT
ATOM      1  C   UNL     1       1.480  -3.706   1.701  0.00  0.00    -0.005 A 
ATOM      2  C   UNL     1       2.108  -4.634   0.893  0.00  0.00    +0.008 A 
ATOM      3  C   UNL     1       3.418  -4.998   1.145  0.00  0.00    +0.020 A 
ATOM      4  C   UNL     1       4.104  -4.435   2.208  0.00  0.00    +0.043 A 
ATOM      5  C   UNL     1       3.481  -3.507   3.020  0.00  0.00    +0.043 A 
ATOM      6  C   UNL     1       2.167  -3.134   2.764  0.00  0.00    +0.031 A 
ATOM      7 CL   UNL     1       5.748  -4.896   2.520  0.00  0.00    -0.083 Cl
ENDROOT
BRANCH   6   8
ATOM      8  N   UNL     1       1.536  -2.191   3.579  0.00  0.00    -0.358 N 
ATOM      9  H   UNL     1       0.618  -1.935   3.402  0.00  0.00    +0.142 HD
ATOM     10  H   UNL     1       2.017  -1.793   4.321  0.00  0.00    +0.142 HD
ENDBRANCH   6   8
BRANCH   1  11
ATOM     11  C   UNL     1       0.053  -3.309   1.425  0.00  0.00    +0.182 C 
BRANCH  11  16
ATOM     12  C   UNL     1      -0.018   1.503   0.010  0.00  0.00    +0.090 C 
ATOM     13  C   UNL     1       0.002  -0.004   0.002  0.00  0.00    +0.148 A 
ATOM     14  N   UNL     1       0.008  -0.772  -1.087  0.00  0.00    -0.217 NA
ATOM     15  C   UNL     1       0.027  -2.034  -0.740  0.00  0.00    +0.125 A 
ATOM     16  N   UNL     1       0.033  -2.097   0.603  0.00  0.00    -0.245 N 
ATOM     17  N   UNL     1       0.022  -0.769   1.062  0.00  0.00    -0.155 NA
ATOM     18  C   UNL     1       0.038  -3.210  -1.681  0.00  0.00    +0.088 C 
ENDBRANCH  11  16
ENDBRANCH   1  11
TORSDOF 3
