REMARK  Name = ZINC00808647
REMARK  7 active torsions:
REMARK  status: ('A' for Active; 'I' for Inactive)
REMARK    1  A    between atoms: C_3  and  N_8
REMARK    2  A    between atoms: N_8  and  C_9
REMARK    3  A    between atoms: C_9  and  N_11
REMARK    4  A    between atoms: N_11  and  C_12
REMARK    5  A    between atoms: C_12  and  C_14
REMARK    6  A    between atoms: C_12  and  N_18
REMARK    7  A    between atoms: C_19  and  C_21
REMARK                            x       y       z     vdW  Elec       q    Type
REMARK                         _______ _______ _______ _____ _____    ______ ____
ROOT
ATOM      1  C   UNL     1      -6.026   1.716   0.354  0.00  0.00    +0.211 C 
ENDROOT
BRANCH   1   2
ATOM      2  C   UNL     1      -6.870   1.068   1.453  0.00  0.00    +0.225 C 
ATOM      3 CL   UNL     1      -5.984   1.153   3.021  0.00  0.00    -0.080 Cl
ATOM      4 CL   UNL     1      -8.439   1.945   1.601  0.00  0.00    -0.080 Cl
ATOM      5 CL   UNL     1      -7.183  -0.657   1.033  0.00  0.00    -0.080 Cl
ENDBRANCH   1   2
BRANCH   1   6
ATOM      6  N   UNL     1      -6.746   1.646  -0.920  0.00  0.00    -0.287 N 
ATOM      7  C   UNL     1      -6.803   2.728  -1.722  0.00  0.00    +0.281 C 
ATOM      8  O   UNL     1      -6.256   3.763  -1.388  0.00  0.00    -0.267 OA
ATOM      9  H   UNL     1      -7.183   0.822  -1.186  0.00  0.00    +0.151 HD
BRANCH   7  10
ATOM     10  C   UNL     1      -7.524   2.659  -2.997  0.00  0.00    +0.189 A 
ATOM     11  C   UNL     1      -7.659   3.675  -3.899  0.00  0.00    +0.054 A 
ATOM     12  C   UNL     1      -8.419   3.170  -4.965  0.00  0.00    +0.042 A 
ATOM     13  C   UNL     1      -8.711   1.884  -4.671  0.00  0.00    +0.196 A 
ATOM     14  O   UNL     1      -8.166   1.578  -3.487  0.00  0.00    -0.458 OA
ENDBRANCH   7  10
ENDBRANCH   1   6
BRANCH   1  15
ATOM     15  N   UNL     1      -4.752   1.003   0.233  0.00  0.00    -0.305 N 
ATOM     16  H   UNL     1      -4.737   0.034   0.228  0.00  0.00    +0.150 HD
BRANCH  15  17
ATOM     17  C   UNL     1      -3.600   1.696   0.130  0.00  0.00    +0.136 C 
ATOM     18  S   UNL     1      -3.626   3.407   0.140  0.00  0.00    -0.019 S 
BRANCH  17  19
ATOM     19  N   UNL     1      -2.427   1.040   0.019  0.00  0.00    -0.297 N 
ATOM     20  H   UNL     1      -2.418   0.074  -0.067  0.00  0.00    +0.154 HD
BRANCH  19  23
ATOM     21  C   UNL     1       0.980   2.120  -0.844  0.00  0.00    +0.003 A 
ATOM     22  C   UNL     1      -0.205   1.411  -0.851  0.00  0.00    +0.023 A 
ATOM     23  C   UNL     1      -1.224   1.753   0.029  0.00  0.00    +0.034 A 
ATOM     24  C   UNL     1      -1.043   2.802   0.921  0.00  0.00    +0.043 A 
ATOM     25  C   UNL     1       0.145   3.508   0.924  0.00  0.00    +0.043 A 
ATOM     26  C   UNL     1       1.156   3.167   0.042  0.00  0.00    +0.020 A 
ATOM     27 CL   UNL     1       0.370   4.823   2.035  0.00  0.00    -0.083 Cl
ENDBRANCH  19  23
ENDBRANCH  17  19
ENDBRANCH  15  17
ENDBRANCH   1  15
TORSDOF 7
