REMARK  Name = ZINC26474956
REMARK  4 active torsions:
REMARK  status: ('A' for Active; 'I' for Inactive)
REMARK    1  A    between atoms: C_2  and  C_12
REMARK    2  A    between atoms: N_3  and  C_7
REMARK    3  A    between atoms: C_7  and  C_8
REMARK    4  A    between atoms: C_12  and  O_13
REMARK                            x       y       z     vdW  Elec       q    Type
REMARK                         _______ _______ _______ _____ _____    ______ ____
ROOT
ATOM      1  C   UNL     1       0.002  -0.004   0.002  0.00  0.00    +0.108 A 
ATOM      2  C   UNL     1      -0.016   1.340   0.009  0.00  0.00    +0.063 A 
ATOM      3  N   UNL     1       1.295   1.759  -0.001  0.00  0.00    -0.313 N 
ATOM      4  C   UNL     1       2.071   0.641  -0.014  0.00  0.00    +0.158 A 
ATOM      5  N   UNL     1       1.283  -0.410  -0.012  0.00  0.00    -0.340 N 
ATOM      6  S   UNL     1       3.832   0.608  -0.031  0.00  0.00    -0.013 S 
ATOM      7  H   UNL     1       1.520  -1.484  -0.020  0.00  0.00    +0.167 HD
ENDROOT
BRANCH   3   8
ATOM      8  C   UNL     1       1.766   3.146   0.002  0.00  0.00    +0.237 C 
BRANCH   8   9
ATOM      9  C   UNL     1       1.944   3.622   1.445  0.00  0.00    +0.407 C 
ATOM     10  F   UNL     1       2.882   2.810   2.092  0.00  0.00    -0.169 F 
ATOM     11  F   UNL     1       2.394   4.947   1.447  0.00  0.00    -0.169 F 
ATOM     12  F   UNL     1       0.719   3.545   2.116  0.00  0.00    -0.169 F 
ENDBRANCH   8   9
ENDBRANCH   3   8
BRANCH   2  13
ATOM     13  C   UNL     1      -1.239   2.220   0.026  0.00  0.00    +0.210 C 
BRANCH  13  14
ATOM     14  O   UNL     1      -2.413   1.405   0.033  0.00  0.00    -0.389 OA
ATOM     15  H   UNL     1      -3.408   1.873   0.045  0.00  0.00    +0.210 HD
ENDBRANCH  13  14
ENDBRANCH   2  13
TORSDOF 4
