REMARK  Name = ZINC40515331
REMARK  6 active torsions:
REMARK  status: ('A' for Active; 'I' for Inactive)
REMARK    1  A    between atoms: C_1  and  C_2
REMARK    2  A    between atoms: C_4  and  C_21
REMARK    3  A    between atoms: C_6  and  S_11
REMARK    4  A    between atoms: C_7  and  C_8
REMARK    5  A    between atoms: S_11  and  C_12
REMARK    6  A    between atoms: C_15  and  C_20
REMARK                            x       y       z     vdW  Elec       q    Type
REMARK                         _______ _______ _______ _____ _____    ______ ____
ROOT
ATOM      1  C   UNL     1      -0.018   1.503   0.010  0.00  0.00    +0.044 C 
ATOM      2  C   UNL     1       0.002  -0.004   0.002  0.00  0.00    -0.036 A 
ATOM      3  C   UNL     1       0.006  -0.707  -1.191  0.00  0.00    +0.027 A 
ATOM      4  C   UNL     1       0.025  -2.090  -1.166  0.00  0.00    +0.040 A 
ATOM      5  N   UNL     1       0.039  -2.752  -0.026  0.00  0.00    -0.245 NA
ATOM      6  C   UNL     1       0.036  -2.130   1.142  0.00  0.00    +0.115 A 
ATOM      7  C   UNL     1       0.023  -0.727   1.199  0.00  0.00    +0.047 A 
ATOM      8  C   UNL     1       0.029  -2.853  -2.466  0.00  0.00    +0.065 C 
ENDROOT
BRANCH   7   9
ATOM      9  C   UNL     1       0.026  -0.028   2.499  0.00  0.00    +0.097 C 
ATOM     10  N   UNL     1       1.081  -0.127   3.307  0.00  0.00    -0.387 N 
ATOM     11  N   UNL     1      -1.027   0.704   2.865  0.00  0.00    -0.344 N 
ATOM     12  H   UNL     1       1.848  -0.659   3.041  0.00  0.00    +0.157 HD
ATOM     13  H   UNL     1      -1.795   0.776   2.277  0.00  0.00    +0.144 HD
ATOM     14  H   UNL     1      -1.025   1.163   3.719  0.00  0.00    +0.144 HD
ATOM     15  H   UNL     1       1.083   0.332   4.162  0.00  0.00    +0.157 HD
ENDBRANCH   7   9
BRANCH   6  16
ATOM     16  S   UNL     1       0.055  -3.067   2.634  0.00  0.00    -0.031 S 
BRANCH  16  17
ATOM     17  C   UNL     1       0.075  -4.742   2.085  0.00  0.00    +0.175 A 
ATOM     18  N   UNL     1       0.072  -5.000   0.792  0.00  0.00    -0.228 NA
ATOM     19  H   UNL     1       0.103  -5.540   3.951  0.00  0.00    +0.171 HD
ATOM     20  C   UNL     1       0.087  -6.250   0.336  0.00  0.00    +0.046 A 
ATOM     21  C   UNL     1       0.106  -7.298   1.210  0.00  0.00    +0.093 A 
ATOM     22  C   UNL     1       0.108  -7.032   2.591  0.00  0.00    +0.252 A 
ATOM     23  O   UNL     1       0.125  -7.945   3.400  0.00  0.00    -0.268 OA
ATOM     24  N   UNL     1       0.098  -5.747   3.004  0.00  0.00    -0.302 N 
ATOM     25  C   UNL     1       0.084  -6.508  -1.149  0.00  0.00    +0.066 C 
ENDBRANCH  16  17
ENDBRANCH   6  16
TORSDOF 3
