REMARK  Name = ZINC49449968
REMARK  3 active torsions:
REMARK  status: ('A' for Active; 'I' for Inactive)
REMARK    1  A    between atoms: C_8  and  C_10
REMARK    2  A    between atoms: C_10  and  C_11
REMARK    3  A    between atoms: C_20  and  O_23
REMARK                            x       y       z     vdW  Elec       q    Type
REMARK                         _______ _______ _______ _____ _____    ______ ____
ROOT
ATOM      1  C   UNL     1      -4.838  -0.362   0.049  0.00  0.00    -0.018 C 
ATOM      2  C   UNL     1      -4.848   0.514   1.303  0.00  0.00    +0.011 C 
ATOM      3  C   UNL     1      -6.120   1.365   1.321  0.00  0.00    -0.007 C 
ATOM      4  C   UNL     1      -6.156   2.255   0.077  0.00  0.00    +0.007 C 
ATOM      5  C   UNL     1      -6.146   1.378  -1.177  0.00  0.00    -0.007 C 
ATOM      6  C   UNL     1      -4.874   0.528  -1.195  0.00  0.00    +0.011 C 
ATOM      7  C   UNL     1      -7.371   0.463  -1.170  0.00  0.00    +0.038 C 
ATOM      8  C   UNL     1      -7.336  -0.427   0.074  0.00  0.00    +0.067 C 
ATOM      9  C   UNL     1      -7.346   0.450   1.329  0.00  0.00    +0.038 C 
ATOM     10  C   UNL     1      -6.064  -1.278   0.057  0.00  0.00    +0.042 C 
ENDROOT
BRANCH   8  11
ATOM     11  O   UNL     1      -8.481  -1.282   0.081  0.00  0.00    -0.389 OA
ATOM     12  H   UNL     1      -9.324  -0.809   0.092  0.00  0.00    +0.210 HD
ENDBRANCH   8  11
BRANCH   1  13
ATOM     13  C   UNL     1      -3.567  -1.212   0.032  0.00  0.00    +0.103 C 
BRANCH  13  21
ATOM     14  C   UNL     1      -0.017   1.400   0.010  0.00  0.00    +0.064 A 
ATOM     15  C   UNL     1       1.264   1.832  -0.000  0.00  0.00    +0.107 A 
ATOM     16  N   UNL     1       2.067   0.748  -0.014  0.00  0.00    -0.283 N 
ATOM     17  H   UNL     1       3.037   0.756  -0.022  0.00  0.00    +0.188 HD
ATOM     18  N   UNL     1       1.255  -0.394  -0.012  0.00  0.00    -0.159 NA
ATOM     19  C   UNL     1       0.002  -0.004   0.002  0.00  0.00    +0.147 A 
ATOM     20  N   UNL     1      -1.121  -0.843   0.009  0.00  0.00    -0.269 N 
ATOM     21  C   UNL     1      -2.359  -0.311   0.024  0.00  0.00    +0.219 C 
ATOM     22  O   UNL     1      -2.502   0.894   0.032  0.00  0.00    -0.275 OA
ATOM     23  H   UNL     1      -1.007  -1.806   0.003  0.00  0.00    +0.156 HD
ENDBRANCH  13  21
ENDBRANCH   1  13
TORSDOF 3
