REMARK  Name = ZINC06566244
REMARK  6 active torsions:
REMARK  status: ('A' for Active; 'I' for Inactive)
REMARK    1  A    between atoms: C_1  and  C_2
REMARK    2  A    between atoms: C_5  and  C_8
REMARK    3  A    between atoms: C_8  and  C_19
REMARK    4  A    between atoms: N_11  and  C_15
REMARK    5  A    between atoms: C_15  and  C_16
REMARK    6  A    between atoms: C_22  and  C_25
REMARK                            x       y       z     vdW  Elec       q    Type
REMARK                         _______ _______ _______ _____ _____    ______ ____
ROOT
ATOM      1  C   UNL     1       0.059  -4.275  -0.021  0.00  0.00    +0.164 C 
ATOM      2  C   UNL     1      -1.391  -4.709   0.058  0.00  0.00    +0.256 C 
ATOM      3  O   UNL     1      -2.190  -4.437   0.929  0.00  0.00    -0.272 OA
ATOM      4  N   UNL     1      -1.608  -5.459  -1.040  0.00  0.00    -0.215 N 
ATOM      5  C   UNL     1      -0.508  -5.558  -1.795  0.00  0.00    +0.310 C 
ATOM      6  O   UNL     1      -0.457  -6.184  -2.836  0.00  0.00    -0.252 OA
ATOM      7  N   UNL     1       0.536  -4.889  -1.273  0.00  0.00    -0.278 N 
ATOM      8  H   UNL     1       1.428  -4.823  -1.648  0.00  0.00    +0.152 HD
ENDROOT
BRANCH   1  13
ATOM      9  C   UNL     1       0.450   1.483  -0.302  0.00  0.00    +0.044 C 
ATOM     10  C   UNL     1       0.348  -0.018  -0.229  0.00  0.00    -0.050 A 
ATOM     11  C   UNL     1      -0.479  -0.610   0.707  0.00  0.00    +0.004 A 
ATOM     12  C   UNL     1      -0.573  -1.988   0.774  0.00  0.00    +0.007 A 
ATOM     13  C   UNL     1       0.161  -2.773  -0.095  0.00  0.00    -0.011 A 
ATOM     14  C   UNL     1       0.988  -2.182  -1.032  0.00  0.00    +0.007 A 
ATOM     15  C   UNL     1       1.078  -0.804  -1.102  0.00  0.00    +0.004 A 
ENDBRANCH   1  13
BRANCH   1  16
ATOM     16  C   UNL     1       0.839  -4.800   1.157  0.00  0.00    -0.011 A 
ATOM     17  C   UNL     1       0.376  -4.587   2.442  0.00  0.00    +0.007 A 
ATOM     18  C   UNL     1       1.091  -5.069   3.522  0.00  0.00    +0.004 A 
ATOM     19  C   UNL     1       2.268  -5.764   3.318  0.00  0.00    -0.050 A 
ATOM     20  C   UNL     1       2.730  -5.978   2.033  0.00  0.00    +0.004 A 
ATOM     21  C   UNL     1       2.013  -5.500   0.952  0.00  0.00    +0.007 A 
ATOM     22  C   UNL     1       3.048  -6.288   4.496  0.00  0.00    +0.044 C 
ENDBRANCH   1  16
BRANCH   4  23
ATOM     23  C   UNL     1      -2.890  -6.088  -1.367  0.00  0.00    +0.213 C 
BRANCH  23  24
ATOM     24  C   UNL     1      -3.718  -5.140  -2.196  0.00  0.00    +0.228 C 
ATOM     25  O   UNL     1      -3.280  -4.047  -2.486  0.00  0.00    -0.274 OA
ATOM     26  N   UNL     1      -4.944  -5.508  -2.616  0.00  0.00    -0.328 N 
ATOM     27  H   UNL     1      -5.295  -6.382  -2.385  0.00  0.00    +0.145 HD
ATOM     28  H   UNL     1      -5.477  -4.898  -3.150  0.00  0.00    +0.145 HD
ENDBRANCH  23  24
ENDBRANCH   4  23
TORSDOF 4
