REMARK  Name = ZINC58854998
REMARK  5 active torsions:
REMARK  status: ('A' for Active; 'I' for Inactive)
REMARK    1  A    between atoms: C_10  and  N_11
REMARK    2  A    between atoms: C_12  and  C_14
REMARK    3  A    between atoms: C_14  and  C_15
REMARK    4  A    between atoms: C_15  and  C_16
REMARK    5  A    between atoms: N_18  and  N_19
REMARK                            x       y       z     vdW  Elec       q    Type
REMARK                         _______ _______ _______ _____ _____    ______ ____
ROOT
ATOM      1  N   UNL     1       4.871   0.098  -0.045  0.00  0.00    -0.285 N 
ATOM      2  C   UNL     1       6.047  -0.555   0.042  0.00  0.00    +0.218 C 
ATOM      3  O   UNL     1       6.068  -1.768   0.036  0.00  0.00    -0.275 OA
ATOM      4  H   UNL     1       4.858   1.065  -0.121  0.00  0.00    +0.155 HD
ENDROOT
BRANCH   1  14
ATOM      5  C   UNL     1       0.203   0.945  -1.767  0.00  0.00    +0.001 A 
ATOM      6  C   UNL     1       1.389   1.676  -1.797  0.00  0.00    +0.001 A 
ATOM      7  C   UNL     1       2.529   1.185  -1.236  0.00  0.00    +0.010 A 
ATOM      8  C   UNL     1       2.511  -0.076  -0.618  0.00  0.00    +0.003 A 
ATOM      9  C   UNL     1       1.306  -0.819  -0.587  0.00  0.00    -0.016 A 
ATOM     10  C   UNL     1       0.149  -0.280  -1.177  0.00  0.00    +0.008 A 
ATOM     11  C   UNL     1       1.286  -2.080   0.032  0.00  0.00    +0.008 A 
ATOM     12  C   UNL     1       2.422  -2.578   0.596  0.00  0.00    +0.002 A 
ATOM     13  C   UNL     1       3.612  -1.857   0.572  0.00  0.00    +0.024 A 
ATOM     14  C   UNL     1       3.672  -0.617  -0.026  0.00  0.00    +0.041 A 
ENDBRANCH   1  14
BRANCH   2  15
ATOM     15  C   UNL     1       7.334   0.221   0.146  0.00  0.00    +0.105 C 
BRANCH  15  16
ATOM     16  C   UNL     1       8.511  -0.753   0.231  0.00  0.00    +0.106 C 
BRANCH  16  17
ATOM     17  C   UNL     1       9.799   0.023   0.336  0.00  0.00    +0.227 C 
ATOM     18  O   UNL     1       9.777   1.235   0.342  0.00  0.00    -0.275 OA
ATOM     19  N   UNL     1      10.974  -0.631   0.423  0.00  0.00    -0.254 N 
ATOM     20  H   UNL     1      10.992  -1.601   0.418  0.00  0.00    +0.169 HD
BRANCH  19  21
ATOM     21  N   UNL     1      12.142   0.073   0.517  0.00  0.00    -0.254 NA
ATOM     22  H   UNL     1      12.120   0.705   1.303  0.00  0.00    +0.140 HD
ATOM     23  H   UNL     1      12.934  -0.549   0.575  0.00  0.00    +0.140 HD
ENDBRANCH  19  21
ENDBRANCH  16  17
ENDBRANCH  15  16
ENDBRANCH   2  15
TORSDOF 5
