REMARK  Name = ZINC01510157
REMARK  3 active torsions:
REMARK  status: ('A' for Active; 'I' for Inactive)
REMARK    1  A    between atoms: C_4  and  C_7
REMARK    2  A    between atoms: N_9  and  N_10
REMARK    3  A    between atoms: C_12  and  C_25
REMARK                            x       y       z     vdW  Elec       q    Type
REMARK                         _______ _______ _______ _____ _____    ______ ____
ROOT
ATOM      1  N   UNL     1      -4.255  -2.984   1.192  0.00  0.00    -0.141 NA
ATOM      2  C   UNL     1      -3.377  -2.341   0.469  0.00  0.00    +0.248 A 
ATOM      3  C   UNL     1      -3.683  -1.014  -0.110  0.00  0.00    +0.100 A 
ATOM      4  C   UNL     1      -2.608  -0.178  -0.378  0.00  0.00    +0.030 A 
ATOM      5  C   UNL     1      -1.304  -0.658  -0.113  0.00  0.00    +0.026 A 
ATOM      6  C   UNL     1      -0.149   0.238  -0.175  0.00  0.00    -0.007 A 
ATOM      7  C   UNL     1      -0.285   1.587  -0.514  0.00  0.00    +0.009 A 
ATOM      8  C   UNL     1       0.819   2.388  -0.554  0.00  0.00    +0.001 A 
ATOM      9  C   UNL     1       2.080   1.879  -0.261  0.00  0.00    +0.001 A 
ATOM     10  C   UNL     1       2.248   0.569   0.073  0.00  0.00    +0.008 A 
ATOM     11  C   UNL     1       1.133  -0.284   0.122  0.00  0.00    -0.017 A 
ATOM     12  C   UNL     1       1.268  -1.645   0.458  0.00  0.00    +0.012 A 
ATOM     13  C   UNL     1       0.188  -2.468   0.494  0.00  0.00    +0.047 A 
ATOM     14  C   UNL     1      -1.098  -2.005   0.208  0.00  0.00    +0.138 A 
ATOM     15  O   UNL     1      -2.146  -2.868   0.217  0.00  0.00    -0.436 OA
ENDROOT
BRANCH   3  16
ATOM     16  C   UNL     1      -5.066  -0.598  -0.389  0.00  0.00    +0.247 C 
ATOM     17  O   UNL     1      -5.399   0.560  -0.221  0.00  0.00    -0.270 OA
ATOM     18  N   UNL     1      -5.965  -1.500  -0.831  0.00  0.00    -0.325 N 
ATOM     19  H   UNL     1      -5.720  -2.437  -0.897  0.00  0.00    +0.145 HD
ATOM     20  H   UNL     1      -6.856  -1.214  -1.083  0.00  0.00    +0.145 HD
ENDBRANCH   3  16
BRANCH   1  23
ATOM     21  C   UNL     1      -6.391  -3.039   2.241  0.00  0.00    +0.263 C 
ATOM     22  O   UNL     1      -6.234  -4.223   2.469  0.00  0.00    -0.268 OA
ATOM     23  N   UNL     1      -5.432  -2.343   1.598  0.00  0.00    -0.200 N 
ATOM     24  H   UNL     1      -5.558  -1.399   1.416  0.00  0.00    +0.178 HD
BRANCH  21  28
ATOM     25  C   UNL     1      -9.962  -1.096   3.470  0.00  0.00    +0.000 A 
ATOM     26  C   UNL     1      -9.786  -2.443   3.731  0.00  0.00    +0.001 A 
ATOM     27  C   UNL     1      -8.629  -3.080   3.335  0.00  0.00    +0.013 A 
ATOM     28  C   UNL     1      -7.634  -2.362   2.669  0.00  0.00    +0.038 A 
ATOM     29  C   UNL     1      -7.815  -1.002   2.413  0.00  0.00    +0.013 A 
ATOM     30  C   UNL     1      -8.980  -0.379   2.810  0.00  0.00    +0.001 A 
ENDBRANCH  21  28
ENDBRANCH   1  23
TORSDOF 3
