REMARK  Name = ZINC40376268
REMARK  7 active torsions:
REMARK  status: ('A' for Active; 'I' for Inactive)
REMARK    1  A    between atoms: C_1  and  N_2
REMARK    2  A    between atoms: N_2  and  C_3
REMARK    3  A    between atoms: N_2  and  S_9
REMARK    4  A    between atoms: C_3  and  C_4
REMARK    5  A    between atoms: C_4  and  C_5
REMARK    6  A    between atoms: N_6  and  O_7
REMARK    7  A    between atoms: S_9  and  C_12
REMARK                            x       y       z     vdW  Elec       q    Type
REMARK                         _______ _______ _______ _____ _____    ______ ____
ROOT
ATOM      1  S   UNL     1      -0.000  -0.824  -1.437  0.00  0.00    +0.061 S 
ATOM      2  O   UNL     1      -0.531  -2.115  -1.167  0.00  0.00    -0.153 OA
ATOM      3  O   UNL     1      -0.572   0.049  -2.401  0.00  0.00    -0.153 OA
ENDROOT
BRANCH   1   4
ATOM      4  C   UNL     1       1.682  -1.059  -1.905  0.00  0.00    +0.106 A 
ATOM      5  C   UNL     1       2.324  -0.109  -2.677  0.00  0.00    +0.029 A 
ATOM      6  C   UNL     1       3.643  -0.296  -3.043  0.00  0.00    +0.006 A 
ATOM      7  C   UNL     1       4.324  -1.432  -2.639  0.00  0.00    -0.044 A 
ATOM      8  C   UNL     1       3.682  -2.382  -1.868  0.00  0.00    -0.042 A 
ATOM      9  C   UNL     1       2.361  -2.190  -1.497  0.00  0.00    +0.032 A 
ATOM     10  C   UNL     1       4.632  -3.519  -1.560  0.00  0.00    +0.036 C 
ATOM     11  C   UNL     1       5.779  -3.376  -2.584  0.00  0.00    +0.009 C 
ATOM     12  C   UNL     1       5.750  -1.866  -2.903  0.00  0.00    +0.036 C 
ENDBRANCH   1   4
BRANCH   1  14
ATOM     13  C   UNL     1      -0.018   1.461   0.010  0.00  0.00    +0.131 C 
ATOM     14  N   UNL     1       0.002  -0.004   0.002  0.00  0.00    -0.179 NA
BRANCH  14  15
ATOM     15  C   UNL     1       0.024  -0.743   1.267  0.00  0.00    +0.116 C 
BRANCH  15  16
ATOM     16  C   UNL     1      -1.406  -0.912   1.784  0.00  0.00    +0.091 C 
BRANCH  16  17
ATOM     17  C   UNL     1      -1.383  -1.672   3.085  0.00  0.00    +0.133 C 
ATOM     18  N   UNL     1      -0.259  -2.067   3.583  0.00  0.00    -0.077 NA
ATOM     19  N   UNL     1      -2.562  -1.946   3.743  0.00  0.00    -0.344 N 
ATOM     20  H   UNL     1      -3.406  -1.649   3.369  0.00  0.00    +0.144 HD
ATOM     21  H   UNL     1      -2.547  -2.436   4.580  0.00  0.00    +0.144 HD
BRANCH  18  22
ATOM     22  O   UNL     1      -0.237  -2.781   4.805  0.00  0.00    -0.408 OA
ATOM     23  H   UNL     1       0.649  -3.034   5.097  0.00  0.00    +0.328 HD
ENDBRANCH  18  22
ENDBRANCH  16  17
ENDBRANCH  15  16
ENDBRANCH  14  15
ENDBRANCH   1  14
TORSDOF 6
