REMARK  Name = ZINC20265981
REMARK  5 active torsions:
REMARK  status: ('A' for Active; 'I' for Inactive)
REMARK    1  A    between atoms: C_1  and  C_2
REMARK    2  A    between atoms: C_2  and  O_3
REMARK    3  A    between atoms: O_3  and  C_4
REMARK    4  A    between atoms: C_9  and  N_10
REMARK    5  A    between atoms: C_13  and  C_19
REMARK                            x       y       z     vdW  Elec       q    Type
REMARK                         _______ _______ _______ _____ _____    ______ ____
ROOT
ATOM      1  N   UNL     1      -1.972   2.426  -3.464  0.00  0.00    -0.253 N 
ATOM      2  C   UNL     1      -3.184   1.839  -3.432  0.00  0.00    +0.265 A 
ATOM      3  O   UNL     1      -3.279   0.624  -3.460  0.00  0.00    -0.267 OA
ATOM      4  C   UNL     1      -4.340   2.638  -3.365  0.00  0.00    +0.072 A 
ATOM      5  C   UNL     1      -4.206   3.995  -3.334  0.00  0.00    +0.258 A 
ATOM      6  N   UNL     1      -2.953   4.551  -3.368  0.00  0.00    -0.302 N 
ATOM      7  C   UNL     1      -1.861   3.767  -3.428  0.00  0.00    +0.168 A 
ATOM      8  S   UNL     1      -0.307   4.486  -3.463  0.00  0.00    -0.012 S 
ATOM      9  O   UNL     1      -5.299   4.785  -3.270  0.00  0.00    -0.267 OA
ATOM     10  H   UNL     1      -2.835   5.644  -3.348  0.00  0.00    +0.171 HD
ENDROOT
BRANCH   4  11
ATOM     11  C   UNL     1      -5.706   2.004  -3.327  0.00  0.00    +0.001 C 
ATOM     12  C   UNL     1      -5.956   1.284  -4.626  0.00  0.00    -0.054 A 
ATOM     13  C   UNL     1      -5.579   1.904  -5.808  0.00  0.00    +0.002 A 
ATOM     14  C   UNL     1      -5.792   1.282  -7.022  0.00  0.00    +0.000 A 
ATOM     15  C   UNL     1      -6.385   0.034  -7.061  0.00  0.00    +0.000 A 
ATOM     16  C   UNL     1      -6.760  -0.585  -5.886  0.00  0.00    +0.004 A 
ATOM     17  C   UNL     1      -6.545   0.038  -4.666  0.00  0.00    -0.047 A 
ATOM     18  C   UNL     1      -6.966  -0.678  -3.409  0.00  0.00    +0.016 C 
ATOM     19  C   UNL     1      -7.035   0.309  -2.243  0.00  0.00    -0.077 C 
ATOM     20  N   UNL     1      -5.774   1.068  -2.200  0.00  0.00    +0.387 N 
ATOM     21  H   UNL     1      -4.930   0.366  -2.255  0.00  0.00    -0.085 HD
ATOM     22  H   UNL     1      -5.725   1.629  -1.255  0.00  0.00    -0.085 HD
ENDBRANCH   4  11
BRANCH   1  28
ATOM     23  C   UNL     1      -0.194   1.207  -2.360  0.00  0.00    +0.144 A 
ATOM     24  C   UNL     1       0.950   0.429  -2.432  0.00  0.00    +0.048 A 
ATOM     25  C   UNL     1       1.465   0.068  -3.663  0.00  0.00    +0.004 A 
ATOM     26  C   UNL     1       0.847   0.491  -4.826  0.00  0.00    +0.002 A 
ATOM     27  C   UNL     1      -0.291   1.272  -4.763  0.00  0.00    +0.030 A 
ATOM     28  C   UNL     1      -0.817   1.634  -3.531  0.00  0.00    +0.093 A 
BRANCH  23  29
ATOM     29  O   UNL     1      -0.704   1.559  -1.150  0.00  0.00    -0.490 OA
BRANCH  29  31
ATOM     30  C   UNL     1      -0.729   1.579   1.267  0.00  0.00    +0.048 C 
ATOM     31  C   UNL     1      -0.013   1.086   0.008  0.00  0.00    +0.226 C 
ENDBRANCH  29  31
ENDBRANCH  23  29
ENDBRANCH   1  28
TORSDOF 4
