REMARK  Name = ZINC63254628
REMARK  4 active torsions:
REMARK  status: ('A' for Active; 'I' for Inactive)
REMARK    1  A    between atoms: C_3  and  N_19
REMARK    2  A    between atoms: C_6  and  C_7
REMARK    3  A    between atoms: C_7  and  N_8
REMARK    4  A    between atoms: N_8  and  C_9
REMARK                            x       y       z     vdW  Elec       q    Type
REMARK                         _______ _______ _______ _____ _____    ______ ____
ROOT
ATOM      1  C   UNL     1      -0.017   1.378   0.010  0.00  0.00    +0.007 A 
ATOM      2  C   UNL     1       1.169   2.088   0.002  0.00  0.00    +0.029 A 
ATOM      3  C   UNL     1       2.381   1.412  -0.013  0.00  0.00    +0.083 A 
ATOM      4  C   UNL     1       2.398   0.021  -0.021  0.00  0.00    +0.147 A 
ATOM      5  C   UNL     1       1.207  -0.682  -0.013  0.00  0.00    +0.045 A 
ATOM      6  C   UNL     1       0.002  -0.004   0.002  0.00  0.00    -0.028 A 
ATOM      7  F   UNL     1       3.575  -0.641  -0.036  0.00  0.00    -0.203 F 
ENDROOT
BRANCH   3   8
ATOM      8  N   UNL     1       3.586   2.130  -0.021  0.00  0.00    -0.303 N 
ATOM      9  C   UNL     1       4.659   1.930   0.808  0.00  0.00    +0.112 A 
ATOM     10  C   UNL     1       5.596   2.832   0.459  0.00  0.00    +0.130 A 
ATOM     11  N   UNL     1       5.113   3.565  -0.556  0.00  0.00    -0.244 NA
ATOM     12  C   UNL     1       3.913   3.150  -0.856  0.00  0.00    +0.204 A 
ENDBRANCH   3   8
BRANCH   6  13
ATOM     13  C   UNL     1      -1.294  -0.774   0.011  0.00  0.00    +0.137 C 
BRANCH  13  14
ATOM     14  N   UNL     1      -1.727  -1.016  -1.368  0.00  0.00    -0.337 N 
ATOM     15  H   UNL     1      -1.192  -0.690  -2.108  0.00  0.00    +0.146 HD
BRANCH  14  16
ATOM     16  C   UNL     1      -2.900  -1.709  -1.613  0.00  0.00    +0.071 A 
ATOM     17  C   UNL     1      -3.686  -2.181  -0.540  0.00  0.00    +0.157 A 
ATOM     18  N   UNL     1      -4.790  -2.835  -0.768  0.00  0.00    -0.177 NA
ATOM     19  N   UNL     1      -5.224  -3.084  -2.074  0.00  0.00    -0.242 N 
ATOM     20  H   UNL     1      -6.049  -3.572  -2.222  0.00  0.00    +0.192 HD
ATOM     21  C   UNL     1      -4.505  -2.652  -3.129  0.00  0.00    +0.285 A 
ATOM     22  O   UNL     1      -4.890  -2.873  -4.267  0.00  0.00    -0.265 OA
ATOM     23  C   UNL     1      -3.315  -1.941  -2.912  0.00  0.00    +0.129 A 
ATOM     24 CL   UNL     1      -2.374  -1.367  -4.253  0.00  0.00    -0.076 Cl
ENDBRANCH  14  16
ENDBRANCH  13  14
ENDBRANCH   6  13
TORSDOF 4
