REMARK  Name = ZINC52004737
REMARK  7 active torsions:
REMARK  status: ('A' for Active; 'I' for Inactive)
REMARK    1  A    between atoms: C_1  and  C_2
REMARK    2  A    between atoms: C_3  and  S_9
REMARK    3  A    between atoms: C_4  and  C_8
REMARK    4  A    between atoms: N_5  and  C_7
REMARK    5  A    between atoms: S_9  and  N_12
REMARK    6  A    between atoms: N_12  and  C_13
REMARK    7  A    between atoms: C_19  and  O_21
REMARK                            x       y       z     vdW  Elec       q    Type
REMARK                         _______ _______ _______ _____ _____    ______ ____
ROOT
ATOM      1  S   UNL     1      -0.009  -0.263  -2.808  0.00  0.00    +0.062 S 
ATOM      2  O   UNL     1      -0.549  -1.324  -3.583  0.00  0.00    -0.153 OA
ATOM      3  O   UNL     1      -0.578   1.039  -2.797  0.00  0.00    -0.153 OA
ENDROOT
BRANCH   1   6
ATOM      4  C   UNL     1      -0.018   1.503   0.010  0.00  0.00    +0.069 C 
ATOM      5  C   UNL     1       0.002  -0.004   0.002  0.00  0.00    +0.086 A 
ATOM      6  C   UNL     1       0.008  -0.818  -1.135  0.00  0.00    +0.148 A 
ATOM      7  C   UNL     1       0.028  -2.107  -0.725  0.00  0.00    +0.062 A 
ATOM      8  N   UNL     1       0.034  -2.109   0.625  0.00  0.00    -0.269 N 
ATOM      9  N   UNL     1       0.023  -0.777   1.058  0.00  0.00    -0.174 NA
ATOM     10  C   UNL     1       0.055  -3.295   1.485  0.00  0.00    +0.172 C 
ATOM     11  C   UNL     1       0.040  -3.323  -1.615  0.00  0.00    +0.067 C 
ENDBRANCH   1   6
BRANCH   1  12
ATOM     12  N   UNL     1       1.569  -0.086  -3.280  0.00  0.00    -0.184 NA
ATOM     13  H   UNL     1       1.914   0.793  -3.500  0.00  0.00    +0.148 HD
BRANCH  12  14
ATOM     14  C   UNL     1       2.443  -1.258  -3.367  0.00  0.00    +0.105 C 
ATOM     15  C   UNL     1       2.453  -1.783  -4.804  0.00  0.00    +0.023 C 
ATOM     16  C   UNL     1       3.366  -3.007  -4.895  0.00  0.00    +0.002 C 
ATOM     17  C   UNL     1       4.787  -2.615  -4.485  0.00  0.00    +0.003 C 
ATOM     18  C   UNL     1       4.777  -2.090  -3.048  0.00  0.00    +0.033 C 
ATOM     19  C   UNL     1       3.864  -0.866  -2.958  0.00  0.00    +0.133 C 
BRANCH  19  20
ATOM     20  O   UNL     1       3.855  -0.377  -1.615  0.00  0.00    -0.390 OA
ATOM     21  H   UNL     1       4.725  -0.109  -1.288  0.00  0.00    +0.210 HD
ENDBRANCH  19  20
ENDBRANCH  12  14
ENDBRANCH   1  12
TORSDOF 4
