REMARK  Name = ZINC37910012
REMARK  5 active torsions:
REMARK  status: ('A' for Active; 'I' for Inactive)
REMARK    1  A    between atoms: C_1  and  C_2
REMARK    2  A    between atoms: N_7  and  C_8
REMARK    3  A    between atoms: C_11  and  S_15
REMARK    4  A    between atoms: C_13  and  N_14
REMARK    5  A    between atoms: S_15  and  N_18
REMARK                            x       y       z     vdW  Elec       q    Type
REMARK                         _______ _______ _______ _____ _____    ______ ____
ROOT
ATOM      1  C   UNL     1       0.367  -0.247   2.518  0.00  0.00    +0.051 A 
ATOM      2  C   UNL     1      -0.492  -1.106   3.186  0.00  0.00    +0.027 A 
ATOM      3  C   UNL     1      -0.837  -0.854   4.501  0.00  0.00    +0.030 A 
ATOM      4  C   UNL     1      -0.326   0.253   5.154  0.00  0.00    +0.107 A 
ATOM      5  C   UNL     1       0.531   1.115   4.495  0.00  0.00    +0.053 A 
ATOM      6  C   UNL     1       0.886   0.867   3.178  0.00  0.00    +0.048 A 
ENDROOT
BRANCH   1  12
ATOM      7  C   UNL     1      -0.019   1.526   0.010  0.00  0.00    +0.028 C 
ATOM      8  C   UNL     1       0.002  -0.004   0.002  0.00  0.00    +0.070 C 
ATOM      9  C   UNL     1       0.760  -0.512  -1.242  0.00  0.00    +0.023 C 
ATOM     10  C   UNL     1       2.183  -0.793  -0.692  0.00  0.00    +0.021 C 
ATOM     11  C   UNL     1       1.869  -1.310   0.734  0.00  0.00    +0.105 C 
ATOM     12  N   UNL     1       0.718  -0.501   1.186  0.00  0.00    -0.326 N 
ENDBRANCH   1  12
BRANCH   6  13
ATOM     13  N   UNL     1       1.759   1.735   2.510  0.00  0.00    -0.356 N 
ATOM     14  H   UNL     1       2.003   1.562   1.587  0.00  0.00    +0.142 HD
ATOM     15  H   UNL     1       2.119   2.509   2.970  0.00  0.00    +0.142 HD
ENDBRANCH   6  13
BRANCH   4  16
ATOM     16  S   UNL     1      -0.771   0.568   6.829  0.00  0.00    +0.056 S 
ATOM     17  O   UNL     1      -0.593   1.961   7.042  0.00  0.00    -0.153 OA
ATOM     18  O   UNL     1      -2.014  -0.084   7.049  0.00  0.00    -0.153 OA
BRANCH  16  19
ATOM     19  N   UNL     1       0.342  -0.203   7.784  0.00  0.00    -0.204 NA
ATOM     20  H   UNL     1       1.064  -0.706   7.377  0.00  0.00    +0.144 HD
ATOM     21  H   UNL     1       0.271  -0.150   8.750  0.00  0.00    +0.144 HD
ENDBRANCH  16  19
ENDBRANCH   4  16
TORSDOF 4
