REMARK  Name = ZINC54871326
REMARK  6 active torsions:
REMARK  status: ('A' for Active; 'I' for Inactive)
REMARK    1  A    between atoms: C_1  and  C_2
REMARK    2  A    between atoms: C_2  and  C_3
REMARK    3  A    between atoms: C_2  and  C_4
REMARK    4  A    between atoms: C_11  and  C_13
REMARK    5  A    between atoms: N_15  and  N_16
REMARK    6  A    between atoms: C_17  and  C_19
REMARK                            x       y       z     vdW  Elec       q    Type
REMARK                         _______ _______ _______ _____ _____    ______ ____
ROOT
ATOM      1  C   UNL     1      -3.988  -1.318  -0.107  0.00  0.00    +0.250 C 
ATOM      2  O   UNL     1      -4.127  -0.619   0.875  0.00  0.00    -0.272 OA
ATOM      3  N   UNL     1      -4.726  -1.084  -1.210  0.00  0.00    -0.233 N 
ATOM      4  H   UNL     1      -4.615  -1.643  -1.996  0.00  0.00    +0.173 HD
ENDROOT
BRANCH   1  12
ATOM      5  C   UNL     1      -1.416  -0.572  -0.098  0.00  0.00    +0.219 C 
ATOM      6  O   UNL     1      -2.358   0.191  -0.160  0.00  0.00    -0.275 OA
ATOM      7  N   UNL     1      -1.629  -1.900  -0.014  0.00  0.00    -0.290 N 
ATOM      8  C   UNL     1      -0.504  -2.828   0.166  0.00  0.00    +0.108 C 
ATOM      9  C   UNL     1      -0.784  -3.712   1.386  0.00  0.00    +0.019 C 
ATOM     10  C   UNL     1      -2.142  -4.396   1.214  0.00  0.00    +0.004 C 
ATOM     11  C   UNL     1      -3.242  -3.335   1.123  0.00  0.00    +0.032 C 
ATOM     12  C   UNL     1      -2.990  -2.447  -0.094  0.00  0.00    +0.163 C 
BRANCH   5  14
ATOM     13  C   UNL     1      -0.037   1.457  -0.461  0.00  0.00    +0.017 C 
ATOM     14  C   UNL     1      -0.009  -0.033  -0.116  0.00  0.00    +0.069 C 
ATOM     15  C   UNL     1       0.629  -0.226   1.261  0.00  0.00    +0.017 C 
ENDBRANCH   5  14
ENDBRANCH   1  12
BRANCH   3  16
ATOM     16  N   UNL     1      -5.654  -0.034  -1.223  0.00  0.00    -0.231 N 
ATOM     17  C   UNL     1      -6.392   0.199  -2.326  0.00  0.00    +0.273 C 
ATOM     18  O   UNL     1      -6.253  -0.499  -3.308  0.00  0.00    -0.270 OA
ATOM     19  H   UNL     1      -5.765   0.524  -0.438  0.00  0.00    +0.173 HD
BRANCH  17  20
ATOM     20  C   UNL     1      -7.390   1.329  -2.340  0.00  0.00    +0.297 C 
ATOM     21  C   UNL     1      -8.513   1.039  -1.334  0.00  0.00    +0.283 C 
ATOM     22  O   UNL     1      -9.448   2.122  -1.383  0.00  0.00    -0.484 OA
ATOM     23  C   UNL     1      -9.834   2.542  -2.619  0.00  0.00    +0.162 A 
ATOM     24  C   UNL     1     -10.979   3.314  -2.749  0.00  0.00    +0.049 A 
ATOM     25  C   UNL     1     -11.382   3.750  -3.997  0.00  0.00    +0.004 A 
ATOM     26  C   UNL     1     -10.645   3.419  -5.118  0.00  0.00    +0.004 A 
ATOM     27  C   UNL     1      -9.504   2.649  -4.996  0.00  0.00    +0.049 A 
ATOM     28  C   UNL     1      -9.095   2.206  -3.746  0.00  0.00    +0.163 A 
ATOM     29  O   UNL     1      -7.973   1.442  -3.643  0.00  0.00    -0.472 OA
ENDBRANCH  17  20
ENDBRANCH   3  16
TORSDOF 4
