REMARK  Name = ZINC67277268
REMARK  4 active torsions:
REMARK  status: ('A' for Active; 'I' for Inactive)
REMARK    1  A    between atoms: C_3  and  C_4
REMARK    2  A    between atoms: C_4  and  N_5
REMARK    3  A    between atoms: N_5  and  C_6
REMARK    4  A    between atoms: C_9  and  C_11
REMARK                            x       y       z     vdW  Elec       q    Type
REMARK                         _______ _______ _______ _____ _____    ______ ____
ROOT
ATOM      1  C   UNL     1       0.673  -4.349  -1.268  0.00  0.00    +0.075 C 
ATOM      2  C   UNL     1       0.728  -4.631   0.235  0.00  0.00    +0.015 C 
ATOM      3  C   UNL     1       0.772  -6.144   0.468  0.00  0.00    +0.036 C 
ATOM      4  C   UNL     1       1.998  -6.732  -0.222  0.00  0.00    +0.112 C 
ATOM      5  C   UNL     1       1.969  -6.437  -1.718  0.00  0.00    +0.036 C 
ATOM      6  C   UNL     1       1.921  -4.923  -1.941  0.00  0.00    +0.015 C 
ATOM      7  C   UNL     1       3.264  -6.189   0.399  0.00  0.00    +0.244 C 
ATOM      8  O   UNL     1       3.624  -5.032   0.441  0.00  0.00    -0.273 OA
ATOM      9  N   UNL     1       3.910  -7.264   0.897  0.00  0.00    -0.238 N 
ATOM     10  C   UNL     1       3.229  -8.395   0.676  0.00  0.00    +0.307 C 
ATOM     11  O   UNL     1       3.609  -9.493   1.032  0.00  0.00    -0.252 OA
ATOM     12  N   UNL     1       2.076  -8.179   0.015  0.00  0.00    -0.285 N 
ATOM     13  H   UNL     1       4.763  -7.222   1.358  0.00  0.00    +0.159 HD
ATOM     14  H   UNL     1       1.425  -8.847  -0.251  0.00  0.00    +0.151 HD
ENDROOT
BRANCH   1  16
ATOM     15  N   UNL     1      -0.542  -2.196  -1.328  0.00  0.00    -0.298 N 
ATOM     16  C   UNL     1       0.617  -2.861  -1.498  0.00  0.00    +0.219 C 
ATOM     17  O   UNL     1       1.616  -2.262  -1.836  0.00  0.00    -0.275 OA
BRANCH  15  18
ATOM     18  C   UNL     1      -0.624  -0.770  -1.657  0.00  0.00    +0.076 C 
ATOM     19  C   UNL     1       0.690   0.004  -1.775  0.00  0.00    +0.024 C 
ATOM     20  C   UNL     1      -0.116  -0.332  -3.031  0.00  0.00    +0.024 C 
ENDBRANCH  15  18
BRANCH  15  21
ATOM     21  C   UNL     1      -1.721  -2.897  -0.814  0.00  0.00    +0.111 C 
BRANCH  21  24
ATOM     22  C   UNL     1      -3.930  -4.020  -1.653  0.00  0.00    +0.005 C 
ATOM     23  C   UNL     1      -2.769  -4.873  -2.170  0.00  0.00    +0.005 C 
ATOM     24  C   UNL     1      -2.587  -3.365  -1.985  0.00  0.00    +0.006 C 
ENDBRANCH  21  24
ENDBRANCH  15  21
ENDBRANCH   1  16
TORSDOF 4
