REMARK  Name = ZINC39652797
REMARK  8 active torsions:
REMARK  status: ('A' for Active; 'I' for Inactive)
REMARK    1  A    between atoms: C_1  and  C_2
REMARK    2  A    between atoms: C_2  and  O_3
REMARK    3  A    between atoms: O_3  and  C_4
REMARK    4  A    between atoms: C_9  and  C_10
REMARK    5  A    between atoms: C_10  and  C_11
REMARK    6  A    between atoms: C_11  and  N_12
REMARK    7  A    between atoms: C_13  and  C_15
REMARK    8  A    between atoms: C_26  and  C_28
REMARK                            x       y       z     vdW  Elec       q    Type
REMARK                         _______ _______ _______ _____ _____    ______ ____
ROOT
ATOM      1  C   UNL     1       5.762   1.364  -4.946  0.00  0.00    +0.100 C 
ATOM      2  C   UNL     1       4.862   2.606  -5.134  0.00  0.00    +0.121 C 
ATOM      3  N   UNL     1       5.445   3.631  -4.237  0.00  0.00    -0.295 N 
ATOM      4  C   UNL     1       6.910   3.450  -4.375  0.00  0.00    +0.115 C 
ATOM      5  C   UNL     1       7.107   1.923  -4.451  0.00  0.00    -0.004 C 
ATOM      6  C   UNL     1       8.217   1.581  -5.440  0.00  0.00    -0.010 C 
ATOM      7  C   UNL     1       9.553   2.096  -4.898  0.00  0.00    -0.082 C 
ATOM      8  N   UNL     1       9.825   1.479  -3.594  0.00  0.00    +0.379 N 
ATOM      9  C   UNL     1       8.803   1.888  -2.624  0.00  0.00    -0.082 C 
ATOM     10  C   UNL     1       7.434   1.364  -3.070  0.00  0.00    -0.010 C 
ATOM     11  C   UNL     1       4.792   4.526  -3.470  0.00  0.00    +0.265 C 
ATOM     12  O   UNL     1       3.580   4.486  -3.388  0.00  0.00    -0.268 OA
ATOM     13  H   UNL     1       9.813   0.474  -3.690  0.00  0.00    -0.086 HD
ATOM     14  H   UNL     1      10.734   1.772  -3.268  0.00  0.00    -0.086 HD
ENDROOT
BRANCH  11  15
ATOM     15  C   UNL     1       5.551   5.560  -2.727  0.00  0.00    +0.126 A 
ATOM     16  C   UNL     1       4.869   6.409  -1.843  0.00  0.00    +0.033 A 
ATOM     17  C   UNL     1       5.557   7.364  -1.153  0.00  0.00    +0.012 A 
ATOM     18  C   UNL     1       6.946   7.464  -1.357  0.00  0.00    +0.000 A 
ATOM     19  C   UNL     1       7.716   8.424  -0.680  0.00  0.00    +0.010 A 
ATOM     20  C   UNL     1       9.057   8.490  -0.903  0.00  0.00    +0.001 A 
ATOM     21  C   UNL     1       9.679   7.618  -1.795  0.00  0.00    +0.002 A 
ATOM     22  C   UNL     1       8.966   6.676  -2.469  0.00  0.00    +0.028 A 
ATOM     23  C   UNL     1       7.576   6.575  -2.266  0.00  0.00    +0.072 A 
ATOM     24  N   UNL     1       6.854   5.658  -2.909  0.00  0.00    -0.242 NA
ENDBRANCH  11  15
BRANCH   1  26
ATOM     25  N   UNL     1       5.377  -0.891  -4.006  0.00  0.00    -0.315 N 
ATOM     26  C   UNL     1       5.168   0.437  -3.917  0.00  0.00    +0.218 C 
ATOM     27  O   UNL     1       4.502   0.886  -3.008  0.00  0.00    -0.275 OA
ATOM     28  H   UNL     1       5.910  -1.251  -4.733  0.00  0.00    +0.149 HD
BRANCH  25  29
ATOM     29  C   UNL     1       4.800  -1.793  -3.006  0.00  0.00    +0.109 C 
BRANCH  29  30
ATOM     30  C   UNL     1       5.186  -3.236  -3.337  0.00  0.00    +0.057 C 
BRANCH  30  36
ATOM     31  C   UNL     1       3.290  -4.618  -2.453  0.00  0.00    +0.124 A 
ATOM     32  C   UNL     1       2.748  -5.476  -1.506  0.00  0.00    +0.046 A 
ATOM     33  C   UNL     1       3.504  -5.870  -0.420  0.00  0.00    +0.004 A 
ATOM     34  C   UNL     1       4.800  -5.411  -0.275  0.00  0.00    +0.000 A 
ATOM     35  C   UNL     1       5.342  -4.556  -1.216  0.00  0.00    +0.007 A 
ATOM     36  C   UNL     1       4.592  -4.163  -2.308  0.00  0.00    -0.004 A 
BRANCH  31  37
ATOM     37  O   UNL     1       2.548  -4.229  -3.523  0.00  0.00    -0.492 OA
BRANCH  37  39
ATOM     38  C   UNL     1       0.541  -4.194  -4.869  0.00  0.00    +0.048 C 
ATOM     39  C   UNL     1       1.215  -4.737  -3.607  0.00  0.00    +0.225 C 
ENDBRANCH  37  39
ENDBRANCH  31  37
ENDBRANCH  30  36
ENDBRANCH  29  30
ENDBRANCH  25  29
ENDBRANCH   1  26
TORSDOF 7
