REMARK  Name = ZINC50466960
REMARK  4 active torsions:
REMARK  status: ('A' for Active; 'I' for Inactive)
REMARK    1  A    between atoms: N_3  and  C_7
REMARK    2  A    between atoms: C_7  and  C_8
REMARK    3  A    between atoms: N_13  and  C_16
REMARK    4  A    between atoms: C_16  and  C_17
REMARK                            x       y       z     vdW  Elec       q    Type
REMARK                         _______ _______ _______ _____ _____    ______ ____
ROOT
ATOM      1  C   UNL     1       4.286  -0.041   2.247  0.00  0.00    +0.237 C 
ATOM      2  O   UNL     1       3.702  -0.579   3.164  0.00  0.00    -0.274 OA
ATOM      3  N   UNL     1       5.622  -0.175   2.129  0.00  0.00    -0.298 N 
ATOM      4  C   UNL     1       6.352   0.474   1.029  0.00  0.00    +0.123 C 
ATOM      5  C   UNL     1       7.226  -0.578   0.338  0.00  0.00    +0.103 C 
ATOM      6  N   UNL     1       8.073  -1.240   1.339  0.00  0.00    -0.291 NA
ATOM      7  C   UNL     1       7.263  -1.968   2.325  0.00  0.00    +0.103 C 
ATOM      8  C   UNL     1       6.390  -0.968   3.101  0.00  0.00    +0.123 C 
ENDROOT
BRANCH   1   9
ATOM      9  C   UNL     1       3.519   0.776   1.240  0.00  0.00    +0.239 C 
BRANCH   9  12
ATOM     10  C   UNL     1       0.073   1.425   2.081  0.00  0.00    +0.064 A 
ATOM     11  C   UNL     1       1.319   1.853   1.780  0.00  0.00    +0.111 A 
ATOM     12  N   UNL     1       2.095   0.766   1.586  0.00  0.00    -0.261 N 
ATOM     13  N   UNL     1       1.302  -0.373   1.773  0.00  0.00    -0.156 NA
ATOM     14  C   UNL     1       0.086   0.020   2.071  0.00  0.00    +0.138 A 
ATOM     15  N   UNL     1      -1.007  -0.814   2.333  0.00  0.00    -0.342 N 
ATOM     16  H   UNL     1      -1.871  -0.429   2.545  0.00  0.00    +0.144 HD
ATOM     17  H   UNL     1      -0.900  -1.778   2.302  0.00  0.00    +0.144 HD
ENDBRANCH   9  12
ENDBRANCH   1   9
BRANCH   6  18
ATOM     18  C   UNL     1       9.047  -2.133   0.697  0.00  0.00    +0.198 C 
BRANCH  18  19
ATOM     19  C   UNL     1      10.183  -1.302   0.098  0.00  0.00    +0.402 C 
ATOM     20  F   UNL     1      10.725  -0.472   1.086  0.00  0.00    -0.169 F 
ATOM     21  F   UNL     1      11.178  -2.155  -0.391  0.00  0.00    -0.169 F 
ATOM     22  F   UNL     1       9.686  -0.517  -0.948  0.00  0.00    -0.169 F 
ENDBRANCH  18  19
ENDBRANCH   6  18
TORSDOF 4
