REMARK  Name = ZINC40347403
REMARK  10 active torsions:
REMARK  status: ('A' for Active; 'I' for Inactive)
REMARK    1  A    between atoms: C_1  and  C_2
REMARK    2  A    between atoms: C_2  and  C_3
REMARK    3  A    between atoms: C_3  and  C_5
REMARK    4  A    between atoms: C_3  and  N_6
REMARK    5  A    between atoms: C_7  and  C_9
REMARK    6  A    between atoms: C_9  and  C_10
REMARK    7  A    between atoms: C_10  and  N_11
REMARK    8  A    between atoms: N_11  and  S_12
REMARK    9  A    between atoms: S_12  and  C_15
REMARK   10  A    between atoms: N_17  and  C_21
REMARK                            x       y       z     vdW  Elec       q    Type
REMARK                         _______ _______ _______ _____ _____    ______ ____
ROOT
ATOM      1  N   UNL     1      -0.076   0.897  -7.243  0.00  0.00    -0.189 NA
ATOM      2  H   UNL     1      -1.044   0.838  -7.229  0.00  0.00    +0.148 HD
ENDROOT
BRANCH   1   3
ATOM      3  S   UNL     1       0.703   1.430  -8.603  0.00  0.00    +0.063 S 
ATOM      4  O   UNL     1      -0.304   1.694  -9.570  0.00  0.00    -0.153 OA
ATOM      5  O   UNL     1       1.630   2.421  -8.179  0.00  0.00    -0.153 OA
BRANCH   3   6
ATOM      6  C   UNL     1       1.655   0.082  -9.221  0.00  0.00    +0.164 A 
ATOM      7  C   UNL     1       1.469  -0.547 -10.404  0.00  0.00    +0.138 A 
ATOM      8  N   UNL     1       2.399  -1.520 -10.505  0.00  0.00    -0.271 N 
ATOM      9  N   UNL     1       3.185  -1.492  -9.347  0.00  0.00    -0.155 NA
ATOM     10  C   UNL     1       2.744  -0.526  -8.576  0.00  0.00    +0.165 A 
ATOM     11  N   UNL     1       3.265  -0.166  -7.328  0.00  0.00    -0.340 N 
ATOM     12  C   UNL     1       2.558  -2.444 -11.631  0.00  0.00    +0.172 C 
ATOM     13  H   UNL     1       2.868   0.565  -6.828  0.00  0.00    +0.144 HD
ATOM     14  H   UNL     1       4.024  -0.647  -6.962  0.00  0.00    +0.144 HD
ENDBRANCH   3   6
ENDBRANCH   1   3
BRANCH   1  15
ATOM     15  C   UNL     1       0.697   0.513  -6.059  0.00  0.00    +0.115 C 
BRANCH  15  16
ATOM     16  C   UNL     1      -0.234   0.422  -4.849  0.00  0.00    +0.112 C 
BRANCH  16  18
ATOM     17  N   UNL     1      -0.055  -0.114  -2.441  0.00  0.00    -0.313 N 
ATOM     18  C   UNL     1       0.561   0.028  -3.631  0.00  0.00    +0.214 C 
ATOM     19  O   UNL     1       1.755  -0.162  -3.722  0.00  0.00    -0.276 OA
ATOM     20  H   UNL     1      -1.010   0.038  -2.368  0.00  0.00    +0.149 HD
BRANCH  17  21
ATOM     21  C   UNL     1       0.718  -0.497  -1.257  0.00  0.00    +0.070 C 
ATOM     22  C   UNL     1       0.849  -2.021  -1.205  0.00  0.00    +0.028 C 
BRANCH  21  24
ATOM     23  C   UNL     1      -0.019   1.526   0.010  0.00  0.00    +0.005 C 
ATOM     24  C   UNL     1       0.002  -0.004   0.002  0.00  0.00    +0.018 C 
ENDBRANCH  21  24
ENDBRANCH  17  21
ENDBRANCH  16  18
ENDBRANCH  15  16
ENDBRANCH   1  15
TORSDOF 7
