REMARK  Name = ZINC53103421
REMARK  5 active torsions:
REMARK  status: ('A' for Active; 'I' for Inactive)
REMARK    1  A    between atoms: C_1  and  C_2
REMARK    2  A    between atoms: C_5  and  C_8
REMARK    3  A    between atoms: C_5  and  N_10
REMARK    4  A    between atoms: C_8  and  O_9
REMARK    5  A    between atoms: C_11  and  C_13
REMARK                            x       y       z     vdW  Elec       q    Type
REMARK                         _______ _______ _______ _____ _____    ______ ____
ROOT
ATOM      1  N   UNL     1       2.849  -2.025  -0.070  0.00  0.00    -0.307 N 
ATOM      2  C   UNL     1       3.737  -2.417   0.865  0.00  0.00    +0.218 C 
ATOM      3  O   UNL     1       3.423  -3.253   1.686  0.00  0.00    -0.275 OA
ATOM      4  H   UNL     1       3.122  -1.412  -0.771  0.00  0.00    +0.149 HD
ENDROOT
BRANCH   2   5
ATOM      5  C   UNL     1       5.120  -1.818   0.891  0.00  0.00    +0.092 C 
ATOM      6  C   UNL     1       5.922  -2.433   2.040  0.00  0.00    +0.016 C 
ATOM      7  C   UNL     1       7.315  -1.801   2.087  0.00  0.00    +0.020 C 
ATOM      8  C   UNL     1       8.049  -2.094   0.774  0.00  0.00    +0.109 C 
ATOM      9  N   UNL     1       7.215  -1.635  -0.346  0.00  0.00    -0.285 N 
ATOM     10  C   UNL     1       5.828  -2.111  -0.436  0.00  0.00    +0.122 C 
ATOM     11  C   UNL     1       7.714  -0.794  -1.273  0.00  0.00    +0.300 C 
ATOM     12  O   UNL     1       7.046  -0.494  -2.243  0.00  0.00    -0.253 OA
ATOM     13  N   UNL     1       8.954  -0.285  -1.124  0.00  0.00    -0.313 N 
ATOM     14  H   UNL     1       9.514  -0.581  -0.390  0.00  0.00    +0.146 HD
ATOM     15  H   UNL     1       9.285   0.376  -1.752  0.00  0.00    +0.146 HD
ENDBRANCH   2   5
BRANCH   1  20
ATOM     16  C   UNL     1       1.927  -4.119  -4.024  0.00  0.00    +0.007 C 
ATOM     17  C   UNL     1       1.296  -3.760  -2.677  0.00  0.00    -0.014 C 
ATOM     18  C   UNL     1       2.105  -4.401  -1.548  0.00  0.00    +0.005 C 
ATOM     19  C   UNL     1       1.474  -4.043  -0.201  0.00  0.00    +0.028 C 
ATOM     20  C   UNL     1       1.472  -2.523  -0.027  0.00  0.00    +0.058 C 
ATOM     21  C   UNL     1       0.663  -1.881  -1.156  0.00  0.00    +0.028 C 
ATOM     22  C   UNL     1       1.294  -2.240  -2.503  0.00  0.00    +0.005 C 
BRANCH  20  23
ATOM     23  C   UNL     1       0.842  -2.164   1.320  0.00  0.00    +0.181 C 
BRANCH  23  24
ATOM     24  O   UNL     1       0.953  -0.756   1.538  0.00  0.00    -0.393 OA
ATOM     25  H   UNL     1       0.573  -0.457   2.375  0.00  0.00    +0.209 HD
ENDBRANCH  23  24
ENDBRANCH  20  23
ENDBRANCH   1  20
TORSDOF 4
