REMARK  Name = ZINC04336575
REMARK  8 active torsions:
REMARK  status: ('A' for Active; 'I' for Inactive)
REMARK    1  A    between atoms: C_1  and  C_2
REMARK    2  A    between atoms: C_1  and  O_20
REMARK    3  A    between atoms: C_4  and  O_19
REMARK    4  A    between atoms: C_6  and  O_18
REMARK    5  A    between atoms: C_8  and  O_17
REMARK    6  A    between atoms: C_10  and  N_13
REMARK    7  A    between atoms: N_13  and  C_14
REMARK    8  A    between atoms: C_14  and  N_16
REMARK                            x       y       z     vdW  Elec       q    Type
REMARK                         _______ _______ _______ _____ _____    ______ ____
ROOT
ATOM      1  C   UNL     1       1.418   3.381  -0.019  0.00  0.00    +0.177 C 
ATOM      2  C   UNL     1       0.761   3.953   1.240  0.00  0.00    +0.177 C 
ATOM      3  C   UNL     1      -0.697   3.486   1.302  0.00  0.00    +0.178 C 
ATOM      4  C   UNL     1      -0.733   1.955   1.270  0.00  0.00    +0.192 C 
ATOM      5  C   UNL     1      -0.018   1.461   0.010  0.00  0.00    +0.237 C 
ATOM      6  O   UNL     1       1.323   1.956  -0.000  0.00  0.00    -0.348 OA
ENDROOT
BRANCH   5   7
ATOM      7  N   UNL     1       0.002  -0.004   0.002  0.00  0.00    -0.300 N 
ATOM      8  H   UNL     1       0.090  -0.492   0.836  0.00  0.00    +0.150 HD
BRANCH   7   9
ATOM      9  C   UNL     1      -0.102  -0.673  -1.163  0.00  0.00    +0.130 C 
ATOM     10  S   UNL     1      -0.257   0.189  -2.634  0.00  0.00    -0.019 S 
BRANCH   9  11
ATOM     11  N   UNL     1      -0.083  -2.021  -1.171  0.00  0.00    -0.341 N 
ATOM     12  H   UNL     1       0.004  -2.509  -0.337  0.00  0.00    +0.144 HD
ATOM     13  H   UNL     1      -0.158  -2.502  -2.010  0.00  0.00    +0.144 HD
ENDBRANCH   9  11
ENDBRANCH   7   9
ENDBRANCH   5   7
BRANCH   4  14
ATOM     14  O   UNL     1      -2.091   1.509   1.254  0.00  0.00    -0.385 OA
ATOM     15  H   UNL     1      -2.189   0.548   1.230  0.00  0.00    +0.210 HD
ENDBRANCH   4  14
BRANCH   3  16
ATOM     16  O   UNL     1      -1.298   3.955   2.510  0.00  0.00    -0.386 OA
ATOM     17  H   UNL     1      -2.224   3.696   2.615  0.00  0.00    +0.210 HD
ENDBRANCH   3  16
BRANCH   2  18
ATOM     18  O   UNL     1       0.804   5.380   1.195  0.00  0.00    -0.386 OA
ATOM     19  H   UNL     1       0.403   5.810   1.964  0.00  0.00    +0.210 HD
ENDBRANCH   2  18
BRANCH   1  20
ATOM     20  C   UNL     1       2.891   3.793  -0.057  0.00  0.00    +0.190 C 
BRANCH  20  21
ATOM     21  O   UNL     1       3.476   3.359  -1.287  0.00  0.00    -0.392 OA
ATOM     22  H   UNL     1       4.411   3.587  -1.380  0.00  0.00    +0.210 HD
ENDBRANCH  20  21
ENDBRANCH   1  20
TORSDOF 8
