REMARK  Name = ZINC48083306
REMARK  7 active torsions:
REMARK  status: ('A' for Active; 'I' for Inactive)
REMARK    1  A    between atoms: C_1  and  C_2
REMARK    2  A    between atoms: C_2  and  C_3
REMARK    3  A    between atoms: C_3  and  C_4
REMARK    4  A    between atoms: C_4  and  C_5
REMARK    5  A    between atoms: C_5  and  N_6
REMARK    6  A    between atoms: C_7  and  C_9
REMARK    7  A    between atoms: N_17  and  C_18
REMARK                            x       y       z     vdW  Elec       q    Type
REMARK                         _______ _______ _______ _____ _____    ______ ____
ROOT
ATOM      1  C   UNL     1      -4.562  -5.955  -0.009  0.00  0.00    +0.078 C 
ATOM      2  C   UNL     1      -4.239  -6.064  -1.501  0.00  0.00    +0.032 C 
ATOM      3  C   UNL     1      -3.811  -7.499  -1.823  0.00  0.00    +0.110 C 
ATOM      4  N   UNL     1      -4.859  -8.420  -1.363  0.00  0.00    -0.285 N 
ATOM      5  C   UNL     1      -5.309  -8.338   0.033  0.00  0.00    +0.110 C 
ATOM      6  C   UNL     1      -5.721  -6.893   0.334  0.00  0.00    +0.032 C 
ATOM      7  C   UNL     1      -5.398  -9.323  -2.207  0.00  0.00    +0.306 C 
ATOM      8  O   UNL     1      -5.087  -9.319  -3.382  0.00  0.00    -0.252 OA
ATOM      9  N   UNL     1      -6.282 -10.231  -1.747  0.00  0.00    -0.268 N 
ATOM     10  H   UNL     1      -6.588 -10.187  -0.828  0.00  0.00    +0.156 HD
ENDROOT
BRANCH   9  11
ATOM     11  C   UNL     1      -6.758 -11.239  -2.597  0.00  0.00    +0.051 A 
ATOM     12  C   UNL     1      -5.939 -11.765  -3.595  0.00  0.00    +0.028 A 
ATOM     13  C   UNL     1      -6.450 -12.758  -4.411  0.00  0.00    +0.043 A 
ATOM     14  C   UNL     1      -7.755 -13.196  -4.210  0.00  0.00    +0.099 A 
ATOM     15  N   UNL     1      -8.504 -12.674  -3.252  0.00  0.00    -0.348 N 
ATOM     16  C   UNL     1      -8.046 -11.729  -2.452  0.00  0.00    +0.107 A 
ATOM     17  N   UNL     1      -8.279 -14.196  -5.025  0.00  0.00    -0.317 N 
ATOM     18  C   UNL     1      -7.566 -14.870  -6.120  0.00  0.00    +0.106 C 
ATOM     19  C   UNL     1      -8.547 -15.879  -6.753  0.00  0.00    +0.020 C 
ATOM     20  C   UNL     1      -9.934 -15.316  -6.347  0.00  0.00    +0.020 C 
ATOM     21  C   UNL     1      -9.638 -14.758  -4.930  0.00  0.00    +0.106 C 
ATOM     22  H   UNL     1      -9.411 -12.996  -3.132  0.00  0.00    +0.167 HD
ENDBRANCH   9  11
BRANCH   1  24
ATOM     23  N   UNL     1      -4.082  -3.531   0.096  0.00  0.00    -0.315 N 
ATOM     24  C   UNL     1      -4.952  -4.536   0.317  0.00  0.00    +0.216 C 
ATOM     25  O   UNL     1      -6.048  -4.299   0.779  0.00  0.00    -0.276 OA
ATOM     26  H   UNL     1      -3.205  -3.720  -0.273  0.00  0.00    +0.149 HD
BRANCH  23  27
ATOM     27  C   UNL     1      -4.460  -2.151   0.414  0.00  0.00    +0.104 C 
BRANCH  27  28
ATOM     28  C   UNL     1      -3.301  -1.213   0.071  0.00  0.00    +0.019 C 
BRANCH  28  29
ATOM     29  C   UNL     1      -3.697   0.228   0.403  0.00  0.00    +0.001 C 
BRANCH  29  31
ATOM     30  C   UNL     1      -2.933   2.607   0.391  0.00  0.00    +0.004 C 
ATOM     31  C   UNL     1      -2.538   1.166   0.060  0.00  0.00    -0.003 C 
ENDBRANCH  29  31
ENDBRANCH  28  29
ENDBRANCH  27  28
ENDBRANCH  23  27
ENDBRANCH   1  24
TORSDOF 6
