REMARK  Name = ZINC61808626
REMARK  6 active torsions:
REMARK  status: ('A' for Active; 'I' for Inactive)
REMARK    1  A    between atoms: C_4  and  N_18
REMARK    2  A    between atoms: C_6  and  C_7
REMARK    3  A    between atoms: N_9  and  C_10
REMARK    4  A    between atoms: N_9  and  C_14
REMARK    5  A    between atoms: C_10  and  C_11
REMARK    6  A    between atoms: C_14  and  C_15
REMARK                            x       y       z     vdW  Elec       q    Type
REMARK                         _______ _______ _______ _____ _____    ______ ____
ROOT
ATOM      1  C   UNL     1      -1.291  -0.752  -0.361  0.00  0.00    +0.248 C 
ATOM      2  O   UNL     1      -0.255  -0.126  -0.474  0.00  0.00    -0.270 OA
ATOM      3  N   UNL     1      -2.440  -0.107  -0.076  0.00  0.00    -0.280 N 
ENDROOT
BRANCH   1   9
ATOM      4  C   UNL     1      -0.697  -2.790  -1.663  0.00  0.00    +0.014 A 
ATOM      5  C   UNL     1      -0.699  -4.161  -1.821  0.00  0.00    +0.023 A 
ATOM      6  C   UNL     1      -1.290  -4.969  -0.864  0.00  0.00    +0.071 A 
ATOM      7  C   UNL     1      -1.881  -4.408   0.256  0.00  0.00    +0.145 A 
ATOM      8  C   UNL     1      -1.885  -3.040   0.424  0.00  0.00    +0.047 A 
ATOM      9  C   UNL     1      -1.291  -2.219  -0.536  0.00  0.00    +0.039 A 
ATOM     10 CL   UNL     1      -1.290  -6.693  -1.070  0.00  0.00    -0.081 Cl
BRANCH   7  11
ATOM     11  N   UNL     1      -2.511  -5.280   1.273  0.00  0.00    +0.058 N 
ATOM     12  O   UNL     1      -3.028  -4.791   2.251  0.00  0.00    -0.126 OA
ATOM     13  O   UNL     1      -2.509  -6.480   1.126  0.00  0.00    -0.126 OA
ENDBRANCH   7  11
ENDBRANCH   1   9
BRANCH   3  14
ATOM     14  C   UNL     1      -2.455   1.354   0.024  0.00  0.00    +0.204 C 
BRANCH  14  15
ATOM     15  C   UNL     1      -2.650   1.949  -1.347  0.00  0.00    +0.228 C 
ATOM     16  O   UNL     1      -2.765   1.224  -2.312  0.00  0.00    -0.274 OA
ATOM     17  N   UNL     1      -2.696   3.287  -1.500  0.00  0.00    -0.328 N 
ATOM     18  H   UNL     1      -2.604   3.868  -0.729  0.00  0.00    +0.145 HD
ATOM     19  H   UNL     1      -2.822   3.670  -2.383  0.00  0.00    +0.145 HD
ENDBRANCH  14  15
ENDBRANCH   3  14
BRANCH   3  20
ATOM     20  C   UNL     1      -3.674  -0.868   0.134  0.00  0.00    +0.204 C 
BRANCH  20  21
ATOM     21  C   UNL     1      -3.856  -1.133   1.607  0.00  0.00    +0.228 C 
ATOM     22  O   UNL     1      -3.036  -0.726   2.402  0.00  0.00    -0.274 OA
ATOM     23  N   UNL     1      -4.931  -1.822   2.040  0.00  0.00    -0.328 N 
ATOM     24  H   UNL     1      -5.587  -2.148   1.403  0.00  0.00    +0.145 HD
ATOM     25  H   UNL     1      -5.048  -1.993   2.987  0.00  0.00    +0.145 HD
ENDBRANCH  20  21
ENDBRANCH   3  20
TORSDOF 6
