REMARK  Name = ZINC39545430
REMARK  7 active torsions:
REMARK  status: ('A' for Active; 'I' for Inactive)
REMARK    1  A    between atoms: C_1  and  O_2
REMARK    2  A    between atoms: O_2  and  C_3
REMARK    3  A    between atoms: C_5  and  C_17
REMARK    4  A    between atoms: N_19  and  C_20
REMARK    5  A    between atoms: N_19  and  O_27
REMARK    6  A    between atoms: C_25  and  O_26
REMARK    7  A    between atoms: O_27  and  C_28
REMARK                            x       y       z     vdW  Elec       q    Type
REMARK                         _______ _______ _______ _____ _____    ______ ____
ROOT
ATOM      1  C   UNL     1       0.688  -0.190  -1.576  0.00  0.00    +0.134 C 
ATOM      2  C   UNL     1       0.410  -1.677  -1.555  0.00  0.00    +0.107 C 
ATOM      3  C   UNL     1       1.210  -2.225  -2.753  0.00  0.00    +0.154 C 
ATOM      4  N   UNL     1       1.826  -1.030  -3.351  0.00  0.00    -0.367 NA
ATOM      5  C   UNL     1       1.475   0.091  -2.586  0.00  0.00    +0.113 C 
ATOM      6  N   UNL     1       1.983   1.371  -2.916  0.00  0.00    -0.301 N 
ATOM      7  C   UNL     1       3.294   1.373  -3.420  0.00  0.00    +0.037 A 
ATOM      8  C   UNL     1       3.933   2.578  -3.677  0.00  0.00    +0.023 A 
ATOM      9  C   UNL     1       5.219   2.579  -4.181  0.00  0.00    +0.002 A 
ATOM     10  C   UNL     1       5.862   1.380  -4.429  0.00  0.00    +0.000 A 
ATOM     11  C   UNL     1       5.227   0.180  -4.171  0.00  0.00    +0.007 A 
ATOM     12  C   UNL     1       3.939   0.168  -3.660  0.00  0.00    -0.010 A 
ATOM     13  C   UNL     1       3.287  -1.161  -3.360  0.00  0.00    +0.124 C 
ATOM     14  H   UNL     1       1.466   2.184  -2.803  0.00  0.00    +0.153 HD
ATOM     15  H   UNL     1       1.488  -0.909  -4.294  0.00  0.00    +0.129 HD
ENDROOT
BRANCH   3  16
ATOM     16  C   UNL     1       0.289  -2.897  -3.738  0.00  0.00    +0.262 C 
ATOM     17  O   UNL     1       0.021  -2.351  -4.787  0.00  0.00    -0.271 OA
ATOM     18  N   UNL     1      -0.236  -4.106  -3.454  0.00  0.00    -0.144 N 
BRANCH  18  19
ATOM     19  C   UNL     1       0.158  -4.785  -2.294  0.00  0.00    +0.106 A 
ATOM     20  C   UNL     1      -0.471  -4.520  -1.086  0.00  0.00    +0.029 A 
ATOM     21  C   UNL     1      -0.081  -5.192   0.058  0.00  0.00    +0.002 A 
ATOM     22  C   UNL     1       0.935  -6.128   0.001  0.00  0.00    +0.004 A 
ATOM     23  C   UNL     1       1.566  -6.398  -1.199  0.00  0.00    +0.047 A 
ATOM     24  C   UNL     1       1.177  -5.733  -2.351  0.00  0.00    +0.140 A 
BRANCH  24  25
ATOM     25  O   UNL     1       1.793  -6.000  -3.533  0.00  0.00    -0.505 OA
ATOM     26  H   UNL     1       2.567  -5.447  -3.708  0.00  0.00    +0.292 HD
ENDBRANCH  24  25
ENDBRANCH  18  19
BRANCH  18  27
ATOM     27  O   UNL     1      -1.185  -4.688  -4.328  0.00  0.00    -0.276 OA
ATOM     28  C   UNL     1      -0.619  -5.585  -5.287  0.00  0.00    +0.227 C 
ENDBRANCH  18  27
ENDBRANCH   3  16
BRANCH   1  30
ATOM     29  C   UNL     1       0.507   2.089  -0.920  0.00  0.00    +0.276 C 
ATOM     30  O   UNL     1       0.193   0.714  -0.689  0.00  0.00    -0.496 OA
ENDBRANCH   1  30
TORSDOF 5
