REMARK  Name = ZINC25756918
REMARK  6 active torsions:
REMARK  status: ('A' for Active; 'I' for Inactive)
REMARK    1  A    between atoms: C_1  and  C_2
REMARK    2  A    between atoms: C_4  and  O_22
REMARK    3  A    between atoms: C_10  and  C_12
REMARK    4  A    between atoms: C_12  and  C_13
REMARK    5  A    between atoms: C_13  and  C_15
REMARK    6  A    between atoms: C_13  and  N_18
REMARK                            x       y       z     vdW  Elec       q    Type
REMARK                         _______ _______ _______ _____ _____    ______ ____
ROOT
ATOM      1  C   UNK     1      -0.684   1.882   0.459  0.00  0.00    +0.045 C 
ATOM      2  C   UNK     1      -0.839   0.386   0.357  0.00  0.00    -0.033 A 
ATOM      3  C   UNK     1      -1.212  -0.205  -0.834  0.00  0.00    +0.091 A 
ATOM      4  C   UNK     1      -1.349  -1.583  -0.910  0.00  0.00    +0.285 A 
ATOM      5  O   UNK     1      -1.128  -2.364   0.153  0.00  0.00    -0.425 OA
ATOM      6  C   UNK     1      -0.762  -1.839   1.341  0.00  0.00    +0.141 A 
ATOM      7  C   UNK     1      -0.536  -2.658   2.433  0.00  0.00    +0.070 A 
ATOM      8  C   UNK     1      -0.158  -2.096   3.653  0.00  0.00    +0.037 A 
ATOM      9  N   UNK     1       0.065  -2.900   4.729  0.00  0.00    -0.285 N 
ATOM     10  C   UNK     1       0.719  -2.435   5.775  0.00  0.00    +0.216 C 
ATOM     11  O   UNK     1       1.233  -1.331   5.732  0.00  0.00    -0.276 OA
ATOM     12  C   UNK     1      -0.005  -0.704   3.777  0.00  0.00    +0.024 A 
ATOM     13  C   UNK     1      -0.225   0.110   2.712  0.00  0.00    +0.013 A 
ATOM     14  C   UNK     1      -0.602  -0.442   1.474  0.00  0.00    +0.021 A 
ATOM     15  H   UNK     1      -0.257  -3.815   4.726  0.00  0.00    +0.155 HD
ENDROOT
BRANCH   4  16
ATOM     16  O   UNK     1      -1.712  -2.147  -2.078  0.00  0.00    -0.480 OA
ATOM     17  H   UNK     1      -1.785  -3.111  -2.043  0.00  0.00    +0.295 HD
ENDBRANCH   4  16
BRANCH  10  18
ATOM     18  C   UNK     1       0.832  -3.270   7.025  0.00  0.00    +0.091 C 
BRANCH  18  19
ATOM     19  C   UNK     1       1.634  -2.504   8.079  0.00  0.00    +0.049 C 
BRANCH  19  20
ATOM     20  N   UNK     1       3.013  -2.322   7.608  0.00  0.00    +0.387 N 
ATOM     21  H   UNK     1       3.438  -3.224   7.453  0.00  0.00    -0.089 HD
ATOM     22  H   UNK     1       3.008  -1.800   6.745  0.00  0.00    -0.089 HD
ATOM     23  H   UNK     1       3.542  -1.817   8.303  0.00  0.00    -0.089 HD
ENDBRANCH  19  20
BRANCH  19  24
ATOM     24  C   UNK     1       1.642  -3.284   9.369  0.00  0.00    +0.342 C 
ATOM     25  O   UNK     1       2.672  -3.809   9.757  0.00  0.00    -0.248 OA
ATOM     26  O   UNK     1       0.620  -3.389  10.024  0.00  0.00    -0.248 OA
ENDBRANCH  19  24
ENDBRANCH  18  19
ENDBRANCH  10  18
TORSDOF 5
