REMARK  Name = ZINC37316596
REMARK  7 active torsions:
REMARK  status: ('A' for Active; 'I' for Inactive)
REMARK    1  A    between atoms: C_1  and  C_2
REMARK    2  A    between atoms: C_2  and  C_4
REMARK    3  A    between atoms: C_2  and  N_10
REMARK    4  A    between atoms: N_10  and  C_11
REMARK    5  A    between atoms: C_15  and  N_17
REMARK    6  A    between atoms: N_17  and  S_18
REMARK    7  A    between atoms: S_18  and  N_21
REMARK                            x       y       z     vdW  Elec       q    Type
REMARK                         _______ _______ _______ _____ _____    ______ ____
ROOT
ATOM      1  C   UNL     1      -0.018  -0.613  -2.401  0.00  0.00    +0.029 A 
ATOM      2  C   UNL     1      -1.371  -0.295  -2.450  0.00  0.00    +0.023 A 
ATOM      3  C   UNL     1      -2.070  -0.430  -3.634  0.00  0.00    +0.004 A 
ATOM      4  C   UNL     1      -1.429  -0.881  -4.772  0.00  0.00    +0.024 A 
ATOM      5  C   UNL     1      -0.077  -1.200  -4.729  0.00  0.00    +0.051 A 
ATOM      6  C   UNL     1       0.630  -1.060  -3.542  0.00  0.00    +0.047 A 
ENDROOT
BRANCH   1   7
ATOM      7  N   UNL     1       0.688  -0.476  -1.203  0.00  0.00    -0.337 N 
ATOM      8  H   UNL     1       1.632  -0.695  -1.170  0.00  0.00    +0.147 HD
BRANCH   7  10
ATOM      9  C   UNL     1      -0.019   1.526   0.010  0.00  0.00    +0.033 C 
ATOM     10  C   UNL     1       0.002  -0.004   0.002  0.00  0.00    +0.105 C 
BRANCH  10  11
ATOM     11  C   UNL     1       0.731  -0.503   1.223  0.00  0.00    +0.024 A 
ATOM     12  C   UNL     1       0.226  -1.063   2.350  0.00  0.00    +0.030 A 
ATOM     13  C   UNL     1       1.094  -1.451   3.353  0.00  0.00    +0.023 A 
ATOM     14  C   UNL     1       2.425  -1.260   3.180  0.00  0.00    +0.046 A 
ATOM     15  S   UNL     1       2.485  -0.518   1.558  0.00  0.00    -0.099 S 
ATOM     16 BR   UNL     1      -1.639  -1.309   2.546  0.00  0.00    -0.049 Br
ENDBRANCH  10  11
ENDBRANCH   7  10
ENDBRANCH   1   7
BRANCH   5  17
ATOM     17  N   UNL     1       0.571  -1.657  -5.879  0.00  0.00    -0.207 N 
ATOM     18  H   UNL     1       1.167  -2.420  -5.829  0.00  0.00    +0.175 HD
BRANCH  17  19
ATOM     19  S   UNL     1       0.321  -0.894  -7.327  0.00  0.00    +0.107 S 
ATOM     20  O   UNL     1       1.128  -1.566  -8.285  0.00  0.00    -0.138 OA
ATOM     21  O   UNL     1      -1.086  -0.759  -7.478  0.00  0.00    -0.138 OA
BRANCH  19  22
ATOM     22  N   UNL     1       0.931   0.638  -7.186  0.00  0.00    -0.191 NA
ATOM     23  H   UNL     1       1.339   0.923  -6.353  0.00  0.00    +0.146 HD
ATOM     24  H   UNL     1       0.881   1.251  -7.936  0.00  0.00    +0.146 HD
ENDBRANCH  19  22
ENDBRANCH  17  19
ENDBRANCH   5  17
TORSDOF 6
