REMARK  Name = ZINC35361516
REMARK  6 active torsions:
REMARK  status: ('A' for Active; 'I' for Inactive)
REMARK    1  A    between atoms: C_1  and  C_2
REMARK    2  A    between atoms: C_15  and  O_34
REMARK    3  A    between atoms: C_18  and  C_31
REMARK    4  A    between atoms: C_23  and  C_25
REMARK    5  A    between atoms: C_25  and  C_30
REMARK    6  A    between atoms: N_32  and  O_33
REMARK                            x       y       z     vdW  Elec       q    Type
REMARK                         _______ _______ _______ _____ _____    ______ ____
ROOT
ATOM      1  C   UNL     1      -0.677   1.206  -0.290  0.00  0.00    +0.012 C 
ATOM      2  C   UNL     1      -0.532  -0.316  -0.305  0.00  0.00    -0.023 C 
ATOM      3  C   UNL     1      -1.937  -0.924  -0.350  0.00  0.00    +0.012 C 
ATOM      4  C   UNL     1      -1.846  -2.447  -0.407  0.00  0.00    +0.065 C 
ATOM      5  C   UNL     1      -1.169  -2.950   0.871  0.00  0.00    +0.170 C 
ATOM      6  C   UNL     1       0.209  -2.315   1.024  0.00  0.00    +0.069 C 
ATOM      7  C   UNL     1       0.128  -0.788   1.000  0.00  0.00    +0.000 C 
ATOM      8  C   UNL     1       1.545  -0.229   1.131  0.00  0.00    +0.004 C 
ATOM      9  C   UNL     1       2.395  -0.685  -0.062  0.00  0.00    +0.004 C 
ATOM     10  C   UNL     1       1.732  -0.176  -1.337  0.00  0.00    -0.001 C 
ATOM     11  C   UNL     1       0.329  -0.777  -1.475  0.00  0.00    +0.027 C 
ATOM     12  C   UNL     1      -0.229  -0.452  -2.849  0.00  0.00    +0.119 C 
ATOM     13  C   UNL     1       0.594  -1.120  -3.969  0.00  0.00    +0.045 C 
ATOM     14  C   UNL     1       1.984  -1.455  -3.516  0.00  0.00    +0.022 C 
ATOM     15  C   UNL     1       2.552  -0.377  -2.575  0.00  0.00    +0.005 C 
ATOM     16  C   UNL     1       4.001  -0.846  -2.385  0.00  0.00    +0.005 C 
ATOM     17  C   UNL     1       4.395  -1.386  -3.787  0.00  0.00    +0.010 C 
ATOM     18  C   UNL     1       3.078  -1.500  -4.601  0.00  0.00    +0.060 C 
ATOM     19  O   UNL     1      -1.984  -2.621   2.007  0.00  0.00    -0.346 OA
ATOM     20  C   UNL     1      -2.753  -3.817   2.277  0.00  0.00    +0.191 C 
ATOM     21  C   UNL     1      -1.736  -4.932   1.926  0.00  0.00    +0.191 C 
ATOM     22  O   UNL     1      -1.029  -4.378   0.798  0.00  0.00    -0.346 OA
ENDROOT
BRANCH  18  23
ATOM     23  C   UNL     1       2.965  -0.336  -5.587  0.00  0.00    +0.171 C 
ATOM     24  O   UNL     1       3.244   0.900  -4.909  0.00  0.00    -0.346 OA
ATOM     25  C   UNL     1       2.353   1.866  -5.518  0.00  0.00    +0.191 C 
ATOM     26  C   UNL     1       1.089   1.008  -5.777  0.00  0.00    +0.191 C 
ATOM     27  O   UNL     1       1.634  -0.282  -6.117  0.00  0.00    -0.346 OA
ATOM     28  C   UNL     1       3.965  -0.530  -6.728  0.00  0.00    +0.074 C 
ENDBRANCH  18  23
BRANCH  14  29
ATOM     29  C   UNL     1       2.011  -2.830  -2.878  0.00  0.00    +0.133 C 
ATOM     30  N   UNL     1       0.932  -3.512  -2.782  0.00  0.00    -0.099 NA
BRANCH  30  31
ATOM     31  O   UNL     1       0.957  -4.796  -2.187  0.00  0.00    -0.409 OA
ATOM     32  H   UNL     1       0.095  -5.234  -2.159  0.00  0.00    +0.328 HD
ENDBRANCH  30  31
ENDBRANCH  14  29
BRANCH  12  33
ATOM     33  O   UNL     1      -1.580  -0.909  -2.979  0.00  0.00    -0.391 OA
ATOM     34  H   UNL     1      -1.977  -0.723  -3.841  0.00  0.00    +0.210 HD
ENDBRANCH  12  33
TORSDOF 4
