REMARK  Name = ZINC61332818
REMARK  6 active torsions:
REMARK  status: ('A' for Active; 'I' for Inactive)
REMARK    1  A    between atoms: C_1  and  C_2
REMARK    2  A    between atoms: C_2  and  C_3
REMARK    3  A    between atoms: C_2  and  N_10
REMARK    4  A    between atoms: C_14  and  C_16
REMARK    5  A    between atoms: C_16  and  N_17
REMARK    6  A    between atoms: C_20  and  C_22
REMARK                            x       y       z     vdW  Elec       q    Type
REMARK                         _______ _______ _______ _____ _____    ______ ____
ROOT
ATOM      1  N   UNL     1       0.688  -0.476  -1.203  0.00  0.00    -0.296 N 
ATOM      2  C   UNL     1       0.006  -0.608  -2.358  0.00  0.00    +0.306 C 
ATOM      3  O   UNL     1      -1.177  -0.335  -2.400  0.00  0.00    -0.252 OA
ATOM      4  N   UNL     1       0.637  -1.043  -3.467  0.00  0.00    -0.242 N 
ATOM      5  C   UNL     1      -0.045  -1.174  -4.623  0.00  0.00    +0.204 C 
ATOM      6  O   UNL     1      -1.225  -0.902  -4.664  0.00  0.00    -0.277 OA
ATOM      7  H   UNL     1       1.632  -0.695  -1.170  0.00  0.00    +0.151 HD
ATOM      8  H   UNL     1       1.582  -1.261  -3.434  0.00  0.00    +0.159 HD
ENDROOT
BRANCH   1  10
ATOM      9  C   UNL     1      -0.019   1.526   0.010  0.00  0.00    +0.028 C 
ATOM     10  C   UNL     1       0.002  -0.004   0.002  0.00  0.00    +0.075 C 
BRANCH  10  11
ATOM     11  C   UNL     1       0.742  -0.511   1.242  0.00  0.00    +0.012 C 
ATOM     12  C   UNL     1       0.673  -2.053   1.317  0.00  0.00    +0.009 C 
ATOM     13  C   UNL     1      -0.075  -2.349   2.653  0.00  0.00    -0.010 C 
ATOM     14  C   UNL     1       0.939  -1.945   3.766  0.00  0.00    +0.004 C 
ATOM     15  C   UNL     1       1.008  -0.402   3.691  0.00  0.00    +0.004 C 
ATOM     16  C   UNL     1       0.029  -0.020   2.539  0.00  0.00    -0.006 C 
ATOM     17  C   UNL     1      -1.065  -1.132   2.707  0.00  0.00    +0.007 C 
ENDBRANCH  10  11
ENDBRANCH   1  10
BRANCH   5  18
ATOM     18  C   UNL     1       0.661  -1.660  -5.862  0.00  0.00    +0.019 C 
BRANCH  18  19
ATOM     19  N   UNL     1      -0.293  -1.717  -6.978  0.00  0.00    +0.386 N 
ATOM     20  C   UNL     1      -1.317  -2.748  -6.706  0.00  0.00    -0.077 C 
ATOM     21  C   UNL     1      -1.623  -3.376  -8.088  0.00  0.00    -0.008 C 
ATOM     22  C   UNL     1      -0.219  -3.379  -8.749  0.00  0.00    +0.056 C 
ATOM     23  C   UNL     1       0.416  -2.076  -8.220  0.00  0.00    -0.066 C 
ATOM     24  H   UNL     1      -0.740  -0.819  -7.090  0.00  0.00    -0.081 HD
BRANCH  22  25
ATOM     25  C   UNL     1      -0.337  -3.342 -10.251  0.00  0.00    +0.212 C 
ATOM     26  O   UNL     1       0.128  -2.411 -10.873  0.00  0.00    -0.276 OA
ATOM     27  N   UNL     1      -0.959  -4.345 -10.903  0.00  0.00    -0.329 N 
ATOM     28  H   UNL     1      -1.330  -5.090 -10.405  0.00  0.00    +0.145 HD
ATOM     29  H   UNL     1      -1.035  -4.322 -11.869  0.00  0.00    +0.145 HD
ENDBRANCH  22  25
ENDBRANCH  18  19
ENDBRANCH   5  18
TORSDOF 5
