REMARK  Name = ZINC31469589
REMARK  8 active torsions:
REMARK  status: ('A' for Active; 'I' for Inactive)
REMARK    1  A    between atoms: C_1  and  C_2
REMARK    2  A    between atoms: C_8  and  N_10
REMARK    3  A    between atoms: N_10  and  C_11
REMARK    4  A    between atoms: N_10  and  C_21
REMARK    5  A    between atoms: C_11  and  C_12
REMARK    6  A    between atoms: N_17  and  C_18
REMARK    7  A    between atoms: C_21  and  C_22
REMARK    8  A    between atoms: N_27  and  C_28
REMARK                            x       y       z     vdW  Elec       q    Type
REMARK                         _______ _______ _______ _____ _____    ______ ____
ROOT
ATOM      1  N   UNL     1       5.961   1.999  -0.381  0.00  0.00    +0.393 N 
ATOM      2  H   UNL     1       6.072   2.924   0.205  0.00  0.00    -0.080 HD
ENDROOT
BRANCH   1   9
ATOM      3  C   UNL     1       5.965  -0.003  -2.476  0.00  0.00    +0.006 C 
ATOM      4  C   UNL     1       5.021   1.201  -2.497  0.00  0.00    -0.028 C 
ATOM      5  C   UNL     1       4.728   1.594  -3.946  0.00  0.00    +0.002 C 
ATOM      6  C   UNL     1       6.036   1.960  -4.650  0.00  0.00    +0.000 C 
ATOM      7  C   UNL     1       6.693   3.137  -3.925  0.00  0.00    -0.002 C 
ATOM      8  C   UNL     1       6.987   2.743  -2.476  0.00  0.00    -0.015 C 
ATOM      9  C   UNL     1       5.679   2.377  -1.772  0.00  0.00    -0.064 C 
ENDBRANCH   1   9
BRANCH   1  10
ATOM     10  C   UNL     1       4.846   1.233   0.193  0.00  0.00    +0.020 C 
BRANCH  10  11
ATOM     11  C   UNL     1       3.632   2.119   0.304  0.00  0.00    +0.204 C 
ATOM     12  O   UNL     1       3.718   3.301   0.045  0.00  0.00    -0.277 OA
ATOM     13  N   UNL     1       2.451   1.598   0.690  0.00  0.00    -0.242 N 
ATOM     14  C   UNL     1       1.365   2.391   0.789  0.00  0.00    +0.306 C 
ATOM     15  O   UNL     1       1.451   3.575   0.530  0.00  0.00    -0.252 OA
ATOM     16  N   UNL     1       0.183   1.870   1.175  0.00  0.00    -0.296 N 
ATOM     17  H   UNL     1       2.373   0.526   0.924  0.00  0.00    +0.159 HD
ATOM     18  H   UNL     1       0.106   0.799   1.414  0.00  0.00    +0.151 HD
BRANCH  16  19
ATOM     19  C   UNL     1      -0.998   2.730   1.278  0.00  0.00    +0.075 C 
ATOM     20  C   UNL     1      -1.897   2.553   2.503  0.00  0.00    +0.024 C 
ATOM     21  C   UNL     1      -2.369   2.067   1.131  0.00  0.00    +0.024 C 
ENDBRANCH  16  19
ENDBRANCH  10  11
ENDBRANCH   1  10
BRANCH   1  22
ATOM     22  C   UNL     1       7.220   1.249  -0.284  0.00  0.00    +0.020 C 
BRANCH  22  23
ATOM     23  C   UNL     1       8.376   2.214  -0.220  0.00  0.00    +0.204 C 
ATOM     24  O   UNL     1       8.167   3.405  -0.131  0.00  0.00    -0.277 OA
ATOM     25  N   UNL     1       9.642   1.753  -0.262  0.00  0.00    -0.242 N 
ATOM     26  C   UNL     1      10.675   2.616  -0.205  0.00  0.00    +0.306 C 
ATOM     27  O   UNL     1      10.466   3.810  -0.115  0.00  0.00    -0.252 OA
ATOM     28  N   UNL     1      11.941   2.155  -0.247  0.00  0.00    -0.296 N 
ATOM     29  H   UNL     1       9.831   0.673  -0.343  0.00  0.00    +0.159 HD
ATOM     30  H   UNL     1      12.130   1.075  -0.328  0.00  0.00    +0.151 HD
BRANCH  28  31
ATOM     31  C   UNL     1      13.065   3.093  -0.185  0.00  0.00    +0.075 C 
ATOM     32  C   UNL     1      14.231   2.864  -1.148  0.00  0.00    +0.024 C 
ATOM     33  C   UNL     1      14.399   2.563   0.343  0.00  0.00    +0.024 C 
ENDBRANCH  28  31
ENDBRANCH  22  23
ENDBRANCH   1  22
TORSDOF 7
