REMARK  Name = ZINC52550803
REMARK  8 active torsions:
REMARK  status: ('A' for Active; 'I' for Inactive)
REMARK    1  A    between atoms: C_1  and  C_2
REMARK    2  A    between atoms: C_4  and  C_28
REMARK    3  A    between atoms: C_9  and  C_11
REMARK    4  A    between atoms: C_13  and  N_19
REMARK    5  A    between atoms: N_19  and  C_20
REMARK    6  A    between atoms: C_20  and  C_21
REMARK    7  A    between atoms: C_21  and  N_22
REMARK    8  A    between atoms: N_31  and  C_34
REMARK                            x       y       z     vdW  Elec       q    Type
REMARK                         _______ _______ _______ _____ _____    ______ ____
ROOT
ATOM      1  C   UNL     1      -0.018   1.503   0.010  0.00  0.00    +0.046 C 
ATOM      2  C   UNL     1       0.002  -0.004   0.002  0.00  0.00    -0.023 A 
ATOM      3  C   UNL     1       0.006  -0.682  -1.184  0.00  0.00    +0.009 A 
ATOM      4  C   UNL     1       0.025  -2.069  -1.207  0.00  0.00    -0.042 A 
ATOM      5  C   UNL     1       0.040  -2.787  -0.029  0.00  0.00    +0.031 A 
ATOM      6  C   UNL     1       0.037  -2.115   1.185  0.00  0.00    +0.067 A 
ATOM      7  C   UNL     1       0.023  -0.710   1.207  0.00  0.00    +0.092 A 
ATOM      8  N   UNL     1       0.030  -0.335   2.512  0.00  0.00    -0.231 NA
ATOM      9  C   UNL     1       0.052  -1.392   3.271  0.00  0.00    +0.126 A 
ATOM     10  N   UNL     1       0.048  -2.517   2.506  0.00  0.00    -0.341 N 
ATOM     11  H   UNL     1       0.062  -3.432   2.829  0.00  0.00    +0.167 HD
ENDROOT
BRANCH   4  12
ATOM     12  C   UNL     1       0.029  -2.796  -2.527  0.00  0.00    +0.016 C 
ATOM     13  C   UNL     1       1.264  -2.386  -3.334  0.00  0.00    -0.011 C 
ATOM     14  C   UNL     1       1.220  -3.067  -4.704  0.00  0.00    -0.079 C 
ATOM     15  N   UNL     1       0.007  -2.655  -5.420  0.00  0.00    +0.378 N 
ATOM     16  C   UNL     1      -1.181  -3.107  -4.688  0.00  0.00    -0.079 C 
ATOM     17  C   UNL     1      -1.230  -2.429  -3.317  0.00  0.00    -0.011 C 
ATOM     18  C   UNL     1       0.009  -3.248  -6.764  0.00  0.00    -0.096 C 
ATOM     19  H   UNL     1      -0.010  -1.649  -5.499  0.00  0.00    -0.082 HD
ENDBRANCH   4  12
BRANCH   9  20
ATOM     20  C   UNL     1       0.066  -1.373   4.778  0.00  0.00    +0.186 C 
ATOM     21  C   UNL     1       1.512  -1.386   5.235  0.00  0.00    +0.025 C 
ATOM     22  C   UNL     1       1.899  -2.414   6.045  0.00  0.00    +0.037 C 
ATOM     23  C   UNL     1       0.997  -3.399   6.428  0.00  0.00    +0.102 C 
ATOM     24  N   UNL     1      -0.262  -3.432   6.059  0.00  0.00    -0.188 NA
ATOM     25  C   UNL     1      -0.809  -2.509   5.270  0.00  0.00    +0.252 C 
ATOM     26  O   UNL     1      -1.980  -2.576   4.952  0.00  0.00    -0.273 OA
BRANCH  21  27
ATOM     27  N   UNL     1       2.386  -0.416   4.853  0.00  0.00    -0.344 N 
ATOM     28  H   UNL     1       2.088   0.305   4.276  0.00  0.00    +0.146 HD
BRANCH  27  29
ATOM     29  C   UNL     1       3.776  -0.460   5.313  0.00  0.00    +0.124 C 
BRANCH  29  30
ATOM     30  C   UNL     1       4.540   0.738   4.744  0.00  0.00    +0.162 C 
BRANCH  30  31
ATOM     31  N   UNL     1       5.930   0.694   5.204  0.00  0.00    -0.269 N 
ATOM     32  C   UNL     1       7.028   0.718   4.418  0.00  0.00    +0.128 A 
ATOM     33  C   UNL     1       8.113   0.661   5.225  0.00  0.00    +0.078 A 
ATOM     34  C   UNL     1       7.663   0.600   6.549  0.00  0.00    +0.154 A 
ATOM     35  N   UNL     1       6.355   0.625   6.537  0.00  0.00    -0.178 NA
ATOM     36 CL   UNL     1       9.771   0.664   4.709  0.00  0.00    -0.080 Cl
ENDBRANCH  30  31
ENDBRANCH  29  30
ENDBRANCH  27  29
ENDBRANCH  21  27
ENDBRANCH   9  20
TORSDOF 6
