REMARK  Name = ZINC23448164
REMARK  2 active torsions:
REMARK  status: ('A' for Active; 'I' for Inactive)
REMARK    1  A    between atoms: N_14  and  C_18
REMARK    2  A    between atoms: C_18  and  C_19
REMARK                            x       y       z     vdW  Elec       q    Type
REMARK                         _______ _______ _______ _____ _____    ______ ____
ROOT
ATOM      1  C   UNL     1      -0.017   1.377   0.010  0.00  0.00    +0.000 A 
ATOM      2  C   UNL     1       1.173   2.081   0.002  0.00  0.00    +0.000 A 
ATOM      3  C   UNL     1       2.378   1.404  -0.012  0.00  0.00    +0.006 A 
ATOM      4  C   UNL     1       2.394   0.018  -0.017  0.00  0.00    -0.012 A 
ATOM      5  C   UNL     1       1.213  -0.678  -0.011  0.00  0.00    -0.042 A 
ATOM      6  C   UNL     1       0.002  -0.004   0.002  0.00  0.00    +0.004 A 
ATOM      7  C   UNL     1       1.186  -2.200  -0.021  0.00  0.00    +0.035 C 
ATOM      8  C   UNL     1       1.690  -2.679   1.345  0.00  0.00    +0.005 C 
ATOM      9  C   UNL     1       3.197  -2.689   1.420  0.00  0.00    +0.003 C 
ATOM     10  C   UNL     1       3.919  -1.365   1.346  0.00  0.00    +0.040 C 
ATOM     11  C   UNL     1       3.740  -0.689  -0.020  0.00  0.00    +0.138 C 
ATOM     12  C   UNL     1       3.960  -1.602  -1.177  0.00  0.00    +0.251 C 
ATOM     13  O   UNL     1       3.531  -2.713  -1.404  0.00  0.00    -0.272 OA
ATOM     14  N   UNL     1       4.837  -0.954  -1.988  0.00  0.00    -0.215 N 
ATOM     15  C   UNL     1       5.319   0.145  -1.400  0.00  0.00    +0.310 C 
ATOM     16  O   UNL     1       6.140   0.884  -1.910  0.00  0.00    -0.252 OA
ATOM     17  N   UNL     1       4.789   0.340  -0.179  0.00  0.00    -0.281 N 
ATOM     18  H   UNL     1       5.036   1.010   0.473  0.00  0.00    +0.152 HD
ENDROOT
BRANCH  14  19
ATOM     19  C   UNL     1       5.200  -1.411  -3.330  0.00  0.00    +0.214 C 
BRANCH  19  20
ATOM     20  C   UNL     1       4.256  -0.809  -4.339  0.00  0.00    +0.238 C 
ATOM     21  O   UNL     1       3.367  -0.071  -3.972  0.00  0.00    -0.274 OA
ATOM     22  N   UNL     1       4.400  -1.092  -5.649  0.00  0.00    -0.239 N 
ATOM     23  C   UNL     1       3.555  -0.554  -6.551  0.00  0.00    +0.303 C 
ATOM     24  O   UNL     1       2.665   0.187  -6.183  0.00  0.00    -0.253 OA
ATOM     25  N   UNL     1       3.699  -0.837  -7.861  0.00  0.00    -0.313 N 
ATOM     26  H   UNL     1       5.111  -1.683  -5.942  0.00  0.00    +0.159 HD
ATOM     27  H   UNL     1       4.410  -1.428  -8.154  0.00  0.00    +0.146 HD
ATOM     28  H   UNL     1       3.092  -0.449  -8.510  0.00  0.00    +0.146 HD
ENDBRANCH  19  20
ENDBRANCH  14  19
TORSDOF 2
