REMARK  Name = ZINC40372245
REMARK  4 active torsions:
REMARK  status: ('A' for Active; 'I' for Inactive)
REMARK    1  A    between atoms: C_4  and  C_7
REMARK    2  A    between atoms: C_4  and  N_11
REMARK    3  A    between atoms: N_8  and  O_9
REMARK    4  A    between atoms: C_12  and  C_14
REMARK                            x       y       z     vdW  Elec       q    Type
REMARK                         _______ _______ _______ _____ _____    ______ ____
ROOT
ATOM      1  C   UNL     1       0.122   1.699  -0.193  0.00  0.00    +0.000 C 
ATOM      2  C   UNL     1       1.613   2.042  -0.242  0.00  0.00    +0.002 C 
ATOM      3  C   UNL     1       2.289   1.558   1.042  0.00  0.00    +0.033 C 
ATOM      4  C   UNL     1       2.118   0.043   1.169  0.00  0.00    +0.093 C 
ATOM      5  C   UNL     1       0.628  -0.300   1.218  0.00  0.00    +0.033 C 
ATOM      6  C   UNL     1      -0.049   0.184  -0.066  0.00  0.00    +0.002 C 
ENDROOT
BRANCH   4   7
ATOM      7  C   UNL     1       2.785  -0.434   2.434  0.00  0.00    +0.155 C 
ATOM      8  N   UNL     1       2.375  -0.004   3.581  0.00  0.00    -0.075 NA
ATOM      9  N   UNL     1       3.831  -1.327   2.367  0.00  0.00    -0.342 N 
ATOM     10  H   UNL     1       4.106  -1.688   1.509  0.00  0.00    +0.144 HD
ATOM     11  H   UNL     1       4.293  -1.595   3.176  0.00  0.00    +0.144 HD
BRANCH   8  12
ATOM     12  O   UNL     1       1.227   0.821   3.660  0.00  0.00    -0.408 OA
ATOM     13  H   UNL     1       0.998   1.092   4.559  0.00  0.00    +0.328 HD
ENDBRANCH   8  12
ENDBRANCH   4   7
BRANCH   4  14
ATOM     14  N   UNL     1       2.734  -0.616   0.015  0.00  0.00    -0.303 N 
ATOM     15  C   UNL     1       2.633  -1.952  -0.131  0.00  0.00    +0.217 C 
ATOM     16  O   UNL     1       1.958  -2.598   0.642  0.00  0.00    -0.275 OA
ATOM     17  H   UNL     1       3.214  -0.091  -0.645  0.00  0.00    +0.150 HD
BRANCH  15  18
ATOM     18  C   UNL     1       3.360  -2.645  -1.255  0.00  0.00    +0.075 C 
ATOM     19  C   UNL     1       2.830  -2.145  -2.615  0.00  0.00    +0.013 C 
ATOM     20  C   UNL     1       2.841  -3.406  -3.514  0.00  0.00    +0.001 C 
ATOM     21  C   UNL     1       2.400  -4.525  -2.538  0.00  0.00    +0.001 C 
ATOM     22  C   UNL     1       3.087  -4.158  -1.206  0.00  0.00    +0.013 C 
ENDBRANCH  15  18
ENDBRANCH   4  14
TORSDOF 4
