REMARK  Name = ZINC37929109
REMARK  5 active torsions:
REMARK  status: ('A' for Active; 'I' for Inactive)
REMARK    1  A    between atoms: C_1  and  C_2
REMARK    2  A    between atoms: C_3  and  N_9
REMARK    3  A    between atoms: N_9  and  S_10
REMARK    4  A    between atoms: S_10  and  C_13
REMARK    5  A    between atoms: C_18  and  N_19
REMARK                            x       y       z     vdW  Elec       q    Type
REMARK                         _______ _______ _______ _____ _____    ______ ____
ROOT
ATOM      1  S   UNL     1      -0.737  -0.662  -3.818  0.00  0.00    +0.074 S 
ATOM      2  O   UNL     1      -0.548   0.142  -4.974  0.00  0.00    -0.150 OA
ATOM      3  O   UNL     1      -0.302  -2.014  -3.750  0.00  0.00    -0.150 OA
ENDROOT
BRANCH   1   4
ATOM      4  C   UNL     1      -2.468  -0.673  -3.489  0.00  0.00    +0.130 A 
ATOM      5  C   UNL     1      -3.124  -1.870  -3.278  0.00  0.00    +0.050 A 
ATOM      6  C   UNL     1      -4.483  -1.879  -3.019  0.00  0.00    +0.043 A 
ATOM      7  C   UNL     1      -5.189  -0.690  -2.971  0.00  0.00    +0.022 A 
ATOM      8  C   UNL     1      -4.538   0.510  -3.181  0.00  0.00    +0.026 A 
ATOM      9  C   UNL     1      -3.172   0.522  -3.435  0.00  0.00    +0.052 A 
ATOM     10 CL   UNL     1      -5.305  -3.385  -2.755  0.00  0.00    -0.083 Cl
BRANCH   9  11
ATOM     11  N   UNL     1      -2.510   1.735  -3.642  0.00  0.00    -0.356 N 
ATOM     12  H   UNL     1      -1.544   1.752  -3.730  0.00  0.00    +0.142 HD
ATOM     13  H   UNL     1      -3.016   2.561  -3.699  0.00  0.00    +0.142 HD
ENDBRANCH   9  11
ENDBRANCH   1   4
BRANCH   1  14
ATOM     14  N   UNL     1      -0.005   0.133  -2.563  0.00  0.00    -0.216 N 
ATOM     15  H   UNL     1       0.510   0.938  -2.733  0.00  0.00    +0.174 HD
BRANCH  14  18
ATOM     16  C   UNL     1      -0.177   2.017  -0.438  0.00  0.00    +0.047 C 
ATOM     17  C   UNL     1      -0.216   0.530  -0.192  0.00  0.00    -0.010 A 
ATOM     18  C   UNL     1      -0.129  -0.354  -1.260  0.00  0.00    +0.052 A 
ATOM     19  C   UNL     1      -0.165  -1.723  -1.029  0.00  0.00    +0.025 A 
ATOM     20  C   UNL     1      -0.289  -2.202   0.261  0.00  0.00    +0.003 A 
ATOM     21  C   UNL     1      -0.376  -1.320   1.322  0.00  0.00    +0.020 A 
ATOM     22  C   UNL     1      -0.334   0.045   1.097  0.00  0.00    +0.046 A 
ATOM     23 CL   UNL     1      -0.435   1.148   2.433  0.00  0.00    -0.083 Cl
ENDBRANCH  14  18
ENDBRANCH   1  14
TORSDOF 4
