REMARK  Name = ZINC04689414
REMARK  3 active torsions:
REMARK  status: ('A' for Active; 'I' for Inactive)
REMARK    1  A    between atoms: C_5  and  N_7
REMARK    2  A    between atoms: C_11  and  C_12
REMARK    3  A    between atoms: C_15  and  O_18
REMARK                            x       y       z     vdW  Elec       q    Type
REMARK                         _______ _______ _______ _____ _____    ______ ____
ROOT
ATOM      1  N   UNL     1       4.781   5.647  -0.331  0.00  0.00    -0.216 N 
ATOM      2  C   UNL     1       4.873   4.305  -0.234  0.00  0.00    +0.262 C 
ATOM      3  O   UNL     1       5.956   3.750  -0.246  0.00  0.00    -0.269 OA
ATOM      4  C   UNL     1       3.624   3.527  -0.119  0.00  0.00    +0.100 C 
ATOM      5  C   UNL     1       3.638   2.150  -0.022  0.00  0.00    +0.026 C 
ATOM      6  C   UNL     1       2.358   4.289  -0.106  0.00  0.00    +0.255 C 
ATOM      7  O   UNL     1       1.288   3.720  -0.009  0.00  0.00    -0.270 OA
ATOM      8  N   UNL     1       2.423   5.633  -0.204  0.00  0.00    -0.263 N 
ATOM      9  C   UNL     1       3.596   6.272  -0.311  0.00  0.00    +0.151 C 
ATOM     10  S   UNL     1       3.578   7.980  -0.431  0.00  0.00    -0.018 S 
ATOM     11  H   UNL     1       1.601   6.148  -0.198  0.00  0.00    +0.157 HD
ENDROOT
BRANCH   1  16
ATOM     12  C   UNL     1       7.753   7.617   0.576  0.00  0.00    +0.002 A 
ATOM     13  C   UNL     1       8.268   7.907  -0.675  0.00  0.00    +0.002 A 
ATOM     14  C   UNL     1       7.628   7.450  -1.812  0.00  0.00    +0.022 A 
ATOM     15  C   UNL     1       6.475   6.695  -1.701  0.00  0.00    +0.063 A 
ATOM     16  C   UNL     1       5.953   6.407  -0.446  0.00  0.00    +0.062 A 
ATOM     17  C   UNL     1       6.599   6.869   0.693  0.00  0.00    +0.025 A 
ATOM     18 CL   UNL     1       5.676   6.114  -3.129  0.00  0.00    -0.082 Cl
ENDBRANCH   1  16
BRANCH   5  19
ATOM     19  C   UNL     1       2.388   1.396  -0.126  0.00  0.00    -0.024 A 
ATOM     20  C   UNL     1       2.104   0.372   0.791  0.00  0.00    +0.011 A 
ATOM     21  C   UNL     1       0.936  -0.327   0.688  0.00  0.00    +0.046 A 
ATOM     22  C   UNL     1       0.028  -0.026  -0.323  0.00  0.00    +0.117 A 
ATOM     23  C   UNL     1       0.304   0.987  -1.235  0.00  0.00    +0.046 A 
ATOM     24  C   UNL     1       1.468   1.694  -1.143  0.00  0.00    +0.011 A 
BRANCH  22  25
ATOM     25  O   UNL     1      -1.131  -0.725  -0.419  0.00  0.00    -0.507 OA
ATOM     26  H   UNL     1      -1.864  -0.343   0.083  0.00  0.00    +0.292 HD
ENDBRANCH  22  25
ENDBRANCH   5  19
TORSDOF 3
