REMARK  Name = ZINC54556869
REMARK  6 active torsions:
REMARK  status: ('A' for Active; 'I' for Inactive)
REMARK    1  A    between atoms: C_1  and  C_2
REMARK    2  A    between atoms: C_4  and  N_16
REMARK    3  A    between atoms: N_5  and  C_7
REMARK    4  A    between atoms: C_10  and  C_13
REMARK    5  A    between atoms: C_13  and  C_14
REMARK    6  A    between atoms: C_13  and  C_15
REMARK                            x       y       z     vdW  Elec       q    Type
REMARK                         _______ _______ _______ _____ _____    ______ ____
ROOT
ATOM      1  C   UNL     1      -0.018   1.503   0.010  0.00  0.00    +0.069 C 
ATOM      2  C   UNL     1       0.002  -0.004   0.002  0.00  0.00    +0.076 A 
ATOM      3  C   UNL     1       0.008  -0.815  -1.136  0.00  0.00    +0.080 A 
ATOM      4  C   UNL     1       0.027  -2.113  -0.724  0.00  0.00    +0.129 A 
ATOM      5  N   UNL     1       0.034  -2.109   0.634  0.00  0.00    -0.247 N 
ATOM      6  N   UNL     1       0.023  -0.775   1.059  0.00  0.00    -0.173 NA
ATOM      7 BR   UNL     1      -0.009  -0.216  -2.930  0.00  0.00    -0.045 Br
ENDROOT
BRANCH   5   8
ATOM      8  C   UNL     1       0.053  -3.291   1.500  0.00  0.00    +0.109 C 
ATOM      9  C   UNL     1       1.306  -3.259   2.378  0.00  0.00    +0.027 C 
ATOM     10  C   UNL     1       1.327  -4.492   3.282  0.00  0.00    +0.006 C 
ATOM     11  C   UNL     1       0.082  -4.494   4.171  0.00  0.00    -0.008 C 
ATOM     12  C   UNL     1      -1.171  -4.526   3.294  0.00  0.00    +0.006 C 
ATOM     13  C   UNL     1      -1.192  -3.293   2.389  0.00  0.00    +0.027 C 
BRANCH  11  14
ATOM     14  C   UNL     1       0.103  -5.728   5.076  0.00  0.00    -0.014 C 
ATOM     15  C   UNL     1       1.356  -5.696   5.953  0.00  0.00    +0.007 C 
ATOM     16  C   UNL     1      -1.142  -5.730   5.965  0.00  0.00    +0.007 C 
ENDBRANCH  11  14
ENDBRANCH   5   8
BRANCH   4  17
ATOM     17  N   UNL     1       0.039  -3.238  -1.545  0.00  0.00    -0.342 N 
ATOM     18  H   UNL     1       0.033  -3.135  -2.510  0.00  0.00    +0.144 HD
ATOM     19  H   UNL     1       0.052  -4.125  -1.152  0.00  0.00    +0.144 HD
ENDBRANCH   4  17
TORSDOF 3
