REMARK  Name = ZINC42427176
REMARK  6 active torsions:
REMARK  status: ('A' for Active; 'I' for Inactive)
REMARK    1  A    between atoms: C_1  and  C_2
REMARK    2  A    between atoms: C_3  and  C_9
REMARK    3  A    between atoms: C_7  and  N_8
REMARK    4  A    between atoms: C_9  and  N_10
REMARK    5  A    between atoms: C_12  and  C_19
REMARK    6  A    between atoms: C_16  and  C_18
REMARK                            x       y       z     vdW  Elec       q    Type
REMARK                         _______ _______ _______ _____ _____    ______ ____
ROOT
ATOM      1  N   UNL     1       1.346   0.545  -2.806  0.00  0.00    +0.385 N 
ATOM      2  C   UNL     1       2.225  -0.608  -3.032  0.00  0.00    -0.065 C 
ATOM      3  C   UNL     1       3.656  -0.124  -3.273  0.00  0.00    +0.058 C 
ATOM      4  C   UNL     1       3.680   0.787  -4.504  0.00  0.00    +0.009 C 
ATOM      5  C   UNL     1       2.704   1.947  -4.287  0.00  0.00    -0.015 C 
ATOM      6  C   UNL     1       1.308   1.385  -4.009  0.00  0.00    -0.071 C 
ATOM      7  C   UNL     1       0.328   2.540  -3.792  0.00  0.00    -0.013 C 
ATOM      8  H   UNL     1       1.696   1.086  -2.030  0.00  0.00    -0.081 HD
ENDROOT
BRANCH   3   9
ATOM      9  C   UNL     1       4.557  -1.310  -3.506  0.00  0.00    +0.212 C 
ATOM     10  O   UNL     1       4.099  -2.432  -3.481  0.00  0.00    -0.276 OA
ATOM     11  N   UNL     1       5.870  -1.122  -3.741  0.00  0.00    -0.329 N 
ATOM     12  H   UNL     1       6.237  -0.224  -3.760  0.00  0.00    +0.145 HD
ATOM     13  H   UNL     1       6.450  -1.885  -3.891  0.00  0.00    +0.145 HD
ENDBRANCH   3   9
BRANCH   1  14
ATOM     14  C   UNL     1      -0.011   0.072  -2.498  0.00  0.00    -0.042 C 
BRANCH  14  17
ATOM     15  C   UNL     1      -0.018   1.503   0.010  0.00  0.00    +0.046 C 
ATOM     16  C   UNL     1       0.002  -0.004   0.002  0.00  0.00    -0.028 A 
ATOM     17  C   UNL     1       0.006  -0.689  -1.198  0.00  0.00    -0.059 A 
ATOM     18  C   UNL     1       0.024  -2.071  -1.206  0.00  0.00    +0.002 A 
ATOM     19  C   UNL     1       0.039  -2.773  -0.014  0.00  0.00    +0.002 A 
ATOM     20  C   UNL     1       0.036  -2.095   1.188  0.00  0.00    +0.023 A 
ATOM     21  C   UNL     1       0.023  -0.706   1.200  0.00  0.00    +0.028 A 
BRANCH  21  22
ATOM     22  N   UNL     1       0.025  -0.016   2.415  0.00  0.00    -0.358 N 
ATOM     23  H   UNL     1       0.012   0.954   2.422  0.00  0.00    +0.142 HD
ATOM     24  H   UNL     1       0.040  -0.507   3.252  0.00  0.00    +0.142 HD
ENDBRANCH  21  22
ENDBRANCH  14  17
ENDBRANCH   1  14
TORSDOF 4
