REMARK  Name = ZINC33635733
REMARK  9 active torsions:
REMARK  status: ('A' for Active; 'I' for Inactive)
REMARK    1  A    between atoms: C_1  and  C_2
REMARK    2  A    between atoms: C_2  and  C_4
REMARK    3  A    between atoms: C_2  and  N_11
REMARK    4  A    between atoms: C_12  and  C_14
REMARK    5  A    between atoms: C_17  and  C_19
REMARK    6  A    between atoms: C_19  and  C_21
REMARK    7  A    between atoms: C_19  and  N_25
REMARK    8  A    between atoms: C_21  and  C_23
REMARK    9  A    between atoms: C_21  and  O_24
REMARK                            x       y       z     vdW  Elec       q    Type
REMARK                         _______ _______ _______ _____ _____    ______ ____
ROOT
ATOM      1  C   UNL     1       1.246  -1.633   2.989  0.00  0.00    +0.163 A 
ATOM      2  C   UNL     1       2.228  -0.713   2.785  0.00  0.00    +0.230 A 
ATOM      3  O   UNL     1       1.893  -0.020   1.685  0.00  0.00    -0.449 OA
ATOM      4  C   UNL     1       0.731  -0.503   1.223  0.00  0.00    +0.184 A 
ATOM      5  N   UNL     1       0.330  -1.467   1.997  0.00  0.00    -0.210 NA
ENDROOT
BRANCH   1   7
ATOM      6  N   UNL     1       0.147  -3.476   4.159  0.00  0.00    -0.303 N 
ATOM      7  C   UNL     1       1.185  -2.621   4.081  0.00  0.00    +0.266 C 
ATOM      8  O   UNL     1       2.072  -2.664   4.913  0.00  0.00    -0.268 OA
ATOM      9  H   UNL     1      -0.655  -3.438   3.407  0.00  0.00    +0.150 HD
BRANCH   6  11
ATOM     10  C   UNL     1      -0.543  -3.812   6.481  0.00  0.00    +0.033 C 
ATOM     11  C   UNL     1       0.086  -4.458   5.245  0.00  0.00    +0.100 C 
BRANCH  11  12
ATOM     12  C   UNL     1      -0.750  -5.635   4.812  0.00  0.00    -0.027 A 
ATOM     13  C   UNL     1      -1.906  -5.430   4.081  0.00  0.00    +0.006 A 
ATOM     14  C   UNL     1      -2.670  -6.509   3.680  0.00  0.00    +0.015 A 
ATOM     15  C   UNL     1      -2.285  -7.793   4.018  0.00  0.00    +0.018 A 
ATOM     16  C   UNL     1      -1.132  -7.998   4.754  0.00  0.00    +0.015 A 
ATOM     17  C   UNL     1      -0.365  -6.918   5.151  0.00  0.00    +0.006 A 
ATOM     18 BR   UNL     1      -3.334  -9.270   3.475  0.00  0.00    -0.050 Br
ENDBRANCH  11  12
ENDBRANCH   6  11
ENDBRANCH   1   7
BRANCH   4  19
ATOM     19  C   UNL     1       0.002  -0.004   0.002  0.00  0.00    +0.042 C 
BRANCH  19  20
ATOM     20  N   UNL     1      -0.018   1.465   0.010  0.00  0.00    +0.387 N 
ATOM     21  H   UNL     1      -0.550   1.829  -0.881  0.00  0.00    -0.089 HD
ATOM     22  H   UNL     1       1.014   1.845   0.002  0.00  0.00    -0.089 HD
ATOM     23  H   UNL     1      -0.533   1.819   0.915  0.00  0.00    -0.089 HD
ENDBRANCH  19  20
BRANCH  19  24
ATOM     24  C   UNL     1       0.718  -0.497  -1.257  0.00  0.00    +0.106 C 
ATOM     25  C   UNL     1       0.053   0.110  -2.493  0.00  0.00    +0.036 C 
BRANCH  24  26
ATOM     26  O   UNL     1       2.090  -0.101  -1.210  0.00  0.00    -0.393 OA
ATOM     27  H   UNL     1       2.768  -0.368  -2.035  0.00  0.00    +0.210 HD
ENDBRANCH  24  26
ENDBRANCH  19  24
ENDBRANCH   4  19
TORSDOF 7
