REMARK  Name = ZINC51808404
REMARK  7 active torsions:
REMARK  status: ('A' for Active; 'I' for Inactive)
REMARK    1  A    between atoms: C_1  and  C_2
REMARK    2  A    between atoms: C_7  and  N_8
REMARK    3  A    between atoms: C_9  and  C_11
REMARK    4  A    between atoms: N_13  and  C_14
REMARK    5  A    between atoms: C_14  and  C_15
REMARK    6  A    between atoms: N_17  and  C_18
REMARK    7  A    between atoms: C_18  and  C_19
REMARK                            x       y       z     vdW  Elec       q    Type
REMARK                         _______ _______ _______ _____ _____    ______ ____
ROOT
ATOM      1  N   UNL     1       0.025  -0.015   2.416  0.00  0.00    -0.278 N 
ATOM      2  C   UNL     1      -0.057  -0.695   3.577  0.00  0.00    +0.303 C 
ATOM      3  O   UNL     1      -0.040  -1.909   3.572  0.00  0.00    -0.265 OA
ATOM      4  H   UNL     1       0.077   0.953   2.424  0.00  0.00    +0.155 HD
ENDROOT
BRANCH   1  11
ATOM      5  C   UNL     1      -1.267   1.182   0.182  0.00  0.00    +0.046 C 
ATOM      6  C   UNL     1      -0.586  -0.159   0.085  0.00  0.00    -0.028 A 
ATOM      7  C   UNL     1      -0.571  -0.841  -1.116  0.00  0.00    +0.025 A 
ATOM      8  C   UNL     1       0.055  -2.072  -1.206  0.00  0.00    +0.041 A 
ATOM      9  C   UNL     1       0.667  -2.623  -0.094  0.00  0.00    +0.022 A 
ATOM     10  C   UNL     1       0.656  -1.945   1.109  0.00  0.00    +0.025 A 
ATOM     11  C   UNL     1       0.033  -0.706   1.201  0.00  0.00    +0.037 A 
ATOM     12 CL   UNL     1       0.071  -2.927  -2.716  0.00  0.00    -0.084 Cl
ENDBRANCH   1  11
BRANCH   2  13
ATOM     13  C   UNL     1      -0.168   0.045   4.869  0.00  0.00    +0.300 C 
ATOM     14  O   UNL     1      -0.184   1.259   4.874  0.00  0.00    -0.265 OA
ATOM     15  N   UNL     1      -0.249  -0.634   6.030  0.00  0.00    -0.299 N 
ATOM     16  H   UNL     1      -0.236  -1.604   6.027  0.00  0.00    +0.150 HD
BRANCH  15  17
ATOM     17  C   UNL     1      -0.358   0.092   7.298  0.00  0.00    +0.200 C 
BRANCH  17  18
ATOM     18  C   UNL     1      -0.434  -0.893   8.436  0.00  0.00    +0.231 C 
ATOM     19  O   UNL     1      -0.400  -2.084   8.211  0.00  0.00    -0.274 OA
ATOM     20  N   UNL     1      -0.539  -0.450   9.705  0.00  0.00    -0.303 N 
ATOM     21  H   UNL     1      -0.566   0.503   9.885  0.00  0.00    +0.150 HD
BRANCH  20  22
ATOM     22  C   UNL     1      -0.612  -1.407  10.811  0.00  0.00    +0.193 C 
BRANCH  22  23
ATOM     23  C   UNL     1      -0.721  -0.678  12.085  0.00  0.00    -0.087 C 
ATOM     24  C   UNL     1      -0.808  -0.096  13.101  0.00  0.00    +0.005 C 
ENDBRANCH  22  23
ENDBRANCH  20  22
ENDBRANCH  17  18
ENDBRANCH  15  17
ENDBRANCH   2  13
TORSDOF 6
