REMARK  Name = ZINC39528577
REMARK  2 active torsions:
REMARK  status: ('A' for Active; 'I' for Inactive)
REMARK    1  A    between atoms: C_1  and  C_2
REMARK    2  A    between atoms: C_7  and  N_8
REMARK                            x       y       z     vdW  Elec       q    Type
REMARK                         _______ _______ _______ _____ _____    ______ ____
ROOT
ATOM      1  N   UNL     1       0.025  -0.016   2.415  0.00  0.00    -0.331 N 
ATOM      2  C   UNL     1      -1.235   0.335   3.088  0.00  0.00    +0.086 C 
ATOM      3  C   UNL     1      -1.150  -0.123   4.548  0.00  0.00    -0.060 C 
ATOM      4  N   UNL     1       0.049   0.451   5.171  0.00  0.00    +0.400 N 
ATOM      5  C   UNL     1       1.254  -0.080   4.520  0.00  0.00    +0.119 C 
ATOM      6  C   UNL     1       1.288   0.375   3.061  0.00  0.00    +0.120 C 
ATOM      7  O   UNL     1       2.415   0.403   5.199  0.00  0.00    -0.250 OA
ATOM      8  H   UNL     1       0.030   1.455   5.073  0.00  0.00    -0.082 HD
ATOM      9  H   UNL     1       0.065   0.212   6.151  0.00  0.00    -0.082 HD
ENDROOT
BRANCH   1  16
ATOM     10  C   UNL     1      -0.018   1.503   0.010  0.00  0.00    +0.046 C 
ATOM     11  C   UNL     1       0.002  -0.004   0.002  0.00  0.00    -0.028 A 
ATOM     12  C   UNL     1       0.006  -0.689  -1.198  0.00  0.00    +0.019 A 
ATOM     13  C   UNL     1       0.024  -2.072  -1.206  0.00  0.00    +0.014 A 
ATOM     14  C   UNL     1       0.039  -2.774  -0.014  0.00  0.00    +0.016 A 
ATOM     15  C   UNL     1       0.035  -2.095   1.189  0.00  0.00    +0.024 A 
ATOM     16  C   UNL     1       0.023  -0.706   1.200  0.00  0.00    +0.033 A 
ATOM     17  I   UNL     1       0.030  -3.106  -3.028  0.00  0.00    -0.044 I 
ENDBRANCH   1  16
TORSDOF 1
