REMARK  Name = ZINC20543233
REMARK  6 active torsions:
REMARK  status: ('A' for Active; 'I' for Inactive)
REMARK    1  A    between atoms: C_1  and  C_2
REMARK    2  A    between atoms: C_4  and  N_23
REMARK    3  A    between atoms: N_5  and  C_7
REMARK    4  A    between atoms: C_7  and  C_8
REMARK    5  A    between atoms: N_10  and  C_11
REMARK    6  A    between atoms: C_11  and  C_12
REMARK                            x       y       z     vdW  Elec       q    Type
REMARK                         _______ _______ _______ _____ _____    ______ ____
ROOT
ATOM      1  C   UNL     1      -2.398   6.327  -1.564  0.00  0.00    +0.235 C 
ATOM      2  O   UNL     1      -2.740   7.032  -0.639  0.00  0.00    -0.274 OA
ATOM      3  N   UNL     1      -1.673   5.215  -1.331  0.00  0.00    -0.308 N 
ATOM      4  H   UNL     1      -1.363   4.575  -2.171  0.00  0.00    +0.149 HD
ENDROOT
BRANCH   1   5
ATOM      5  C   UNL     1      -2.783   6.694  -2.974  0.00  0.00    +0.241 C 
BRANCH   5  10
ATOM      6  C   UNL     1      -3.932  11.579  -3.082  0.00  0.00    +0.067 C 
ATOM      7  C   UNL     1      -4.043  10.078  -3.010  0.00  0.00    +0.062 A 
ATOM      8  C   UNL     1      -5.230   9.351  -2.880  0.00  0.00    +0.067 A 
ATOM      9  C   UNL     1      -4.908   8.028  -2.858  0.00  0.00    +0.115 A 
ATOM     10  N   UNL     1      -3.562   7.934  -2.961  0.00  0.00    -0.242 N 
ATOM     11  N   UNL     1      -3.046   9.233  -3.058  0.00  0.00    -0.174 NA
BRANCH   9  12
ATOM     12  N   UNL     1      -5.800   6.966  -2.746  0.00  0.00    -0.343 N 
ATOM     13  H   UNL     1      -5.426   5.932  -2.738  0.00  0.00    +0.144 HD
ATOM     14  H   UNL     1      -6.880   7.161  -2.665  0.00  0.00    +0.144 HD
ENDBRANCH   9  12
ENDBRANCH   5  10
ENDBRANCH   1   5
BRANCH   3  15
ATOM     15  C   UNL     1      -1.299   4.858   0.039  0.00  0.00    +0.157 C 
BRANCH  15  16
ATOM     16  C   UNL     1      -0.497   3.582   0.025  0.00  0.00    +0.034 A 
ATOM     17  C   UNL     1       0.843   3.514   0.012  0.00  0.00    +0.032 A 
ATOM     18  C   UNL     1       1.200   2.093   0.002  0.00  0.00    +0.001 A 
ATOM     19  C   UNL     1       2.410   1.397  -0.013  0.00  0.00    +0.030 A 
ATOM     20  C   UNL     1       2.406   0.029  -0.021  0.00  0.00    +0.042 A 
ATOM     21  C   UNL     1       1.206  -0.672  -0.013  0.00  0.00    +0.022 A 
ATOM     22  C   UNL     1       0.002  -0.004   0.002  0.00  0.00    +0.027 A 
ATOM     23  C   UNL     1      -0.017   1.387   0.010  0.00  0.00    +0.047 A 
ATOM     24  N   UNL     1      -1.029   2.321   0.019  0.00  0.00    -0.357 N 
ATOM     25  H   UNL     1      -2.120   2.184   0.021  0.00  0.00    +0.166 HD
ATOM     26 CL   UNL     1       3.910  -0.837  -0.040  0.00  0.00    -0.084 Cl
ENDBRANCH  15  16
ENDBRANCH   3  15
TORSDOF 5
