REMARK  Name = ZINC12926794
REMARK  6 active torsions:
REMARK  status: ('A' for Active; 'I' for Inactive)
REMARK    1  A    between atoms: C_3  and  S_20
REMARK    2  A    between atoms: C_6  and  N_7
REMARK    3  A    between atoms: C_8  and  C_10
REMARK    4  A    between atoms: C_16  and  C_18
REMARK    5  A    between atoms: S_20  and  N_23
REMARK    6  A    between atoms: N_23  and  C_24
REMARK                            x       y       z     vdW  Elec       q    Type
REMARK                         _______ _______ _______ _____ _____    ______ ____
ROOT
ATOM      1  C   UNL     1      -0.841  -3.259   0.206  0.00  0.00    +0.025 A 
ATOM      2  C   UNL     1      -0.664  -4.603  -0.057  0.00  0.00    +0.030 A 
ATOM      3  C   UNL     1       0.070  -5.003  -1.159  0.00  0.00    +0.109 A 
ATOM      4  C   UNL     1       0.625  -4.058  -2.003  0.00  0.00    +0.030 A 
ATOM      5  C   UNL     1       0.448  -2.712  -1.748  0.00  0.00    +0.025 A 
ATOM      6  C   UNL     1      -0.289  -2.308  -0.642  0.00  0.00    +0.034 A 
ENDROOT
BRANCH   6   7
ATOM      7  N   UNL     1      -0.470  -0.946  -0.381  0.00  0.00    -0.285 N 
ATOM      8  C   UNL     1      -1.637  -0.508   0.134  0.00  0.00    +0.221 C 
ATOM      9  O   UNL     1      -2.498  -1.302   0.447  0.00  0.00    -0.275 OA
ATOM     10  H   UNL     1       0.243  -0.316  -0.570  0.00  0.00    +0.155 HD
BRANCH   8  11
ATOM     11  C   UNL     1      -1.870   0.969   0.322  0.00  0.00    +0.093 C 
ATOM     12  C   UNL     1      -3.318   1.311  -0.036  0.00  0.00    +0.040 C 
ATOM     13  C   UNL     1      -4.249   0.751   1.005  0.00  0.00    -0.030 C 
ATOM     14  C   UNL     1      -3.875   0.366   2.183  0.00  0.00    -0.030 C 
ATOM     15  C   UNL     1      -2.458   0.415   2.673  0.00  0.00    +0.042 C 
ATOM     16  C   UNL     1      -1.627   1.347   1.789  0.00  0.00    +0.118 C 
BRANCH  16  17
ATOM     17  C   UNL     1      -0.164   1.192   2.116  0.00  0.00    +0.360 C 
ATOM     18  O   UNL     1       0.609   0.817   1.266  0.00  0.00    -0.246 OA
ATOM     19  O   UNL     1       0.281   1.470   3.352  0.00  0.00    -0.246 OA
ENDBRANCH  16  17
ENDBRANCH   8  11
ENDBRANCH   6   7
BRANCH   3  20
ATOM     20  S   UNL     1       0.299  -6.718  -1.488  0.00  0.00    +0.072 S 
ATOM     21  O   UNL     1      -0.705  -7.410  -0.757  0.00  0.00    -0.150 OA
ATOM     22  O   UNL     1       0.440  -6.846  -2.897  0.00  0.00    -0.150 OA
BRANCH  20  23
ATOM     23  N   UNL     1       1.752  -7.155  -0.826  0.00  0.00    -0.216 N 
ATOM     24  H   UNL     1       2.470  -7.473  -1.396  0.00  0.00    +0.174 HD
BRANCH  23  25
ATOM     25  C   UNL     1       1.946  -7.065   0.555  0.00  0.00    +0.048 A 
ATOM     26  C   UNL     1       2.740  -6.055   1.083  0.00  0.00    +0.026 A 
ATOM     27  C   UNL     1       2.925  -5.965   2.449  0.00  0.00    +0.022 A 
ATOM     28  C   UNL     1       2.328  -6.887   3.291  0.00  0.00    +0.041 A 
ATOM     29  C   UNL     1       1.541  -7.898   2.768  0.00  0.00    +0.022 A 
ATOM     30  C   UNL     1       1.348  -7.989   1.403  0.00  0.00    +0.026 A 
ATOM     31 CL   UNL     1       2.568  -6.776   5.006  0.00  0.00    -0.084 Cl
ENDBRANCH  23  25
ENDBRANCH  20  23
ENDBRANCH   3  20
TORSDOF 6
