REMARK  Name = ZINC12385077
REMARK  5 active torsions:
REMARK  status: ('A' for Active; 'I' for Inactive)
REMARK    1  A    between atoms: C_1  and  C_2
REMARK    2  A    between atoms: C_7  and  C_17
REMARK    3  A    between atoms: C_31  and  C_33
REMARK    4  A    between atoms: C_33  and  O_35
REMARK    5  A    between atoms: O_35  and  C_36
REMARK                            x       y       z     vdW  Elec       q    Type
REMARK                         _______ _______ _______ _____ _____    ______ ____
ROOT
ATOM      1  C   UNL     1      -1.131  -1.143  -0.115  0.00  0.00    +0.009 C 
ATOM      2  C   UNL     1       0.225  -0.436  -0.077  0.00  0.00    +0.013 C 
ATOM      3  C   UNL     1       0.021   1.077  -0.107  0.00  0.00    +0.055 C 
ATOM      4  C   UNL     1       1.367   1.782  -0.085  0.00  0.00    +0.017 C 
ATOM      5  C   UNL     1       2.438   1.221  -0.669  0.00  0.00    +0.037 C 
ATOM      6  C   UNL     1       3.822   1.820  -0.746  0.00  0.00    +0.143 C 
ATOM      7  N   UNL     1       4.021   2.978   0.100  0.00  0.00    -0.331 N 
ATOM      8  C   UNL     1       3.315   4.160  -0.119  0.00  0.00    +0.049 A 
ATOM      9  C   UNL     1       3.957   5.327  -0.501  0.00  0.00    +0.025 A 
ATOM     10  C   UNL     1       3.209   6.464  -0.751  0.00  0.00    +0.002 A 
ATOM     11  C   UNL     1       1.832   6.438  -0.625  0.00  0.00    +0.002 A 
ATOM     12  C   UNL     1       1.189   5.278  -0.226  0.00  0.00    +0.025 A 
ATOM     13  C   UNL     1       1.938   4.146   0.044  0.00  0.00    +0.052 A 
ATOM     14  N   UNL     1       1.368   2.983   0.550  0.00  0.00    -0.316 N 
ATOM     15  C   UNL     1       2.329  -0.044  -1.294  0.00  0.00    +0.177 C 
ATOM     16  O   UNL     1       3.309  -0.517  -1.835  0.00  0.00    -0.291 OA
ATOM     17  C   UNL     1       1.046  -0.821  -1.313  0.00  0.00    +0.171 C 
ATOM     18  H   UNL     1       4.657   2.931   0.831  0.00  0.00    +0.147 HD
ATOM     19  H   UNL     1       0.940   3.033   1.419  0.00  0.00    +0.152 HD
ENDROOT
BRANCH   6  20
ATOM     20  C   UNL     1       4.092   2.220  -2.174  0.00  0.00    +0.059 A 
ATOM     21  C   UNL     1       3.074   2.346  -3.045  0.00  0.00    +0.205 A 
ATOM     22  O   UNL     1       3.253   2.697  -4.323  0.00  0.00    -0.462 OA
ATOM     23  C   UNL     1       4.473   2.952  -4.839  0.00  0.00    +0.138 A 
ATOM     24  C   UNL     1       4.624   3.314  -6.172  0.00  0.00    +0.048 A 
ATOM     25  C   UNL     1       5.881   3.569  -6.677  0.00  0.00    +0.023 A 
ATOM     26  C   UNL     1       7.004   3.469  -5.867  0.00  0.00    +0.042 A 
ATOM     27  C   UNL     1       6.875   3.112  -4.541  0.00  0.00    +0.035 A 
ATOM     28  C   UNL     1       5.609   2.851  -4.020  0.00  0.00    +0.066 A 
ATOM     29  C   UNL     1       5.421   2.470  -2.607  0.00  0.00    +0.198 A 
ATOM     30  O   UNL     1       6.367   2.370  -1.844  0.00  0.00    -0.287 OA
ATOM     31 CL   UNL     1       8.577   3.795  -6.525  0.00  0.00    -0.084 Cl
ENDBRANCH   6  20
BRANCH  17  32
ATOM     32  C   UNL     1       1.349  -2.297  -1.281  0.00  0.00    +0.318 C 
ATOM     33  O   UNL     1       0.949  -2.975  -0.364  0.00  0.00    -0.250 OA
BRANCH  32  34
ATOM     34  O   UNL     1       2.061  -2.858  -2.270  0.00  0.00    -0.467 OA
ATOM     35  C   UNL     1       2.314  -4.284  -2.174  0.00  0.00    +0.280 C 
ENDBRANCH  32  34
ENDBRANCH  17  32
TORSDOF 3
