REMARK  Name = ZINC40229745
REMARK  6 active torsions:
REMARK  status: ('A' for Active; 'I' for Inactive)
REMARK    1  A    between atoms: C_1  and  O_2
REMARK    2  A    between atoms: O_2  and  C_3
REMARK    3  A    between atoms: C_6  and  S_10
REMARK    4  A    between atoms: C_8  and  N_9
REMARK    5  A    between atoms: S_10  and  N_13
REMARK    6  A    between atoms: N_13  and  C_14
REMARK                            x       y       z     vdW  Elec       q    Type
REMARK                         _______ _______ _______ _____ _____    ______ ____
ROOT
ATOM      1  S   UNL     1      -5.273  -2.836   0.065  0.00  0.00    +0.072 S 
ATOM      2  O   UNL     1      -5.125  -4.160   0.558  0.00  0.00    -0.150 OA
ATOM      3  O   UNL     1      -6.193  -1.911   0.629  0.00  0.00    -0.150 OA
ENDROOT
BRANCH   1   7
ATOM      4  C   UNL     1      -1.185  -0.893   0.298  0.00  0.00    +0.141 A 
ATOM      5  C   UNL     1      -2.328  -0.111   0.296  0.00  0.00    +0.049 A 
ATOM      6  C   UNL     1      -3.574  -0.707   0.224  0.00  0.00    +0.032 A 
ATOM      7  C   UNL     1      -3.683  -2.083   0.155  0.00  0.00    +0.110 A 
ATOM      8  C   UNL     1      -2.547  -2.871   0.156  0.00  0.00    +0.055 A 
ATOM      9  C   UNL     1      -1.293  -2.280   0.222  0.00  0.00    +0.069 A 
BRANCH   9  10
ATOM     10  N   UNL     1      -0.141  -3.074   0.218  0.00  0.00    -0.355 N 
ATOM     11  H   UNL     1       0.734  -2.660   0.268  0.00  0.00    +0.142 HD
ATOM     12  H   UNL     1      -0.218  -4.040   0.165  0.00  0.00    +0.142 HD
ENDBRANCH   9  10
BRANCH   4  14
ATOM     13  C   UNL     1       0.076   1.119   0.444  0.00  0.00    +0.277 C 
ATOM     14  O   UNL     1       0.041  -0.308   0.369  0.00  0.00    -0.493 OA
ENDBRANCH   4  14
ENDBRANCH   1   7
BRANCH   1  15
ATOM     15  N   UNL     1      -5.662  -2.969  -1.540  0.00  0.00    -0.213 N 
ATOM     16  H   UNL     1      -6.450  -2.522  -1.887  0.00  0.00    +0.174 HD
BRANCH  15  17
ATOM     17  C   UNL     1      -4.854  -3.726  -2.394  0.00  0.00    +0.086 A 
ATOM     18  C   UNL     1      -4.243  -4.884  -1.931  0.00  0.00    +0.027 A 
ATOM     19  C   UNL     1      -3.446  -5.630  -2.776  0.00  0.00    +0.005 A 
ATOM     20  C   UNL     1      -3.253  -5.227  -4.084  0.00  0.00    +0.041 A 
ATOM     21  C   UNL     1      -3.858  -4.072  -4.552  0.00  0.00    +0.160 A 
ATOM     22  C   UNL     1      -4.664  -3.323  -3.711  0.00  0.00    +0.181 A 
ATOM     23  F   UNL     1      -5.260  -2.200  -4.168  0.00  0.00    -0.200 F 
ATOM     24  F   UNL     1      -3.668  -3.681  -5.831  0.00  0.00    -0.202 F 
ENDBRANCH  15  17
ENDBRANCH   1  15
TORSDOF 5
