REMARK  Name = ZINC17111188
REMARK  2 active torsions:
REMARK  status: ('A' for Active; 'I' for Inactive)
REMARK    1  A    between atoms: C_11  and  O_16
REMARK    2  A    between atoms: C_14  and  O_15
REMARK                            x       y       z     vdW  Elec       q    Type
REMARK                         _______ _______ _______ _____ _____    ______ ____
ROOT
ATOM      1  C   UNL     1      -0.018   1.474   0.010  0.00  0.00    +0.050 C 
ATOM      2  C   UNL     1       1.139   2.168   0.003  0.00  0.00    +0.050 C 
ATOM      3  C   UNL     1       2.433   1.454  -0.027  0.00  0.00    +0.168 C 
ATOM      4  O   UNL     1       3.467   2.016   0.263  0.00  0.00    -0.292 OA
ATOM      5  C   UNL     1       2.419   0.001  -0.429  0.00  0.00    +0.142 C 
ATOM      6  C   UNL     1       1.297  -0.686   0.368  0.00  0.00    +0.142 C 
ATOM      7  C   UNL     1       0.002  -0.004   0.002  0.00  0.00    +0.168 C 
ATOM      8  O   UNL     1      -0.985  -0.644  -0.289  0.00  0.00    -0.292 OA
ATOM      9  C   UNL     1       1.290  -2.147   0.017  0.00  0.00    +0.106 C 
ATOM     10  C   UNL     1       2.469  -2.768  -0.146  0.00  0.00    +0.045 C 
ATOM     11  C   UNL     1       3.721  -2.015   0.034  0.00  0.00    +0.045 C 
ATOM     12  C   UNL     1       3.720  -0.683  -0.118  0.00  0.00    +0.106 C 
ENDROOT
BRANCH  12  13
ATOM     13  O   UNL     1       4.865   0.031   0.025  0.00  0.00    -0.510 OA
ATOM     14  H   UNL     1       5.643  -0.508   0.224  0.00  0.00    +0.292 HD
ENDBRANCH  12  13
BRANCH   9  15
ATOM     15  O   UNL     1       0.122  -2.821  -0.132  0.00  0.00    -0.510 OA
ATOM     16  H   UNL     1       0.233  -3.755  -0.357  0.00  0.00    +0.292 HD
ENDBRANCH   9  15
TORSDOF 2
