REMARK  Name = ZINC05556925
REMARK  4 active torsions:
REMARK  status: ('A' for Active; 'I' for Inactive)
REMARK    1  A    between atoms: C_1  and  C_2
REMARK    2  A    between atoms: C_2  and  N_9
REMARK    3  A    between atoms: N_12  and  C_13
REMARK    4  A    between atoms: C_13  and  C_14
REMARK                            x       y       z     vdW  Elec       q    Type
REMARK                         _______ _______ _______ _____ _____    ______ ____
ROOT
ATOM      1  N   UNL     1       0.731  -0.456  -1.186  0.00  0.00    -0.293 N 
ATOM      2  C   UNL     1       0.300  -0.105  -2.414  0.00  0.00    +0.300 C 
ATOM      3  O   UNL     1      -0.693   0.586  -2.536  0.00  0.00    -0.253 OA
ATOM      4  N   UNL     1       0.971  -0.521  -3.507  0.00  0.00    -0.292 N 
ATOM      5  H   UNL     1       1.523  -1.007  -1.089  0.00  0.00    +0.151 HD
ATOM      6  H   UNL     1       1.763  -1.072  -3.410  0.00  0.00    +0.151 HD
ENDROOT
BRANCH   1   8
ATOM      7  C   UNL     1      -0.019   1.526   0.010  0.00  0.00    +0.033 C 
ATOM      8  C   UNL     1       0.002  -0.004   0.002  0.00  0.00    +0.054 C 
ATOM      9  C   UNL     1      -1.436  -0.513  -0.087  0.00  0.00    +0.049 C 
ATOM     10  C   UNL     1      -1.556  -1.909   0.586  0.00  0.00    +0.168 C 
ATOM     11  S   UNL     1      -0.454  -1.644   2.043  0.00  0.00    -0.029 S 
ATOM     12  O   UNL     1       0.203  -2.864   2.360  0.00  0.00    -0.174 OA
ATOM     13  O   UNL     1      -1.173  -0.950   3.053  0.00  0.00    -0.174 OA
ATOM     14  C   UNL     1       0.751  -0.495   1.257  0.00  0.00    +0.191 C 
ENDBRANCH   1   8
BRANCH   4  15
ATOM     15  C   UNL     1       0.503  -0.140  -4.842  0.00  0.00    +0.180 C 
BRANCH  15  16
ATOM     16  C   UNL     1       1.420  -0.728  -5.883  0.00  0.00    +0.122 A 
ATOM     17  C   UNL     1       1.276  -1.931  -6.469  0.00  0.00    +0.046 A 
ATOM     18  C   UNL     1       2.353  -2.076  -7.374  0.00  0.00    +0.041 A 
ATOM     19  C   UNL     1       3.089  -0.954  -7.287  0.00  0.00    +0.195 A 
ATOM     20  O   UNL     1       2.517  -0.139  -6.387  0.00  0.00    -0.466 OA
ENDBRANCH  15  16
ENDBRANCH   4  15
TORSDOF 3
