REMARK  Name = ZINC48950314
REMARK  4 active torsions:
REMARK  status: ('A' for Active; 'I' for Inactive)
REMARK    1  A    between atoms: C_1  and  N_2
REMARK    2  A    between atoms: N_5  and  N_6
REMARK    3  A    between atoms: C_7  and  C_9
REMARK    4  A    between atoms: N_13  and  C_14
REMARK                            x       y       z     vdW  Elec       q    Type
REMARK                         _______ _______ _______ _____ _____    ______ ____
ROOT
ATOM      1  N   UNL     1       0.374  -2.718   0.237  0.00  0.00    -0.228 N 
ATOM      2  C   UNL     1       0.378  -4.066   0.217  0.00  0.00    +0.277 C 
ATOM      3  O   UNL     1       0.969  -4.659  -0.667  0.00  0.00    -0.267 OA
ATOM      4  H   UNL     1      -0.153  -2.245   0.899  0.00  0.00    +0.173 HD
ENDROOT
BRANCH   2   5
ATOM      5  C   UNL     1      -0.328  -4.816   1.259  0.00  0.00    +0.108 A 
ATOM      6  C   UNL     1      -1.004  -4.279   2.335  0.00  0.00    +0.054 A 
ATOM      7  C   UNL     1      -1.524  -5.348   3.070  0.00  0.00    +0.078 A 
ATOM      8  C   UNL     1      -1.164  -6.498   2.444  0.00  0.00    +0.128 A 
ATOM      9  N   UNL     1      -0.442  -6.187   1.339  0.00  0.00    -0.329 N 
ATOM     10  C   UNL     1       0.125  -7.149   0.390  0.00  0.00    +0.150 C 
ATOM     11 CL   UNL     1      -1.569  -8.102   2.969  0.00  0.00    -0.062 Cl
ATOM     12 CL   UNL     1      -2.462  -5.227   4.526  0.00  0.00    -0.080 Cl
ENDBRANCH   2   5
BRANCH   1  17
ATOM     13  C   UNL     1       0.389   1.469   0.263  0.00  0.00    +0.129 C 
ATOM     14  N   UNL     1       0.393   0.004   0.241  0.00  0.00    -0.301 N 
ATOM     15  C   UNL     1       1.125  -0.654  -0.680  0.00  0.00    +0.316 C 
ATOM     16  O   UNL     1       1.782  -0.031  -1.492  0.00  0.00    -0.251 OA
ATOM     17  N   UNL     1       1.130  -2.001  -0.700  0.00  0.00    -0.218 N 
ATOM     18  H   UNL     1      -0.130  -0.492   0.890  0.00  0.00    +0.150 HD
ATOM     19  H   UNL     1       1.657  -2.475  -1.362  0.00  0.00    +0.174 HD
ENDBRANCH   1  17
TORSDOF 2
