REMARK  Name = ZINC04124401
REMARK  7 active torsions:
REMARK  status: ('A' for Active; 'I' for Inactive)
REMARK    1  A    between atoms: C_1  and  C_2
REMARK    2  A    between atoms: C_2  and  C_3
REMARK    3  A    between atoms: C_2  and  C_4
REMARK    4  A    between atoms: C_2  and  C_5
REMARK    5  A    between atoms: N_7  and  C_8
REMARK    6  A    between atoms: C_8  and  C_27
REMARK    7  A    between atoms: N_14  and  C_19
REMARK                            x       y       z     vdW  Elec       q    Type
REMARK                         _______ _______ _______ _____ _____    ______ ____
ROOT
ATOM      1  C   UNL     1       1.413  -2.759  -4.146  0.00  0.00    +0.240 C 
ATOM      2  C   UNL     1       1.610  -4.002  -3.310  0.00  0.00    +0.097 A 
ATOM      3  C   UNL     1       0.732  -4.822  -2.590  0.00  0.00    +0.262 A 
ATOM      4  N   UNL     1       1.221  -5.889  -1.925  0.00  0.00    -0.274 N 
ATOM      5  C   UNL     1       2.538  -6.161  -1.956  0.00  0.00    +0.335 A 
ATOM      6  O   UNL     1       2.961  -7.127  -1.351  0.00  0.00    -0.246 OA
ATOM      7  N   UNL     1       3.396  -5.386  -2.642  0.00  0.00    -0.249 N 
ATOM      8  C   UNL     1       2.944  -4.283  -3.338  0.00  0.00    +0.125 A 
ATOM      9  N   UNL     1       3.625  -3.361  -4.096  0.00  0.00    -0.269 N 
ATOM     10  C   UNL     1       2.814  -2.423  -4.616  0.00  0.00    +0.256 C 
ATOM     11  O   UNL     1       3.140  -1.492  -5.322  0.00  0.00    -0.272 OA
ATOM     12  O   UNL     1      -0.461  -4.573  -2.564  0.00  0.00    -0.267 OA
ATOM     13  H   UNL     1       4.584  -3.385  -4.240  0.00  0.00    +0.156 HD
ATOM     14  H   UNL     1       0.620  -6.463  -1.423  0.00  0.00    +0.173 HD
ENDROOT
BRANCH   7  15
ATOM     15  C   UNL     1       4.762  -5.702  -2.650  0.00  0.00    +0.053 A 
ATOM     16  C   UNL     1       5.277  -6.538  -3.632  0.00  0.00    +0.029 A 
ATOM     17  C   UNL     1       6.622  -6.848  -3.638  0.00  0.00    +0.040 A 
ATOM     18  C   UNL     1       7.459  -6.324  -2.667  0.00  0.00    +0.124 A 
ATOM     19  C   UNL     1       6.948  -5.490  -1.687  0.00  0.00    +0.040 A 
ATOM     20  C   UNL     1       5.604  -5.173  -1.680  0.00  0.00    +0.029 A 
ATOM     21  F   UNL     1       8.775  -6.628  -2.675  0.00  0.00    -0.205 F 
ENDBRANCH   7  15
BRANCH   1  24
ATOM     22  C   UNL     1       0.701  -0.446  -3.868  0.00  0.00    +0.220 C 
ATOM     23  O   UNL     1       1.004  -0.244  -5.024  0.00  0.00    -0.275 OA
ATOM     24  N   UNL     1       0.867  -1.671  -3.331  0.00  0.00    -0.290 N 
ATOM     25  H   UNL     1       0.625  -1.833  -2.406  0.00  0.00    +0.150 HD
BRANCH  22  27
ATOM     26  C   UNL     1       0.055   1.948  -3.872  0.00  0.00    +0.020 C 
ATOM     27  C   UNL     1       0.140   0.674  -3.029  0.00  0.00    +0.039 C 
ATOM     28  C   UNL     1       1.053   0.917  -1.826  0.00  0.00    +0.020 C 
ATOM     29  C   UNL     1      -1.259   0.292  -2.539  0.00  0.00    +0.020 C 
ENDBRANCH  22  27
ENDBRANCH   1  24
BRANCH   1  30
ATOM     30  C   UNL     1       0.500  -3.048  -5.339  0.00  0.00    +0.424 C 
ATOM     31  F   UNL     1       0.377  -1.895  -6.122  0.00  0.00    -0.167 F 
ATOM     32  F   UNL     1       1.050  -4.078  -6.109  0.00  0.00    -0.167 F 
ATOM     33  F   UNL     1      -0.763  -3.434  -4.877  0.00  0.00    -0.167 F 
ENDBRANCH   1  30
TORSDOF 4
