REMARK  Name = ZINC38152065
REMARK  7 active torsions:
REMARK  status: ('A' for Active; 'I' for Inactive)
REMARK    1  A    between atoms: C_1  and  C_2
REMARK    2  A    between atoms: C_5  and  O_35
REMARK    3  A    between atoms: C_18  and  C_34
REMARK    4  A    between atoms: C_23  and  C_25
REMARK    5  A    between atoms: C_25  and  C_26
REMARK    6  A    between atoms: C_25  and  C_27
REMARK    7  A    between atoms: C_25  and  O_33
REMARK                            x       y       z     vdW  Elec       q    Type
REMARK                         _______ _______ _______ _____ _____    ______ ____
ROOT
ATOM      1  C   UNL     1      -0.367  -0.090   0.851  0.00  0.00    +0.012 C 
ATOM      2  C   UNL     1      -0.227  -1.586   0.547  0.00  0.00    -0.026 C 
ATOM      3  C   UNL     1      -1.600  -2.186   0.247  0.00  0.00    +0.010 C 
ATOM      4  C   UNL     1      -2.509  -2.059   1.469  0.00  0.00    +0.032 C 
ATOM      5  C   UNL     1      -1.879  -2.742   2.683  0.00  0.00    +0.115 C 
ATOM      6  C   UNL     1      -0.502  -2.145   2.975  0.00  0.00    +0.035 C 
ATOM      7  C   UNL     1       0.383  -2.320   1.740  0.00  0.00    -0.002 C 
ATOM      8  C   UNL     1       1.811  -1.859   2.013  0.00  0.00    +0.004 C 
ATOM      9  C   UNL     1       2.693  -2.158   0.790  0.00  0.00    +0.004 C 
ATOM     10  C   UNL     1       1.808  -2.739  -0.303  0.00  0.00    -0.004 C 
ATOM     11  C   UNL     1       0.706  -1.737  -0.654  0.00  0.00    -0.001 C 
ATOM     12  C   UNL     1      -0.007  -2.174  -1.926  0.00  0.00    +0.005 C 
ATOM     13  C   UNL     1       0.937  -2.054  -3.134  0.00  0.00    +0.007 C 
ATOM     14  C   UNL     1       2.376  -2.207  -2.716  0.00  0.00    -0.023 C 
ATOM     15  C   UNL     1       2.522  -3.190  -1.538  0.00  0.00    -0.001 C 
ATOM     16  C   UNL     1       4.046  -3.352  -1.444  0.00  0.00    +0.005 C 
ATOM     17  C   UNL     1       4.479  -3.418  -2.933  0.00  0.00    +0.007 C 
ATOM     18  C   UNL     1       3.280  -2.895  -3.765  0.00  0.00    +0.033 C 
ATOM     19  C   UNL     1       3.013  -0.847  -2.421  0.00  0.00    +0.012 C 
ENDROOT
BRANCH  18  20
ATOM     20  C   UNL     1       3.750  -1.872  -4.794  0.00  0.00    +0.108 C 
ATOM     21  C   UNL     1       4.463  -2.593  -5.940  0.00  0.00    +0.048 C 
BRANCH  20  22
ATOM     22  C   UNL     1       2.561  -1.121  -5.335  0.00  0.00    +0.073 A 
ATOM     23  C   UNL     1       2.495   0.252  -5.185  0.00  0.00    +0.026 A 
ATOM     24  C   UNL     1       1.397   0.934  -5.686  0.00  0.00    +0.003 A 
ATOM     25  C   UNL     1       0.402   0.206  -6.322  0.00  0.00    +0.020 A 
ATOM     26  C   UNL     1       0.537  -1.164  -6.435  0.00  0.00    +0.111 A 
ATOM     27  N   UNL     1       1.599  -1.779  -5.950  0.00  0.00    -0.257 NA
ENDBRANCH  20  22
BRANCH  20  28
ATOM     28  O   UNL     1       4.653  -0.954  -4.174  0.00  0.00    -0.382 OA
ATOM     29  H   UNL     1       4.221  -0.180  -3.785  0.00  0.00    +0.211 HD
ENDBRANCH  20  28
ENDBRANCH  18  20
BRANCH   5  30
ATOM     30  O   UNL     1      -2.722  -2.561   3.821  0.00  0.00    -0.392 OA
ATOM     31  H   UNL     1      -3.610  -2.929   3.716  0.00  0.00    +0.210 HD
ENDBRANCH   5  30
TORSDOF 4
