REMARK  Name = ZINC42740495
REMARK  6 active torsions:
REMARK  status: ('A' for Active; 'I' for Inactive)
REMARK    1  A    between atoms: C_1  and  C_2
REMARK    2  A    between atoms: C_15  and  N_22
REMARK    3  A    between atoms: C_16  and  O_18
REMARK    4  A    between atoms: O_18  and  C_19
REMARK    5  A    between atoms: C_19  and  C_20
REMARK    6  A    between atoms: C_19  and  C_21
REMARK                            x       y       z     vdW  Elec       q    Type
REMARK                         _______ _______ _______ _____ _____    ______ ____
ROOT
ATOM      1  C   UNL     1      -0.188   1.287  -0.233  0.00  0.00    +0.033 C 
ATOM      2  C   UNL     1       0.045  -0.219  -0.090  0.00  0.00    +0.103 C 
ATOM      3  C   UNL     1       0.942  -0.714  -1.223  0.00  0.00    -0.017 A 
ATOM      4  C   UNL     1       0.505  -0.850  -2.540  0.00  0.00    +0.013 A 
ATOM      5  C   UNL     1       1.357  -1.290  -3.494  0.00  0.00    +0.046 A 
ATOM      6  S   UNL     1       2.857  -1.543  -2.558  0.00  0.00    -0.101 S 
ATOM      7  C   UNL     1       2.237  -1.047  -0.972  0.00  0.00    -0.004 A 
ATOM      8  C   UNL     1       2.959  -1.006   0.335  0.00  0.00    +0.061 C 
ATOM      9  C   UNL     1       2.150  -0.145   1.318  0.00  0.00    +0.112 C 
ATOM     10  N   UNL     1       0.728  -0.498   1.180  0.00  0.00    -0.308 N 
ATOM     11  C   UNL     1       0.040  -1.089   2.237  0.00  0.00    +0.126 A 
ATOM     12  C   UNL     1      -1.342  -1.216   2.171  0.00  0.00    +0.046 A 
ATOM     13  C   UNL     1      -2.020  -1.806   3.226  0.00  0.00    +0.031 A 
ATOM     14  C   UNL     1      -1.286  -2.252   4.319  0.00  0.00    +0.087 A 
ATOM     15  C   UNL     1       0.098  -2.092   4.319  0.00  0.00    +0.238 A 
ATOM     16  N   UNL     1       0.711  -1.529   3.291  0.00  0.00    -0.196 NA
ENDROOT
BRANCH  14  17
ATOM     17  N   UNL     1      -1.931  -2.854   5.410  0.00  0.00    -0.354 N 
ATOM     18  H   UNL     1      -2.895  -2.962   5.405  0.00  0.00    +0.142 HD
ATOM     19  H   UNL     1      -1.413  -3.163   6.170  0.00  0.00    +0.142 HD
ENDBRANCH  14  17
BRANCH  15  20
ATOM     20  O   UNL     1       0.825  -2.524   5.381  0.00  0.00    -0.472 OA
BRANCH  20  21
ATOM     21  C   UNL     1       2.240  -2.332   5.320  0.00  0.00    +0.169 C 
ATOM     22  C   UNL     1       2.596  -0.972   5.924  0.00  0.00    +0.051 C 
ATOM     23  C   UNL     1       2.939  -3.440   6.110  0.00  0.00    +0.051 C 
ENDBRANCH  20  21
ENDBRANCH  15  20
TORSDOF 3
