REMARK  Name = ZINC63747310
REMARK  8 active torsions:
REMARK  status: ('A' for Active; 'I' for Inactive)
REMARK    1  A    between atoms: C_1  and  C_2
REMARK    2  A    between atoms: C_2  and  C_3
REMARK    3  A    between atoms: C_2  and  C_19
REMARK    4  A    between atoms: C_3  and  N_4
REMARK    5  A    between atoms: N_4  and  C_5
REMARK    6  A    between atoms: C_6  and  C_8
REMARK    7  A    between atoms: C_10  and  S_15
REMARK    8  A    between atoms: S_15  and  N_18
REMARK                            x       y       z     vdW  Elec       q    Type
REMARK                         _______ _______ _______ _____ _____    ______ ____
ROOT
ATOM      1  C   UNL     1      -1.358  -0.816  -4.410  0.00  0.00    +0.057 A 
ATOM      2  C   UNL     1      -0.474  -0.745  -5.489  0.00  0.00    +0.043 A 
ATOM      3  C   UNL     1      -0.961  -0.532  -6.761  0.00  0.00    +0.106 A 
ATOM      4  C   UNL     1      -2.321  -0.387  -6.971  0.00  0.00    +0.030 A 
ATOM      5  C   UNL     1      -3.203  -0.455  -5.908  0.00  0.00    +0.022 A 
ATOM      6  C   UNL     1      -2.730  -0.674  -4.628  0.00  0.00    +0.053 A 
ATOM      7 CL   UNL     1      -3.838  -0.767  -3.295  0.00  0.00    -0.083 Cl
ENDROOT
BRANCH   1  10
ATOM      8  N   UNL     1       0.235  -0.365  -2.606  0.00  0.00    -0.299 N 
ATOM      9  C   UNL     1       0.828   0.683  -3.441  0.00  0.00    +0.132 C 
ATOM     10  C   UNL     1      -0.844  -1.045  -3.043  0.00  0.00    +0.248 C 
ATOM     11  O   UNL     1      -1.394  -1.846  -2.313  0.00  0.00    -0.270 OA
BRANCH   8  12
ATOM     12  C   UNL     1       0.815  -0.675  -1.297  0.00  0.00    +0.125 C 
BRANCH  12  14
ATOM     13  C   UNL     1       0.492   1.665  -0.483  0.00  0.00    +0.025 C 
ATOM     14  C   UNL     1       0.152   0.195  -0.227  0.00  0.00    +0.106 C 
BRANCH  14  15
ATOM     15  C   UNL     1       0.648  -0.199   1.102  0.00  0.00    +0.067 C 
ATOM     16  N   UNL     1       1.030  -0.503   2.127  0.00  0.00    -0.196 NA
ENDBRANCH  14  15
ENDBRANCH  12  14
ENDBRANCH   8  12
ENDBRANCH   1  10
BRANCH   3  17
ATOM     17  S   UNL     1       0.153  -0.443  -8.124  0.00  0.00    +0.056 S 
ATOM     18  O   UNL     1      -0.503   0.308  -9.136  0.00  0.00    -0.153 OA
ATOM     19  O   UNL     1       1.415  -0.065  -7.592  0.00  0.00    -0.153 OA
BRANCH  17  20
ATOM     20  N   UNL     1       0.329  -1.980  -8.713  0.00  0.00    -0.204 NA
ATOM     21  H   UNL     1      -0.148  -2.716  -8.299  0.00  0.00    +0.144 HD
ATOM     22  H   UNL     1       0.909  -2.145  -9.474  0.00  0.00    +0.144 HD
ENDBRANCH  17  20
ENDBRANCH   3  17
TORSDOF 6
