REMARK  Name = ZINC13078211
REMARK  5 active torsions:
REMARK  status: ('A' for Active; 'I' for Inactive)
REMARK    1  A    between atoms: C_3  and  C_24
REMARK    2  A    between atoms: C_5  and  N_7
REMARK    3  A    between atoms: C_11  and  C_12
REMARK    4  A    between atoms: C_14  and  O_20
REMARK    5  A    between atoms: C_15  and  O_19
REMARK                            x       y       z     vdW  Elec       q    Type
REMARK                         _______ _______ _______ _____ _____    ______ ____
ROOT
ATOM      1  N   UNL     1       4.686   4.657   0.216  0.00  0.00    -0.224 N 
ATOM      2  C   UNL     1       3.821   4.023  -0.558  0.00  0.00    +0.263 C 
ATOM      3  O   UNL     1       4.158   3.089  -1.262  0.00  0.00    -0.269 OA
ATOM      4  C   UNL     1       2.426   4.505  -0.525  0.00  0.00    +0.078 C 
ATOM      5  C   UNL     1       1.339   4.056  -1.202  0.00  0.00    +0.028 C 
ATOM      6  S   UNL     1       2.564   5.849   0.646  0.00  0.00    -0.061 S 
ATOM      7  C   UNL     1       4.309   5.692   0.994  0.00  0.00    +0.125 C 
ATOM      8  S   UNL     1       5.270   6.632   2.053  0.00  0.00    -0.027 S 
ENDROOT
BRANCH   5   9
ATOM      9  C   UNL     1       1.425   2.821  -1.992  0.00  0.00    -0.019 A 
ATOM     10  C   UNL     1       2.190   1.743  -1.530  0.00  0.00    +0.057 A 
ATOM     11  C   UNL     1       2.267   0.585  -2.277  0.00  0.00    +0.160 A 
ATOM     12  C   UNL     1       1.583   0.488  -3.488  0.00  0.00    +0.177 A 
ATOM     13  C   UNL     1       0.824   1.556  -3.949  0.00  0.00    +0.087 A 
ATOM     14  C   UNL     1       0.741   2.717  -3.209  0.00  0.00    +0.032 A 
ATOM     15 CL   UNL     1      -0.024   1.429  -5.458  0.00  0.00    -0.080 Cl
BRANCH  12  16
ATOM     16  O   UNL     1       1.661  -0.653  -4.221  0.00  0.00    -0.502 OA
ATOM     17  H   UNL     1       0.977  -1.304  -4.009  0.00  0.00    +0.292 HD
ENDBRANCH  12  16
BRANCH  11  18
ATOM     18  O   UNL     1       3.010  -0.464  -1.831  0.00  0.00    -0.503 OA
ATOM     19  H   UNL     1       2.519  -1.087  -1.278  0.00  0.00    +0.292 HD
ENDBRANCH  11  18
ENDBRANCH   5   9
BRANCH   1  24
ATOM     20  C   UNL     1       7.775   2.894   1.172  0.00  0.00    +0.003 A 
ATOM     21  C   UNL     1       8.675   3.416   0.266  0.00  0.00    +0.015 A 
ATOM     22  C   UNL     1       8.254   4.362  -0.671  0.00  0.00    +0.065 A 
ATOM     23  C   UNL     1       6.921   4.776  -0.686  0.00  0.00    +0.039 A 
ATOM     24  C   UNL     1       6.026   4.245   0.227  0.00  0.00    +0.043 A 
ATOM     25  C   UNL     1       6.456   3.308   1.159  0.00  0.00    +0.024 A 
BRANCH  22  26
ATOM     26  C   UNL     1       9.216   4.923  -1.641  0.00  0.00    +0.387 C 
ATOM     27  O   UNL     1       8.847   5.747  -2.455  0.00  0.00    -0.241 OA
ATOM     28  O   UNL     1      10.502   4.523  -1.624  0.00  0.00    -0.241 OA
ENDBRANCH  22  26
ENDBRANCH   1  24
TORSDOF 5
