REMARK  Name = ZINC43542013
REMARK  4 active torsions:
REMARK  status: ('A' for Active; 'I' for Inactive)
REMARK    1  A    between atoms: C_1  and  C_2
REMARK    2  A    between atoms: C_2  and  C_3
REMARK    3  A    between atoms: C_3  and  C_5
REMARK    4  A    between atoms: C_3  and  N_7
REMARK                            x       y       z     vdW  Elec       q    Type
REMARK                         _______ _______ _______ _____ _____    ______ ____
ROOT
ATOM      1  N   UNL     1       0.634  -1.958  -1.325  0.00  0.00    -0.252 N 
ATOM      2  C   UNL     1       1.466  -2.830  -0.717  0.00  0.00    +0.127 A 
ATOM      3  C   UNL     1       1.054  -4.081  -1.026  0.00  0.00    +0.077 A 
ATOM      4  C   UNL     1      -0.073  -3.971  -1.856  0.00  0.00    +0.152 A 
ATOM      5  N   UNL     1      -0.327  -2.695  -2.030  0.00  0.00    -0.154 NA
ATOM      6  N   UNL     1      -0.803  -5.035  -2.399  0.00  0.00    -0.341 N 
ATOM      7 BR   UNL     1       1.855  -5.693  -0.444  0.00  0.00    -0.045 Br
ATOM      8  H   UNL     1      -0.540  -5.950  -2.210  0.00  0.00    +0.144 HD
ATOM      9  H   UNL     1      -1.571  -4.859  -2.964  0.00  0.00    +0.144 HD
ENDROOT
BRANCH   1  10
ATOM     10  C   UNL     1       0.718  -0.497  -1.257  0.00  0.00    +0.208 C 
BRANCH  10  12
ATOM     11  C   UNL     1      -0.019   1.526   0.010  0.00  0.00    +0.007 C 
ATOM     12  C   UNL     1       0.002  -0.004   0.002  0.00  0.00    +0.039 C 
ENDBRANCH  10  12
BRANCH  10  13
ATOM     13  C   UNL     1       2.132  -0.089  -1.209  0.00  0.00    +0.089 C 
ATOM     14  N   UNL     1       3.222   0.226  -1.172  0.00  0.00    -0.194 NA
ENDBRANCH  10  13
ENDBRANCH   1  10
TORSDOF 3
