REMARK  Name = ZINC48665071
REMARK  6 active torsions:
REMARK  status: ('A' for Active; 'I' for Inactive)
REMARK    1  A    between atoms: C_1  and  C_2
REMARK    2  A    between atoms: C_6  and  C_7
REMARK    3  A    between atoms: N_9  and  C_10
REMARK    4  A    between atoms: C_10  and  C_12
REMARK    5  A    between atoms: C_10  and  C_13
REMARK    6  A    between atoms: N_15  and  C_16
REMARK                            x       y       z     vdW  Elec       q    Type
REMARK                         _______ _______ _______ _____ _____    ______ ____
ROOT
ATOM      1  C   UNL     1       0.031  -0.395   2.495  0.00  0.00    +0.280 C 
ATOM      2  O   UNL     1       0.017   0.792   2.767  0.00  0.00    -0.267 OA
ATOM      3  N   UNL     1       0.053  -1.312   3.481  0.00  0.00    -0.298 N 
ATOM      4  H   UNL     1       0.064  -2.258   3.264  0.00  0.00    +0.150 HD
ENDROOT
BRANCH   1  10
ATOM      5  C   UNL     1      -0.018   1.503   0.010  0.00  0.00    +0.048 C 
ATOM      6  C   UNL     1       0.002  -0.004   0.002  0.00  0.00    +0.001 A 
ATOM      7  C   UNL     1       0.009  -0.835  -1.128  0.00  0.00    +0.061 A 
ATOM      8  C   UNL     1       0.029  -2.113  -0.683  0.00  0.00    +0.171 A 
ATOM      9  O   UNL     1       0.034  -2.102   0.656  0.00  0.00    -0.443 OA
ATOM     10  C   UNL     1       0.024  -0.825   1.094  0.00  0.00    +0.194 A 
ATOM     11 BR   UNL     1       0.045  -3.658  -1.772  0.00  0.00    -0.008 Br
ENDBRANCH   1  10
BRANCH   3  12
ATOM     12  C   UNL     1       0.060  -0.882   4.882  0.00  0.00    +0.156 C 
ATOM     13  C   UNL     1      -1.376  -0.632   5.346  0.00  0.00    +0.038 C 
BRANCH  12  14
ATOM     14  C   UNL     1       0.683  -1.957   5.734  0.00  0.00    +0.233 C 
ATOM     15  O   UNL     1       1.082  -2.982   5.222  0.00  0.00    -0.274 OA
ATOM     16  N   UNL     1       0.798  -1.780   7.065  0.00  0.00    -0.317 N 
ATOM     17  C   UNL     1       1.404  -2.825   7.894  0.00  0.00    +0.128 C 
ATOM     18  H   UNL     1       0.479  -0.961   7.475  0.00  0.00    +0.148 HD
ENDBRANCH  12  14
ENDBRANCH   3  12
TORSDOF 3
