REMARK  Name = ZINC67272072
REMARK  2 active torsions:
REMARK  status: ('A' for Active; 'I' for Inactive)
REMARK    1  A    between atoms: C_6  and  C_7
REMARK    2  A    between atoms: C_13  and  C_16
REMARK                            x       y       z     vdW  Elec       q    Type
REMARK                         _______ _______ _______ _____ _____    ______ ____
ROOT
ATOM      1  C   UNL     1      -0.009   1.519   0.019  0.00  0.00    +0.015 C 
ATOM      2  C   UNL     1       1.431   2.041   0.007  0.00  0.00    +0.036 C 
ATOM      3  C   UNL     1       2.147   1.536  -1.240  0.00  0.00    +0.112 C 
ATOM      4  C   UNL     1       2.146   0.012  -1.285  0.00  0.00    +0.036 C 
ATOM      5  C   UNL     1       0.704  -0.501  -1.268  0.00  0.00    +0.015 C 
ATOM      6  C   UNL     1       0.005  -0.011   0.001  0.00  0.00    +0.075 C 
ATOM      7  C   UNL     1       1.501   2.101  -2.485  0.00  0.00    +0.244 C 
ATOM      8  O   UNL     1       0.360   1.936  -2.858  0.00  0.00    -0.273 OA
ATOM      9  N   UNL     1       2.463   2.827  -3.092  0.00  0.00    -0.238 N 
ATOM     10  C   UNL     1       3.612   2.796  -2.406  0.00  0.00    +0.307 C 
ATOM     11  O   UNL     1       4.622   3.374  -2.753  0.00  0.00    -0.252 OA
ATOM     12  N   UNL     1       3.522   2.051  -1.287  0.00  0.00    -0.285 N 
ATOM     13  H   UNL     1       2.337   3.312  -3.922  0.00  0.00    +0.159 HD
ATOM     14  H   UNL     1       4.226   1.887  -0.640  0.00  0.00    +0.151 HD
ENDROOT
BRANCH   6  15
ATOM     15  C   UNL     1      -1.412  -0.526   0.025  0.00  0.00    +0.219 C 
ATOM     16  O   UNL     1      -2.033  -0.638  -1.011  0.00  0.00    -0.275 OA
ATOM     17  N   UNL     1      -1.988  -0.860   1.196  0.00  0.00    -0.296 N 
ATOM     18  C   UNL     1      -1.301  -0.618   2.475  0.00  0.00    +0.136 C 
ATOM     19  C   UNL     1      -2.265   0.121   3.409  0.00  0.00    +0.180 C 
ATOM     20  O   UNL     1      -3.498  -0.599   3.478  0.00  0.00    -0.364 OA
ATOM     21  C   UNL     1      -4.189  -0.698   2.230  0.00  0.00    +0.221 C 
ATOM     22  C   UNL     1      -3.325  -1.473   1.235  0.00  0.00    +0.149 C 
BRANCH  21  23
ATOM     23  C   UNL     1      -5.497  -1.417   2.433  0.00  0.00    +0.241 C 
ATOM     24  O   UNL     1      -5.768  -1.888   3.518  0.00  0.00    -0.273 OA
ATOM     25  N   UNL     1      -6.365  -1.539   1.410  0.00  0.00    -0.327 N 
ATOM     26  H   UNL     1      -6.149  -1.163   0.543  0.00  0.00    +0.145 HD
ATOM     27  H   UNL     1      -7.207  -2.002   1.541  0.00  0.00    +0.145 HD
ENDBRANCH  21  23
ENDBRANCH   6  15
TORSDOF 2
