REMARK  Name = ZINC36288502
REMARK  6 active torsions:
REMARK  status: ('A' for Active; 'I' for Inactive)
REMARK    1  A    between atoms: C_1  and  C_2
REMARK    2  A    between atoms: C_5  and  C_20
REMARK    3  A    between atoms: C_6  and  S_8
REMARK    4  A    between atoms: S_8  and  N_11
REMARK    5  A    between atoms: N_11  and  C_12
REMARK    6  A    between atoms: C_15  and  N_19
REMARK                            x       y       z     vdW  Elec       q    Type
REMARK                         _______ _______ _______ _____ _____    ______ ____
ROOT
ATOM      1  N   UNL     1      -1.232  -4.251   2.535  0.00  0.00    -0.216 N 
ATOM      2  H   UNL     1      -1.029  -5.199   2.484  0.00  0.00    +0.174 HD
ENDROOT
BRANCH   1   3
ATOM      3  C   UNL     1      -2.562  -3.817   2.497  0.00  0.00    +0.050 A 
ATOM      4  C   UNL     1      -3.008  -2.865   3.404  0.00  0.00    +0.026 A 
ATOM      5  C   UNL     1      -4.320  -2.436   3.367  0.00  0.00    +0.026 A 
ATOM      6  C   UNL     1      -5.194  -2.957   2.423  0.00  0.00    +0.043 A 
ATOM      7  C   UNL     1      -4.749  -3.910   1.515  0.00  0.00    +0.063 A 
ATOM      8  C   UNL     1      -3.434  -4.335   1.549  0.00  0.00    +0.046 A 
ATOM      9 CL   UNL     1      -5.842  -4.562   0.335  0.00  0.00    -0.082 Cl
BRANCH   6  10
ATOM     10  N   UNL     1      -6.526  -2.522   2.386  0.00  0.00    -0.357 N 
ATOM     11  H   UNL     1      -6.836  -1.857   3.020  0.00  0.00    +0.142 HD
ATOM     12  H   UNL     1      -7.136  -2.887   1.726  0.00  0.00    +0.142 HD
ENDBRANCH   6  10
ENDBRANCH   1   3
BRANCH   1  13
ATOM     13  S   UNL     1      -0.004  -3.148   2.666  0.00  0.00    +0.073 S 
ATOM     14  O   UNL     1       1.211  -3.878   2.565  0.00  0.00    -0.150 OA
ATOM     15  O   UNL     1      -0.311  -2.330   3.787  0.00  0.00    -0.150 OA
BRANCH  13  21
ATOM     16  C   UNL     1      -0.753   1.520   0.435  0.00  0.00    +0.044 C 
ATOM     17  C   UNL     1      -0.439   0.054   0.277  0.00  0.00    -0.049 A 
ATOM     18  C   UNL     1      -0.214  -0.474  -0.981  0.00  0.00    +0.004 A 
ATOM     19  C   UNL     1       0.074  -1.818  -1.125  0.00  0.00    +0.005 A 
ATOM     20  C   UNL     1       0.138  -2.634  -0.011  0.00  0.00    -0.024 A 
ATOM     21  C   UNL     1      -0.085  -2.107   1.246  0.00  0.00    +0.112 A 
ATOM     22  C   UNL     1      -0.369  -0.761   1.391  0.00  0.00    +0.032 A 
ATOM     23  C   UNL     1       0.451  -4.100  -0.169  0.00  0.00    +0.046 C 
ENDBRANCH  13  21
ENDBRANCH   1  13
TORSDOF 4
