REMARK  Name = ZINC37929010
REMARK  5 active torsions:
REMARK  status: ('A' for Active; 'I' for Inactive)
REMARK    1  A    between atoms: C_1  and  N_2
REMARK    2  A    between atoms: N_2  and  C_3
REMARK    3  A    between atoms: N_2  and  S_4
REMARK    4  A    between atoms: S_4  and  C_7
REMARK    5  A    between atoms: C_12  and  N_13
REMARK                            x       y       z     vdW  Elec       q    Type
REMARK                         _______ _______ _______ _____ _____    ______ ____
ROOT
ATOM      1  C   UNL     1       1.682  -1.059  -1.905  0.00  0.00    +0.127 A 
ATOM      2  C   UNL     1       2.208  -2.335  -1.976  0.00  0.00    +0.050 A 
ATOM      3  C   UNL     1       3.529  -2.520  -2.344  0.00  0.00    +0.043 A 
ATOM      4  C   UNL     1       4.326  -1.429  -2.642  0.00  0.00    +0.022 A 
ATOM      5  C   UNL     1       3.806  -0.152  -2.573  0.00  0.00    +0.026 A 
ATOM      6  C   UNL     1       2.478   0.037  -2.209  0.00  0.00    +0.051 A 
ATOM      7 CL   UNL     1       4.187  -4.124  -2.432  0.00  0.00    -0.083 Cl
ENDROOT
BRANCH   1   8
ATOM      8  S   UNL     1      -0.000  -0.824  -1.437  0.00  0.00    +0.062 S 
ATOM      9  O   UNL     1      -0.531  -2.115  -1.167  0.00  0.00    -0.153 OA
ATOM     10  O   UNL     1      -0.572   0.049  -2.401  0.00  0.00    -0.153 OA
BRANCH   8  12
ATOM     11  C   UNL     1      -0.018   1.461   0.010  0.00  0.00    +0.131 C 
ATOM     12  N   UNL     1       0.002  -0.004   0.002  0.00  0.00    -0.183 NA
ATOM     13  C   UNL     1       0.024  -0.743   1.267  0.00  0.00    +0.131 C 
ENDBRANCH   8  12
ENDBRANCH   1   8
BRANCH   6  14
ATOM     14  N   UNL     1       1.947   1.328  -2.144  0.00  0.00    -0.356 N 
ATOM     15  H   UNL     1       1.021   1.459  -1.887  0.00  0.00    +0.142 HD
ATOM     16  H   UNL     1       2.504   2.093  -2.357  0.00  0.00    +0.142 HD
ENDBRANCH   6  14
TORSDOF 3
