REMARK  Name = ZINC39669669
REMARK  8 active torsions:
REMARK  status: ('A' for Active; 'I' for Inactive)
REMARK    1  A    between atoms: C_1  and  C_2
REMARK    2  A    between atoms: C_2  and  C_3
REMARK    3  A    between atoms: C_7  and  C_16
REMARK    4  A    between atoms: N_18  and  C_19
REMARK    5  A    between atoms: C_19  and  C_20
REMARK    6  A    between atoms: C_20  and  C_21
REMARK    7  A    between atoms: C_20  and  C_22
REMARK    8  A    between atoms: C_20  and  N_23
REMARK                            x       y       z     vdW  Elec       q    Type
REMARK                         _______ _______ _______ _____ _____    ______ ____
ROOT
ATOM      1  C   UNL     1      -1.236  -0.241   0.280  0.00  0.00    +0.215 C 
ATOM      2  O   UNL     1      -2.158   0.547   0.288  0.00  0.00    -0.276 OA
ATOM      3  N   UNL     1      -1.482  -1.564   0.200  0.00  0.00    -0.300 N 
ATOM      4  C   UNL     1      -0.498  -2.671   0.184  0.00  0.00    +0.121 C 
ATOM      5  C   UNL     1      -1.141  -3.779   1.048  0.00  0.00    +0.100 C 
ATOM      6  C   UNL     1      -2.651  -3.491   0.995  0.00  0.00    -0.004 C 
ATOM      7  C   UNL     1      -2.799  -2.240   0.117  0.00  0.00    +0.115 C 
ATOM      8  C   UNL     1      -3.186  -3.212   2.396  0.00  0.00    -0.010 C 
ATOM      9  C   UNL     1      -4.698  -2.985   2.324  0.00  0.00    -0.082 C 
ATOM     10  N   UNL     1      -5.347  -4.175   1.759  0.00  0.00    +0.379 N 
ATOM     11  C   UNL     1      -4.896  -4.383   0.378  0.00  0.00    -0.082 C 
ATOM     12  C   UNL     1      -3.391  -4.669   0.368  0.00  0.00    -0.010 C 
ATOM     13  H   UNL     1      -5.107  -4.982   2.315  0.00  0.00    -0.086 HD
ATOM     14  H   UNL     1      -6.348  -4.047   1.769  0.00  0.00    -0.086 HD
ENDROOT
BRANCH   5  15
ATOM     15  C   UNL     1      -0.639  -3.695   2.467  0.00  0.00    +0.218 C 
ATOM     16  O   UNL     1      -0.283  -2.629   2.922  0.00  0.00    -0.275 OA
ATOM     17  N   UNL     1      -0.584  -4.806   3.229  0.00  0.00    -0.313 N 
ATOM     18  H   UNL     1      -0.869  -5.659   2.864  0.00  0.00    +0.149 HD
BRANCH  17  19
ATOM     19  C   UNL     1      -0.096  -4.725   4.608  0.00  0.00    +0.126 C 
BRANCH  19  20
ATOM     20  C   UNL     1      -0.013  -6.132   5.203  0.00  0.00    +0.032 C 
ATOM     21  C   UNL     1       1.048  -6.941   4.452  0.00  0.00    +0.029 C 
ATOM     22  C   UNL     1       0.369  -6.038   6.681  0.00  0.00    +0.029 C 
BRANCH  20  23
ATOM     23  N   UNL     1      -1.317  -6.796   5.074  0.00  0.00    -0.291 NA
ATOM     24  C   UNL     1      -2.374  -6.010   5.727  0.00  0.00    +0.113 C 
ATOM     25  C   UNL     1      -3.722  -6.706   5.519  0.00  0.00    +0.175 C 
ATOM     26  O   UNL     1      -3.647  -8.041   6.027  0.00  0.00    -0.377 OA
ATOM     27  C   UNL     1      -2.628  -8.835   5.413  0.00  0.00    +0.175 C 
ATOM     28  C   UNL     1      -1.269  -8.160   5.620  0.00  0.00    +0.113 C 
ENDBRANCH  20  23
ENDBRANCH  19  20
ENDBRANCH  17  19
ENDBRANCH   5  15
BRANCH   1  30
ATOM     29  C   UNL     1       0.183   1.786   0.439  0.00  0.00    +0.013 C 
ATOM     30  C   UNL     1       0.183   0.258   0.358  0.00  0.00    +0.092 C 
ENDBRANCH   1  30
TORSDOF 5
