REMARK  Name = ZINC04571801
REMARK  3 active torsions:
REMARK  status: ('A' for Active; 'I' for Inactive)
REMARK    1  A    between atoms: C_4  and  C_7
REMARK    2  A    between atoms: C_12  and  O_22
REMARK    3  A    between atoms: C_14  and  C_17
REMARK                            x       y       z     vdW  Elec       q    Type
REMARK                         _______ _______ _______ _____ _____    ______ ____
ROOT
ATOM      1  C   UNL     1       3.698  -0.688  -0.037  0.00  0.00    +0.003 A 
ATOM      2  C   UNL     1       4.664  -0.361  -0.937  0.00  0.00    +0.056 A 
ATOM      3  S   UNL     1       5.988  -1.495  -0.547  0.00  0.00    -0.081 S 
ATOM      4  C   UNL     1       5.222  -2.361   0.781  0.00  0.00    +0.080 A 
ATOM      5  C   UNL     1       3.966  -1.751   0.907  0.00  0.00    +0.072 A 
ATOM      6  C   UNL     1       3.074  -2.261   1.980  0.00  0.00    +0.220 C 
ATOM      7  N   UNL     1       3.409  -3.378   2.567  0.00  0.00    -0.220 NA
ATOM      8  C   UNL     1       4.559  -4.197   2.204  0.00  0.00    +0.260 C 
ATOM      9  N   UNL     1       5.626  -3.394   1.587  0.00  0.00    -0.311 N 
ATOM     10  H   UNL     1       6.564  -3.580   1.750  0.00  0.00    +0.149 HD
ENDROOT
BRANCH   1  14
ATOM     11  C   UNL     1      -0.017   1.379   0.010  0.00  0.00    +0.000 A 
ATOM     12  C   UNL     1       1.169   2.092   0.002  0.00  0.00    +0.001 A 
ATOM     13  C   UNL     1       2.377   1.427  -0.013  0.00  0.00    +0.008 A 
ATOM     14  C   UNL     1       2.403   0.033  -0.021  0.00  0.00    -0.017 A 
ATOM     15  C   UNL     1       1.205  -0.680  -0.013  0.00  0.00    +0.008 A 
ATOM     16  C   UNL     1       0.002  -0.004   0.002  0.00  0.00    +0.001 A 
ENDBRANCH   1  14
BRANCH   8  17
ATOM     17  C   UNL     1       4.121  -5.252   1.221  0.00  0.00    +0.147 A 
ATOM     18  C   UNL     1       2.896  -5.805   1.154  0.00  0.00    +0.048 A 
ATOM     19  C   UNL     1       2.927  -6.740   0.094  0.00  0.00    +0.041 A 
ATOM     20  C   UNL     1       4.168  -6.703  -0.423  0.00  0.00    +0.195 A 
ATOM     21  O   UNL     1       4.885  -5.795   0.260  0.00  0.00    -0.464 OA
ENDBRANCH   8  17
BRANCH   6  22
ATOM     22  O   UNL     1       1.954  -1.591   2.336  0.00  0.00    -0.492 OA
ATOM     23  H   UNL     1       1.451  -2.015   3.045  0.00  0.00    +0.294 HD
ENDBRANCH   6  22
TORSDOF 3
