REMARK  Name = ZINC16951518
REMARK  5 active torsions:
REMARK  status: ('A' for Active; 'I' for Inactive)
REMARK    1  A    between atoms: C_3  and  C_16
REMARK    2  A    between atoms: C_5  and  O_15
REMARK    3  A    between atoms: C_7  and  O_14
REMARK    4  A    between atoms: C_9  and  C_12
REMARK    5  A    between atoms: C_16  and  O_17
REMARK                            x       y       z     vdW  Elec       q    Type
REMARK                         _______ _______ _______ _____ _____    ______ ____
ROOT
ATOM      1  C   UNL     1      -0.849   1.885   3.525  0.00  0.00    +0.323 C 
ATOM      2  O   UNL     1      -1.327   3.005   4.146  0.00  0.00    -0.346 OA
ATOM      3  C   UNL     1      -2.130   3.903   3.370  0.00  0.00    +0.177 C 
ATOM      4  C   UNL     1      -1.189   4.775   2.577  0.00  0.00    +0.176 C 
ATOM      5  C   UNL     1      -0.906   4.185   1.183  0.00  0.00    +0.175 C 
ATOM      6  C   UNL     1      -0.743   2.651   1.273  0.00  0.00    +0.162 C 
ATOM      7  O   UNL     1      -0.011   2.241   2.399  0.00  0.00    -0.347 OA
ENDROOT
BRANCH   6   8
ATOM      8  C   UNL     1      -0.027   2.158   0.014  0.00  0.00    +0.108 C 
ATOM      9  I   UNL     1       0.002  -0.004   0.002  0.00  0.00    -0.083 I 
ENDBRANCH   6   8
BRANCH   5  10
ATOM     10  O   UNL     1      -1.994   4.495   0.311  0.00  0.00    -0.387 OA
ATOM     11  H   UNL     1      -1.882   4.165  -0.591  0.00  0.00    +0.210 HD
ENDBRANCH   5  10
BRANCH   4  12
ATOM     12  O   UNL     1      -1.773   6.070   2.424  0.00  0.00    -0.386 OA
ATOM     13  H   UNL     1      -1.982   6.509   3.260  0.00  0.00    +0.210 HD
ENDBRANCH   4  12
BRANCH   3  14
ATOM     14  C   UNL     1      -2.987   4.769   4.295  0.00  0.00    +0.190 C 
BRANCH  14  15
ATOM     15  O   UNL     1      -3.954   3.949   4.955  0.00  0.00    -0.392 OA
ATOM     16  H   UNL     1      -4.533   4.433   5.559  0.00  0.00    +0.210 HD
ENDBRANCH  14  15
ENDBRANCH   3  14
TORSDOF 5
