REMARK  Name = ZINC48960703
REMARK  4 active torsions:
REMARK  status: ('A' for Active; 'I' for Inactive)
REMARK    1  A    between atoms: C_1  and  C_2
REMARK    2  A    between atoms: C_2  and  C_4
REMARK    3  A    between atoms: C_2  and  N_13
REMARK    4  A    between atoms: N_16  and  C_17
REMARK                            x       y       z     vdW  Elec       q    Type
REMARK                         _______ _______ _______ _____ _____    ______ ____
ROOT
ATOM      1  N   UNL     1      -1.367  -0.520  -0.079  0.00  0.00    -0.293 N 
ATOM      2  C   UNL     1      -1.943  -0.717  -1.281  0.00  0.00    +0.304 C 
ATOM      3  O   UNL     1      -1.327  -0.466  -2.299  0.00  0.00    -0.252 OA
ATOM      4  N   UNL     1      -3.202  -1.192  -1.355  0.00  0.00    -0.267 N 
ATOM      5  H   UNL     1      -1.858  -0.721   0.734  0.00  0.00    +0.151 HD
ATOM      6  H   UNL     1      -3.694  -1.392  -0.543  0.00  0.00    +0.156 HD
ENDROOT
BRANCH   4   7
ATOM      7  C   UNL     1      -3.805  -1.397  -2.611  0.00  0.00    +0.072 A 
ATOM      8  C   UNL     1      -5.061  -1.863  -2.829  0.00  0.00    +0.128 A 
ATOM      9  N   UNL     1      -5.253  -1.913  -4.173  0.00  0.00    -0.283 N 
ATOM     10  H   UNL     1      -6.060  -2.206  -4.624  0.00  0.00    +0.188 HD
ATOM     11  N   UNL     1      -4.079  -1.465  -4.792  0.00  0.00    -0.180 NA
ATOM     12  C   UNL     1      -3.215  -1.152  -3.860  0.00  0.00    +0.157 A 
ENDBRANCH   4   7
BRANCH   1  14
ATOM     13  C   UNL     1      -0.028   1.526  -0.017  0.00  0.00    +0.033 C 
ATOM     14  C   UNL     1       0.002  -0.004   0.002  0.00  0.00    +0.103 C 
BRANCH  14  15
ATOM     15  C   UNL     1       0.643  -0.478   1.280  0.00  0.00    -0.006 A 
ATOM     16  C   UNL     1      -0.141  -0.765   2.382  0.00  0.00    +0.046 A 
ATOM     17  C   UNL     1       0.448  -1.201   3.556  0.00  0.00    +0.142 A 
ATOM     18  C   UNL     1       1.824  -1.350   3.627  0.00  0.00    +0.077 A 
ATOM     19  C   UNL     1       2.607  -1.063   2.524  0.00  0.00    +0.043 A 
ATOM     20  C   UNL     1       2.017  -0.632   1.349  0.00  0.00    +0.047 A 
ATOM     21 CL   UNL     1       3.000  -0.278  -0.037  0.00  0.00    -0.083 Cl
ATOM     22 CL   UNL     1       2.564  -1.896   5.099  0.00  0.00    -0.081 Cl
ATOM     23  F   UNL     1      -0.319  -1.480   4.633  0.00  0.00    -0.204 F 
ENDBRANCH  14  15
ENDBRANCH   1  14
TORSDOF 3
