REMARK  Name = ZINC05218883
REMARK  7 active torsions:
REMARK  status: ('A' for Active; 'I' for Inactive)
REMARK    1  A    between atoms: C_1  and  C_2
REMARK    2  A    between atoms: C_2  and  C_3
REMARK    3  A    between atoms: C_10  and  N_32
REMARK    4  A    between atoms: C_11  and  C_30
REMARK    5  A    between atoms: N_19  and  C_22
REMARK    6  A    between atoms: C_22  and  C_23
REMARK    7  A    between atoms: C_23  and  C_24
REMARK                            x       y       z     vdW  Elec       q    Type
REMARK                         _______ _______ _______ _____ _____    ______ ____
ROOT
ATOM      1  C   UNL     1      -1.412  -0.526   0.013  0.00  0.00    +0.044 A 
ATOM      2  C   UNL     1      -2.195  -0.710  -1.060  0.00  0.00    +0.061 A 
ATOM      3  C   UNL     1      -3.439  -1.212  -0.613  0.00  0.00    +0.245 A 
ATOM      4  N   UNL     1      -3.388  -1.318   0.682  0.00  0.00    -0.135 NA
ATOM      5  N   UNL     1      -2.117  -0.898   1.106  0.00  0.00    -0.278 N 
ATOM      6  H   UNL     1      -1.801  -0.875   2.022  0.00  0.00    +0.189 HD
ATOM      7  O   UNL     1      -4.449  -1.503  -1.476  0.00  0.00    -0.421 OA
ATOM      8  C   UNL     1      -4.157  -1.551  -2.791  0.00  0.00    +0.201 C 
ATOM      9  C   UNL     1      -3.008  -1.093  -3.336  0.00  0.00    +0.110 C 
ATOM     10  C   UNL     1      -1.916  -0.465  -2.516  0.00  0.00    +0.145 C 
ATOM     11  C   UNL     1      -1.787   0.996  -2.806  0.00  0.00    -0.001 A 
ATOM     12  C   UNL     1      -2.677   2.039  -2.666  0.00  0.00    +0.007 A 
ATOM     13  C   UNL     1      -2.231   3.304  -3.034  0.00  0.00    +0.000 A 
ATOM     14  C   UNL     1      -0.954   3.502  -3.518  0.00  0.00    +0.002 A 
ATOM     15  C   UNL     1      -0.053   2.458  -3.663  0.00  0.00    +0.024 A 
ATOM     16  C   UNL     1      -0.489   1.184  -3.297  0.00  0.00    +0.041 A 
ATOM     17  N   UNL     1       0.189  -0.022  -3.338  0.00  0.00    -0.269 N 
ATOM     18  C   UNL     1      -0.573  -1.046  -2.899  0.00  0.00    +0.240 C 
ATOM     19  O   UNL     1      -0.243  -2.211  -2.825  0.00  0.00    -0.274 OA
ENDROOT
BRANCH   8  20
ATOM     20  N   UNL     1      -5.089  -2.104  -3.634  0.00  0.00    -0.328 N 
ATOM     21  H   UNL     1      -5.925  -2.443  -3.277  0.00  0.00    +0.145 HD
ATOM     22  H   UNL     1      -4.912  -2.155  -4.586  0.00  0.00    +0.145 HD
ENDBRANCH   8  20
BRANCH   1  24
ATOM     23  C   UNL     1      -0.019   1.526   0.010  0.00  0.00    +0.010 C 
ATOM     24  C   UNL     1       0.002  -0.004   0.002  0.00  0.00    +0.052 C 
ENDBRANCH   1  24
BRANCH   9  25
ATOM     25  C   UNL     1      -2.825  -1.209  -4.752  0.00  0.00    +0.102 C 
ATOM     26  N   UNL     1      -2.679  -1.301  -5.875  0.00  0.00    -0.191 NA
ENDBRANCH   9  25
BRANCH  17  27
ATOM     27  C   UNL     1       1.571  -0.169  -3.803  0.00  0.00    +0.118 C 
BRANCH  27  28
ATOM     28  C   UNL     1       2.527   0.002  -2.622  0.00  0.00    +0.054 C 
BRANCH  28  29
ATOM     29  C   UNL     1       3.949  -0.150  -3.100  0.00  0.00    -0.046 A 
ATOM     30  C   UNL     1       4.545  -1.397  -3.111  0.00  0.00    +0.004 A 
ATOM     31  C   UNL     1       5.848  -1.536  -3.550  0.00  0.00    +0.000 A 
ATOM     32  C   UNL     1       6.555  -0.428  -3.978  0.00  0.00    +0.000 A 
ATOM     33  C   UNL     1       5.959   0.819  -3.968  0.00  0.00    +0.000 A 
ATOM     34  C   UNL     1       4.654   0.957  -3.533  0.00  0.00    +0.004 A 
ENDBRANCH  28  29
ENDBRANCH  27  28
ENDBRANCH  17  27
TORSDOF 6
