REMARK  Name = ZINC40769916
REMARK  5 active torsions:
REMARK  status: ('A' for Active; 'I' for Inactive)
REMARK    1  A    between atoms: C_1  and  O_2
REMARK    2  A    between atoms: O_2  and  C_3
REMARK    3  A    between atoms: C_5  and  N_10
REMARK    4  A    between atoms: C_8  and  N_9
REMARK    5  A    between atoms: N_13  and  C_14
REMARK                            x       y       z     vdW  Elec       q    Type
REMARK                         _______ _______ _______ _____ _____    ______ ____
ROOT
ATOM      1  N   UNL     1      -4.786   0.195   0.023  0.00  0.00    -0.269 N 
ATOM      2  C   UNL     1      -5.977  -0.430  -0.061  0.00  0.00    +0.308 C 
ATOM      3  O   UNL     1      -6.027  -1.645  -0.060  0.00  0.00    -0.252 OA
ATOM      4  N   UNL     1      -7.112   0.291  -0.148  0.00  0.00    -0.268 N 
ATOM      5  H   UNL     1      -4.750   1.163   0.089  0.00  0.00    +0.156 HD
ATOM      6  H   UNL     1      -7.069   1.258  -0.216  0.00  0.00    +0.156 HD
ENDROOT
BRANCH   4   7
ATOM      7  C   UNL     1      -8.354  -0.354  -0.140  0.00  0.00    +0.053 A 
ATOM      8  C   UNL     1      -8.496  -1.598  -0.742  0.00  0.00    +0.025 A 
ATOM      9  C   UNL     1      -9.723  -2.233  -0.731  0.00  0.00    +0.002 A 
ATOM     10  C   UNL     1     -10.809  -1.632  -0.123  0.00  0.00    +0.002 A 
ATOM     11  C   UNL     1     -10.672  -0.394   0.477  0.00  0.00    +0.022 A 
ATOM     12  C   UNL     1      -9.446   0.245   0.476  0.00  0.00    +0.062 A 
ATOM     13 CL   UNL     1      -9.273   1.796   1.236  0.00  0.00    -0.082 Cl
ENDBRANCH   4   7
BRANCH   1  16
ATOM     14  C   UNL     1      -1.294  -0.785  -0.607  0.00  0.00    +0.142 A 
ATOM     15  C   UNL     1      -2.465  -0.046  -0.602  0.00  0.00    +0.070 A 
ATOM     16  C   UNL     1      -3.600  -0.552   0.017  0.00  0.00    +0.038 A 
ATOM     17  C   UNL     1      -3.561  -1.797   0.630  0.00  0.00    +0.025 A 
ATOM     18  C   UNL     1      -2.393  -2.535   0.626  0.00  0.00    +0.028 A 
ATOM     19  C   UNL     1      -1.258  -2.036   0.004  0.00  0.00    +0.067 A 
BRANCH  19  20
ATOM     20  N   UNL     1      -0.075  -2.788  -0.005  0.00  0.00    -0.355 N 
ATOM     21  H   UNL     1       0.719  -2.437  -0.437  0.00  0.00    +0.142 HD
ATOM     22  H   UNL     1      -0.051  -3.660   0.420  0.00  0.00    +0.142 HD
ENDBRANCH  19  20
BRANCH  14  24
ATOM     23  C   UNL     1      -0.289   0.998  -1.819  0.00  0.00    +0.277 C 
ATOM     24  O   UNL     1      -0.180  -0.291  -1.213  0.00  0.00    -0.493 OA
ENDBRANCH  14  24
ENDBRANCH   1  16
TORSDOF 4
