REMARK  Name = ZINC50844611
REMARK  3 active torsions:
REMARK  status: ('A' for Active; 'I' for Inactive)
REMARK    1  A    between atoms: C_3  and  C_9
REMARK    2  A    between atoms: C_9  and  C_10
REMARK    3  A    between atoms: C_14  and  N_16
REMARK                            x       y       z     vdW  Elec       q    Type
REMARK                         _______ _______ _______ _____ _____    ______ ____
ROOT
ATOM      1  C   UNL     1       4.243   2.224   1.371  0.00  0.00    +0.136 A 
ATOM      2  N   UNL     1       3.903   3.210   2.175  0.00  0.00    -0.236 NA
ATOM      3  C   UNL     1       4.383   3.282   3.410  0.00  0.00    +0.050 A 
ATOM      4  C   UNL     1       5.251   2.305   3.849  0.00  0.00    +0.013 A 
ATOM      5  C   UNL     1       5.592   1.273   2.973  0.00  0.00    +0.123 A 
ATOM      6  N   UNL     1       5.065   1.267   1.752  0.00  0.00    -0.217 NA
ATOM      7  C   UNL     1       5.667   2.586   5.274  0.00  0.00    +0.041 C 
ATOM      8  C   UNL     1       5.303   4.067   5.515  0.00  0.00    +0.011 C 
ATOM      9  C   UNL     1       4.152   4.293   4.511  0.00  0.00    +0.056 C 
ENDROOT
BRANCH   5  10
ATOM     10  N   UNL     1       6.461   0.270   3.370  0.00  0.00    -0.343 N 
ATOM     11  H   UNL     1       6.838   0.280   4.264  0.00  0.00    +0.144 HD
ATOM     12  H   UNL     1       6.693  -0.443   2.755  0.00  0.00    +0.144 HD
ENDBRANCH   5  10
BRANCH   1  13
ATOM     13  C   UNL     1       3.671   2.185  -0.023  0.00  0.00    +0.112 C 
BRANCH  13  16
ATOM     14  C   UNL     1      -0.017   1.379   0.010  0.00  0.00    +0.020 A 
ATOM     15  C   UNL     1       1.171   2.087   0.002  0.00  0.00    +0.007 A 
ATOM     16  C   UNL     1       2.377   1.413  -0.013  0.00  0.00    -0.022 A 
ATOM     17  C   UNL     1       2.397   0.029  -0.021  0.00  0.00    +0.046 A 
ATOM     18  C   UNL     1       1.210  -0.679  -0.013  0.00  0.00    +0.040 A 
ATOM     19  C   UNL     1       0.002  -0.004   0.002  0.00  0.00    +0.042 A 
ATOM     20 CL   UNL     1      -1.489  -0.893   0.012  0.00  0.00    -0.083 Cl
ATOM     21 CL   UNL     1       3.913  -0.817  -0.041  0.00  0.00    -0.083 Cl
ENDBRANCH  13  16
ENDBRANCH   1  13
TORSDOF 3
