REMARK  Name = ZINC33129445
REMARK  4 active torsions:
REMARK  status: ('A' for Active; 'I' for Inactive)
REMARK    1  A    between atoms: C_1  and  C_2
REMARK    2  A    between atoms: C_6  and  N_8
REMARK    3  A    between atoms: N_11  and  C_12
REMARK    4  A    between atoms: C_22  and  C_24
REMARK                            x       y       z     vdW  Elec       q    Type
REMARK                         _______ _______ _______ _____ _____    ______ ____
ROOT
ATOM      1  C   UNL     1       2.313   7.910   0.204  0.00  0.00    +0.037 A 
ATOM      2  C   UNL     1       3.525   7.223   0.197  0.00  0.00    +0.024 A 
ATOM      3  C   UNL     1       4.707   7.938   0.190  0.00  0.00    +0.019 A 
ATOM      4  C   UNL     1       4.672   9.310   0.200  0.00  0.00    +0.041 A 
ATOM      5  C   UNL     1       3.464  10.044   0.212  0.00  0.00    +0.082 A 
ATOM      6  C   UNL     1       2.271   9.286   0.214  0.00  0.00    +0.052 A 
ATOM      7  N   UNL     1       3.596  11.389   0.220  0.00  0.00    -0.225 NA
ATOM      8  C   UNL     1       4.767  11.982   0.217  0.00  0.00    +0.165 A 
ATOM      9  S   UNL     1       5.896  10.598   0.200  0.00  0.00    -0.052 S 
ATOM     10  N   UNL     1       5.053  13.338   0.224  0.00  0.00    -0.265 N 
ATOM     11  C   UNL     1       6.335  13.756   0.218  0.00  0.00    +0.216 C 
ATOM     12  O   UNL     1       7.237  12.945   0.206  0.00  0.00    -0.276 OA
ATOM     13  C   UNL     1       6.647  15.230   0.226  0.00  0.00    +0.109 C 
ATOM     14  H   UNL     1       4.235  14.073   0.234  0.00  0.00    +0.157 HD
ENDROOT
BRANCH   1  18
ATOM     15  N   UNL     1      -0.154   5.377  -0.547  0.00  0.00    -0.269 N 
ATOM     16  C   UNL     1       1.025   6.026  -0.473  0.00  0.00    +0.308 C 
ATOM     17  O   UNL     1       2.008   5.565  -1.020  0.00  0.00    -0.252 OA
ATOM     18  N   UNL     1       1.113   7.186   0.207  0.00  0.00    -0.269 N 
ATOM     19  H   UNL     1      -1.060   5.830  -0.118  0.00  0.00    +0.156 HD
ATOM     20  H   UNL     1       0.244   7.565   0.764  0.00  0.00    +0.156 HD
BRANCH  15  26
ATOM     21  C   UNL     1      -2.112   0.873  -0.783  0.00  0.00    +0.044 C 
ATOM     22  C   UNL     1      -1.166   1.924  -1.305  0.00  0.00    -0.049 A 
ATOM     23  C   UNL     1      -0.367   1.651  -2.401  0.00  0.00    +0.003 A 
ATOM     24  C   UNL     1       0.498   2.615  -2.886  0.00  0.00    +0.002 A 
ATOM     25  C   UNL     1       0.571   3.851  -2.274  0.00  0.00    +0.023 A 
ATOM     26  C   UNL     1      -0.226   4.125  -1.170  0.00  0.00    +0.035 A 
ATOM     27  C   UNL     1      -1.093   3.155  -0.685  0.00  0.00    +0.026 A 
ENDBRANCH  15  26
ENDBRANCH   1  18
TORSDOF 2
