REMARK  Name = ZINC20164028
REMARK  3 active torsions:
REMARK  status: ('A' for Active; 'I' for Inactive)
REMARK    1  A    between atoms: C_3  and  O_14
REMARK    2  A    between atoms: C_4  and  C_8
REMARK    3  A    between atoms: N_9  and  N_10
REMARK                            x       y       z     vdW  Elec       q    Type
REMARK                         _______ _______ _______ _____ _____    ______ ____
ROOT
ATOM      1  C   UNL     1       0.000   1.090   1.280  0.00  0.00    +0.019 A 
ATOM      2  C   UNL     1       1.007   1.864   0.734  0.00  0.00    +0.047 A 
ATOM      3  C   UNL     1       2.209   1.282   0.367  0.00  0.00    +0.126 A 
ATOM      4  C   UNL     1       2.401  -0.094   0.553  0.00  0.00    +0.037 A 
ATOM      5  C   UNL     1       1.377  -0.865   1.105  0.00  0.00    +0.028 A 
ATOM      6  C   UNL     1       0.185  -0.270   1.465  0.00  0.00    +0.019 A 
ATOM      7 BR   UNL     1      -1.202  -1.315   2.214  0.00  0.00    -0.050 Br
ENDROOT
BRANCH   4   8
ATOM      8  C   UNL     1       3.676  -0.723   0.166  0.00  0.00    +0.144 C 
ATOM      9  N   UNL     1       3.711  -1.983  -0.143  0.00  0.00    -0.180 NA
BRANCH   9  10
ATOM     10  N   UNL     1       2.517  -2.688  -0.346  0.00  0.00    -0.258 N 
ATOM     11  C   UNL     1       2.548  -4.038  -0.559  0.00  0.00    +0.156 C 
ATOM     12  N   UNL     1       1.382  -4.726  -0.758  0.00  0.00    -0.338 N 
ATOM     13  S   UNL     1       4.000  -4.843  -0.578  0.00  0.00    -0.015 SA
ATOM     14  H   UNL     1       0.534  -4.255  -0.747  0.00  0.00    +0.144 HD
ATOM     15  H   UNL     1       1.404  -5.684  -0.909  0.00  0.00    +0.144 HD
ATOM     16  H   UNL     1       1.669  -2.217  -0.336  0.00  0.00    +0.191 HD
ENDBRANCH   9  10
ENDBRANCH   4   8
BRANCH   3  17
ATOM     17  O   UNL     1       3.199   2.042  -0.170  0.00  0.00    -0.506 OA
ATOM     18  H   UNL     1       3.760   2.478   0.486  0.00  0.00    +0.292 HD
ENDBRANCH   3  17
TORSDOF 3
