REMARK  Name = ZINC63351168
REMARK  2 active torsions:
REMARK  status: ('A' for Active; 'I' for Inactive)
REMARK    1  A    between atoms: C_8  and  C_16
REMARK    2  A    between atoms: N_21  and  C_24
REMARK                            x       y       z     vdW  Elec       q    Type
REMARK                         _______ _______ _______ _____ _____    ______ ____
ROOT
ATOM      1  C   UNL     1      -0.309   0.936   0.152  0.00  0.00    +0.001 A 
ATOM      2  C   UNL     1       0.825   1.758   0.079  0.00  0.00    +0.002 A 
ATOM      3  C   UNL     1       2.079   1.263   0.025  0.00  0.00    +0.026 A 
ATOM      4  C   UNL     1       2.303  -0.140   0.041  0.00  0.00    +0.043 A 
ATOM      5  N   UNL     1       3.410  -0.849   0.023  0.00  0.00    -0.376 N 
ATOM      6  C   UNL     1       3.053  -2.262  -0.040  0.00  0.00    +0.128 C 
ATOM      7  C   UNL     1       3.669  -3.076   1.101  0.00  0.00    +0.121 C 
ATOM      8  N   UNL     1       3.027  -4.400   1.125  0.00  0.00    -0.307 NA
ATOM      9  C   UNL     1       1.610  -4.349   1.496  0.00  0.00    +0.086 C 
ATOM     10  C   UNL     1       0.808  -3.596   0.418  0.00  0.00    +0.048 C 
ATOM     11  C   UNL     1       1.544  -2.303   0.144  0.00  0.00    -0.035 C 
ATOM     12  C   UNL     1       1.120  -1.033   0.127  0.00  0.00    -0.001 A 
ATOM     13  C   UNL     1      -0.209  -0.412   0.177  0.00  0.00    +0.010 A 
ATOM     14  H   UNL     1       3.153  -4.879   0.245  0.00  0.00    +0.123 HD
ATOM     15  H   UNL     1       4.312  -0.492   0.047  0.00  0.00    +0.160 HD
ENDROOT
BRANCH   7  16
ATOM     16  C   UNL     1       5.150  -3.233   0.871  0.00  0.00    +0.100 A 
ATOM     17  C   UNL     1       6.047  -2.674   1.733  0.00  0.00    +0.261 A 
ATOM     18  N   UNL     1       7.390  -2.830   1.504  0.00  0.00    -0.302 N 
ATOM     19  C   UNL     1       7.824  -3.528   0.439  0.00  0.00    +0.164 A 
ATOM     20  S   UNL     1       9.506  -3.707   0.176  0.00  0.00    -0.013 S 
ATOM     21  N   UNL     1       6.955  -4.088  -0.423  0.00  0.00    -0.285 N 
ATOM     22  C   UNL     1       5.626  -3.963  -0.233  0.00  0.00    +0.263 A 
ATOM     23  O   UNL     1       4.844  -4.476  -1.013  0.00  0.00    -0.267 OA
ATOM     24  O   UNL     1       5.616  -1.972   2.802  0.00  0.00    -0.267 OA
ATOM     25  H   UNL     1       8.032  -2.434   2.114  0.00  0.00    +0.171 HD
BRANCH  21  26
ATOM     26  C   UNL     1       7.457  -4.842  -1.574  0.00  0.00    +0.093 C 
ATOM     27  C   UNL     1       6.826  -6.208  -1.853  0.00  0.00    +0.027 C 
ATOM     28  C   UNL     1       8.246  -6.122  -1.291  0.00  0.00    +0.027 C 
ENDBRANCH  21  26
ENDBRANCH   7  16
TORSDOF 2
