REMARK  Name = ZINC17003664
REMARK  4 active torsions:
REMARK  status: ('A' for Active; 'I' for Inactive)
REMARK    1  A    between atoms: C_1  and  C_2
REMARK    2  A    between atoms: C_13  and  O_15
REMARK    3  A    between atoms: C_20  and  C_27
REMARK    4  A    between atoms: C_23  and  O_26
REMARK                            x       y       z     vdW  Elec       q    Type
REMARK                         _______ _______ _______ _____ _____    ______ ____
ROOT
ATOM      1  C   UNL     1       2.319  -0.657  -0.696  0.00  0.00    +0.014 C 
ATOM      2  C   UNL     1       1.332  -0.538   0.466  0.00  0.00    -0.003 C 
ATOM      3  C   UNL     1      -0.069  -0.290  -0.029  0.00  0.00    +0.010 C 
ATOM      4  C   UNL     1      -0.335   1.206  -0.226  0.00  0.00    +0.005 C 
ATOM      5  C   UNL     1       0.954   2.009  -0.354  0.00  0.00    +0.001 C 
ATOM      6  C   UNL     1       1.770   1.911   0.931  0.00  0.00    -0.003 C 
ATOM      7  C   UNL     1       1.756   0.526   1.501  0.00  0.00    +0.001 C 
ATOM      8  C   UNL     1       3.094  -0.048   1.993  0.00  0.00    +0.007 C 
ATOM      9  C   UNL     1       2.800  -1.570   2.105  0.00  0.00    +0.032 C 
ATOM     10  C   UNL     1       1.489  -1.819   1.317  0.00  0.00    +0.121 C 
ATOM     11  C   UNL     1       3.165   2.502   0.770  0.00  0.00    +0.006 C 
ATOM     12  C   UNL     1       3.073   3.789  -0.068  0.00  0.00    +0.032 C 
ATOM     13  C   UNL     1       1.672   4.350   0.089  0.00  0.00    +0.128 C 
ATOM     14  C   UNL     1       0.658   3.474  -0.657  0.00  0.00    -0.002 C 
ATOM     15  C   UNL     1      -0.735   3.911  -0.219  0.00  0.00    +0.014 C 
ATOM     16  C   UNL     1      -0.911   5.402  -0.532  0.00  0.00    +0.062 C 
ATOM     17  C   UNL     1       0.244   6.232   0.019  0.00  0.00    +0.247 C 
ATOM     18  O   UNL     1       1.514   5.687  -0.374  0.00  0.00    -0.348 OA
ATOM     19  C   UNL     1       0.809   3.692  -2.165  0.00  0.00    +0.014 C 
ENDROOT
BRANCH  10  20
ATOM     20  O   UNL     1       1.622  -2.952   0.465  0.00  0.00    -0.391 OA
ATOM     21  H   UNL     1       1.724  -3.790   0.937  0.00  0.00    +0.210 HD
ENDBRANCH  10  20
BRANCH  17  22
ATOM     22  O   UNL     1       0.141   7.571  -0.475  0.00  0.00    -0.367 OA
ATOM     23  H   UNL     1       0.844   8.159  -0.166  0.00  0.00    +0.212 HD
ENDBRANCH  17  22
TORSDOF 2
