REMARK  Name = ZINC09512072
REMARK  9 active torsions:
REMARK  status: ('A' for Active; 'I' for Inactive)
REMARK    1  A    between atoms: C_1  and  C_2
REMARK    2  A    between atoms: C_4  and  N_11
REMARK    3  A    between atoms: C_5  and  O_9
REMARK    4  A    between atoms: O_9  and  C_10
REMARK    5  A    between atoms: C_12  and  C_14
REMARK    6  A    between atoms: C_14  and  N_43
REMARK    7  A    between atoms: C_15  and  C_17
REMARK    8  A    between atoms: C_15  and  C_18
REMARK    9  A    between atoms: C_15  and  N_43
REMARK                            x       y       z     vdW  Elec       q    Type
REMARK                         _______ _______ _______ _____ _____    ______ ____
ROOT
ATOM      1  N   UNL     1      -0.016   1.344   0.009  0.00  0.00    -0.284 N 
ATOM      2  C   UNL     1       0.102   0.001   0.016  0.00  0.00    +0.200 C 
ATOM      3  O   UNL     1      -0.887  -0.694   0.121  0.00  0.00    -0.278 OA
ATOM      4  H   UNL     1       0.778   1.900  -0.009  0.00  0.00    +0.155 HD
ENDROOT
BRANCH   1   8
ATOM      5  C   UNL     1      -4.701   1.276   1.501  0.00  0.00    +0.045 C 
ATOM      6  C   UNL     1      -3.576   1.925   0.738  0.00  0.00    -0.030 A 
ATOM      7  C   UNL     1      -2.324   1.340   0.725  0.00  0.00    +0.031 A 
ATOM      8  C   UNL     1      -1.287   1.936   0.023  0.00  0.00    +0.076 A 
ATOM      9  C   UNL     1      -1.509   3.127  -0.664  0.00  0.00    +0.143 A 
ATOM     10  C   UNL     1      -2.768   3.705  -0.651  0.00  0.00    +0.067 A 
ATOM     11  C   UNL     1      -3.798   3.105   0.051  0.00  0.00    +0.047 A 
ATOM     12 CL   UNL     1      -5.373   3.835   0.070  0.00  0.00    -0.083 Cl
BRANCH   9  13
ATOM     13  O   UNL     1      -0.494   3.719  -1.348  0.00  0.00    -0.493 OA
ATOM     14  C   UNL     1      -0.795   4.939  -2.029  0.00  0.00    +0.277 C 
ENDBRANCH   9  13
ENDBRANCH   1   8
BRANCH   2  15
ATOM     15  C   UNL     1       1.461  -0.637  -0.108  0.00  0.00    +0.016 C 
BRANCH  15  16
ATOM     16  N   UNL     1       1.312  -2.104  -0.074  0.00  0.00    +0.389 N 
ATOM     17  H   UNL     1       0.715  -2.402  -0.855  0.00  0.00    -0.084 HD
ATOM     18  H   UNL     1       0.877  -2.380   0.814  0.00  0.00    -0.084 HD
BRANCH  16  19
ATOM     19  C   UNL     1       2.630  -2.756  -0.194  0.00  0.00    -0.043 C 
ATOM     20  C   UNL     1       3.001  -2.890  -1.672  0.00  0.00    -0.009 C 
BRANCH  19  21
ATOM     21  C   UNL     1       2.564  -4.124   0.434  0.00  0.00    -0.059 A 
ATOM     22  C   UNL     1       3.627  -4.591   1.185  0.00  0.00    +0.005 A 
ATOM     23  C   UNL     1       3.568  -5.846   1.762  0.00  0.00    +0.041 A 
ATOM     24  C   UNL     1       2.445  -6.636   1.589  0.00  0.00    +0.158 A 
ATOM     25  C   UNL     1       1.379  -6.167   0.836  0.00  0.00    +0.159 A 
ATOM     26  C   UNL     1       1.439  -4.908   0.264  0.00  0.00    +0.043 A 
ATOM     27  F   UNL     1       0.281  -6.936   0.666  0.00  0.00    -0.202 F 
ATOM     28  F   UNL     1       2.387  -7.862   2.153  0.00  0.00    -0.202 F 
ENDBRANCH  19  21
ENDBRANCH  16  19
ENDBRANCH  15  16
ENDBRANCH   2  15
TORSDOF 6
