REMARK  Name = ZINC39671910
REMARK  6 active torsions:
REMARK  status: ('A' for Active; 'I' for Inactive)
REMARK    1  A    between atoms: C_1  and  O_2
REMARK    2  A    between atoms: O_2  and  C_3
REMARK    3  A    between atoms: C_8  and  C_9
REMARK    4  A    between atoms: C_13  and  C_22
REMARK    5  A    between atoms: N_24  and  C_25
REMARK    6  A    between atoms: C_25  and  C_26
REMARK                            x       y       z     vdW  Elec       q    Type
REMARK                         _______ _______ _______ _____ _____    ______ ____
ROOT
ATOM      1  C   UNL     1       0.226  -2.765  -0.190  0.00  0.00    +0.250 C 
ATOM      2  O   UNL     1      -0.285  -2.195   0.754  0.00  0.00    -0.270 OA
ATOM      3  N   UNL     1       0.128  -4.105  -0.302  0.00  0.00    -0.296 N 
ATOM      4  C   UNL     1       0.767  -4.981  -1.312  0.00  0.00    +0.121 C 
ATOM      5  C   UNL     1       1.195  -6.239  -0.523  0.00  0.00    +0.100 C 
ATOM      6  C   UNL     1       0.264  -6.269   0.701  0.00  0.00    -0.004 C 
ATOM      7  C   UNL     1      -0.639  -5.035   0.561  0.00  0.00    +0.115 C 
ATOM      8  C   UNL     1      -0.575  -7.543   0.695  0.00  0.00    -0.010 C 
ATOM      9  C   UNL     1      -1.450  -7.578   1.952  0.00  0.00    -0.082 C 
ATOM     10  N   UNL     1      -0.597  -7.536   3.146  0.00  0.00    +0.379 N 
ATOM     11  C   UNL     1       0.138  -6.266   3.191  0.00  0.00    -0.082 C 
ATOM     12  C   UNL     1       1.080  -6.176   1.988  0.00  0.00    -0.010 C 
ATOM     13  H   UNL     1      -1.171  -7.621   3.971  0.00  0.00    -0.086 HD
ATOM     14  H   UNL     1       0.059  -8.302   3.116  0.00  0.00    -0.086 HD
ENDROOT
BRANCH   1  20
ATOM     15  C   UNL     1       1.672  -0.844  -0.851  0.00  0.00    +0.132 A 
ATOM     16  C   UNL     1       2.357  -0.127  -1.821  0.00  0.00    +0.046 A 
ATOM     17  C   UNL     1       2.325  -0.539  -3.138  0.00  0.00    +0.004 A 
ATOM     18  C   UNL     1       1.611  -1.669  -3.502  0.00  0.00    +0.001 A 
ATOM     19  C   UNL     1       0.926  -2.394  -2.551  0.00  0.00    +0.017 A 
ATOM     20  C   UNL     1       0.954  -1.991  -1.214  0.00  0.00    +0.078 A 
BRANCH  15  22
ATOM     21  C   UNL     1       2.455   0.739   0.738  0.00  0.00    +0.277 C 
ATOM     22  O   UNL     1       1.702  -0.439   0.443  0.00  0.00    -0.494 OA
ENDBRANCH  15  22
ENDBRANCH   1  20
BRANCH   5  23
ATOM     23  C   UNL     1       1.003  -7.476  -1.362  0.00  0.00    +0.219 C 
ATOM     24  O   UNL     1       0.116  -7.516  -2.188  0.00  0.00    -0.275 OA
ATOM     25  N   UNL     1       1.816  -8.537  -1.194  0.00  0.00    -0.309 N 
ATOM     26  H   UNL     1       2.525  -8.505  -0.532  0.00  0.00    +0.149 HD
BRANCH  25  27
ATOM     27  C   UNL     1       1.629  -9.740  -2.009  0.00  0.00    +0.161 C 
BRANCH  27  28
ATOM     28  C   UNL     1       2.660 -10.771  -1.628  0.00  0.00    +0.077 A 
ATOM     29  C   UNL     1       2.478 -11.777  -0.745  0.00  0.00    +0.117 A 
ATOM     30  N   UNL     1       3.651 -12.481  -0.688  0.00  0.00    -0.306 N 
ATOM     31  C   UNL     1       4.034 -13.580   0.025  0.00  0.00    +0.092 A 
ATOM     32  C   UNL     1       5.278 -14.085  -0.107  0.00  0.00    +0.018 A 
ATOM     33  C   UNL     1       6.198 -13.484  -0.982  0.00  0.00    +0.005 A 
ATOM     34  C   UNL     1       5.829 -12.388  -1.699  0.00  0.00    +0.047 A 
ATOM     35  C   UNL     1       4.526 -11.873  -1.550  0.00  0.00    +0.138 A 
ATOM     36  N   UNL     1       3.903 -10.845  -2.110  0.00  0.00    -0.231 NA
ENDBRANCH  27  28
ENDBRANCH  25  27
ENDBRANCH   5  23
TORSDOF 5
