REMARK  Name = ZINC45294048
REMARK  5 active torsions:
REMARK  status: ('A' for Active; 'I' for Inactive)
REMARK    1  A    between atoms: C_1  and  C_2
REMARK    2  A    between atoms: C_2  and  C_4
REMARK    3  A    between atoms: C_2  and  N_19
REMARK    4  A    between atoms: N_6  and  C_7
REMARK    5  A    between atoms: N_6  and  C_8
REMARK                            x       y       z     vdW  Elec       q    Type
REMARK                         _______ _______ _______ _____ _____    ______ ____
ROOT
ATOM      1  C   UNL     1       0.731  -0.503   1.223  0.00  0.00    +0.236 C 
ATOM      2  O   UNL     1       0.159  -1.213   2.023  0.00  0.00    -0.274 OA
ATOM      3  N   UNL     1       2.019  -0.161   1.426  0.00  0.00    -0.296 N 
ATOM      4  C   UNL     1       2.710   0.696   0.459  0.00  0.00    +0.132 C 
ENDROOT
BRANCH   3   5
ATOM      5  C   UNL     1       2.727  -0.647   2.613  0.00  0.00    +0.106 C 
ATOM      6  C   UNL     1       3.185   0.547   3.449  0.00  0.00    +0.027 C 
ATOM      7  C   UNL     1       4.106   0.032   4.562  0.00  0.00    +0.007 C 
ATOM      8  C   UNL     1       5.414  -0.435   3.927  0.00  0.00    +0.035 C 
ATOM      9  C   UNL     1       5.141  -1.381   2.788  0.00  0.00    -0.042 A 
ATOM     10  C   UNL     1       3.909  -1.475   2.181  0.00  0.00    -0.024 A 
ATOM     11  C   UNL     1       3.727  -2.364   1.130  0.00  0.00    +0.006 A 
ATOM     12  C   UNL     1       4.769  -3.155   0.692  0.00  0.00    +0.000 A 
ATOM     13  C   UNL     1       6.005  -3.062   1.303  0.00  0.00    +0.000 A 
ATOM     14  C   UNL     1       6.188  -2.180   2.346  0.00  0.00    +0.004 A 
ENDBRANCH   3   5
BRANCH   1  16
ATOM     15  C   UNL     1      -0.019   1.526   0.010  0.00  0.00    +0.038 C 
ATOM     16  C   UNL     1       0.002  -0.004   0.002  0.00  0.00    +0.157 C 
BRANCH  16  17
ATOM     17  N   UNL     1      -1.372  -0.511   0.012  0.00  0.00    -0.289 N 
ATOM     18  C   UNL     1      -2.051  -0.643  -1.145  0.00  0.00    +0.298 C 
ATOM     19  O   UNL     1      -1.522  -0.341  -2.197  0.00  0.00    -0.253 OA
ATOM     20  N   UNL     1      -3.315  -1.109  -1.135  0.00  0.00    -0.313 N 
ATOM     21  H   UNL     1      -1.794  -0.752   0.852  0.00  0.00    +0.151 HD
ATOM     22  H   UNL     1      -3.737  -1.350  -0.295  0.00  0.00    +0.146 HD
ATOM     23  H   UNL     1      -3.804  -1.204  -1.968  0.00  0.00    +0.146 HD
ENDBRANCH  16  17
ENDBRANCH   1  16
TORSDOF 3
