REMARK  Name = ZINC41638655
REMARK  12 active torsions:
REMARK  status: ('A' for Active; 'I' for Inactive)
REMARK    1  A    between atoms: C_1  and  C_2
REMARK    2  A    between atoms: C_2  and  N_3
REMARK    3  A    between atoms: N_3  and  C_4
REMARK    4  A    between atoms: C_4  and  C_5
REMARK    5  A    between atoms: C_9  and  N_11
REMARK    6  A    between atoms: C_12  and  C_14
REMARK    7  A    between atoms: N_16  and  C_17
REMARK    8  A    between atoms: C_17  and  C_18
REMARK    9  A    between atoms: C_23  and  N_24
REMARK   10  A    between atoms: N_24  and  C_25
REMARK   11  A    between atoms: N_24  and  C_26
REMARK   12  A    between atoms: C_27  and  C_29
REMARK                            x       y       z     vdW  Elec       q    Type
REMARK                         _______ _______ _______ _____ _____    ______ ____
ROOT
ATOM      1  N   UNL     1       2.425  -4.838  -2.200  0.00  0.00    -0.278 N 
ATOM      2  C   UNL     1       2.607  -6.095  -1.750  0.00  0.00    +0.303 C 
ATOM      3  O   UNL     1       2.639  -6.314  -0.556  0.00  0.00    -0.265 OA
ATOM      4  H   UNL     1       2.472  -4.652  -3.151  0.00  0.00    +0.155 HD
ENDROOT
BRANCH   1   9
ATOM      5  C   UNL     1       1.061  -1.747  -0.754  0.00  0.00    -0.028 A 
ATOM      6  C   UNL     1       1.665  -1.751   0.490  0.00  0.00    +0.005 A 
ATOM      7  C   UNL     1       2.521  -2.779   0.843  0.00  0.00    +0.002 A 
ATOM      8  C   UNL     1       2.775  -3.804  -0.047  0.00  0.00    +0.023 A 
ATOM      9  C   UNL     1       2.170  -3.803  -1.297  0.00  0.00    +0.034 A 
ATOM     10  C   UNL     1       1.306  -2.771  -1.646  0.00  0.00    +0.028 A 
BRANCH   5  11
ATOM     11  C   UNL     1       0.129  -0.625  -1.133  0.00  0.00    +0.142 C 
BRANCH  11  12
ATOM     12  N   UNL     1      -1.238  -0.970  -0.736  0.00  0.00    -0.298 N 
ATOM     13  C   UNL     1      -2.043  -1.628  -1.593  0.00  0.00    +0.213 C 
ATOM     14  O   UNL     1      -1.609  -2.015  -2.657  0.00  0.00    -0.276 OA
ATOM     15  C   UNL     1      -3.484  -1.882  -1.229  0.00  0.00    +0.109 C 
BRANCH  12  17
ATOM     16  C   UNL     1      -2.304   0.817   0.549  0.00  0.00    +0.024 C 
ATOM     17  C   UNL     1      -1.729  -0.600   0.594  0.00  0.00    +0.105 C 
ENDBRANCH  12  17
ENDBRANCH  11  12
ENDBRANCH   5  11
ENDBRANCH   1   9
BRANCH   2  18
ATOM     18  C   UNL     1       2.769  -7.220  -2.719  0.00  0.00    +0.300 C 
ATOM     19  O   UNL     1       2.737  -7.001  -3.912  0.00  0.00    -0.265 OA
ATOM     20  N   UNL     1       2.951  -8.477  -2.269  0.00  0.00    -0.303 N 
ATOM     21  H   UNL     1       2.976  -8.651  -1.315  0.00  0.00    +0.149 HD
BRANCH  20  22
ATOM     22  C   UNL     1       3.110  -9.580  -3.220  0.00  0.00    +0.143 C 
BRANCH  22  23
ATOM     23  C   UNL     1       3.296 -10.871  -2.465  0.00  0.00    +0.008 A 
ATOM     24  C   UNL     1       4.559 -11.411  -2.302  0.00  0.00    +0.010 A 
ATOM     25  C   UNL     1       4.685 -12.602  -1.600  0.00  0.00    +0.018 A 
ATOM     26  C   UNL     1       3.554 -13.208  -1.089  0.00  0.00    +0.084 A 
ATOM     27  N   UNL     1       2.362 -12.670  -1.260  0.00  0.00    -0.349 N 
ATOM     28  C   UNL     1       2.202 -11.532  -1.919  0.00  0.00    +0.103 A 
ATOM     29  H   UNL     1       1.584 -13.117  -0.891  0.00  0.00    +0.167 HD
BRANCH  28  30
ATOM     30  N   UNL     1       0.927 -10.998  -2.070  0.00  0.00    -0.323 N 
ATOM     31  C   UNL     1       0.074 -11.441  -3.175  0.00  0.00    +0.130 C 
ATOM     32  C   UNL     1       0.439  -9.990  -1.125  0.00  0.00    +0.130 C 
ENDBRANCH  28  30
ENDBRANCH  22  23
ENDBRANCH  20  22
ENDBRANCH   2  18
TORSDOF 8
