REMARK  Name = ZINC39652616
REMARK  9 active torsions:
REMARK  status: ('A' for Active; 'I' for Inactive)
REMARK    1  A    between atoms: C_1  and  C_2
REMARK    2  A    between atoms: C_2  and  O_3
REMARK    3  A    between atoms: O_3  and  C_4
REMARK    4  A    between atoms: C_9  and  C_10
REMARK    5  A    between atoms: C_10  and  C_11
REMARK    6  A    between atoms: C_11  and  N_12
REMARK    7  A    between atoms: C_13  and  C_15
REMARK    8  A    between atoms: C_26  and  C_28
REMARK    9  A    between atoms: C_34  and  C_36
REMARK                            x       y       z     vdW  Elec       q    Type
REMARK                         _______ _______ _______ _____ _____    ______ ____
ROOT
ATOM      1  C   UNL     1       5.772   1.369  -4.949  0.00  0.00    +0.100 C 
ATOM      2  C   UNL     1       6.037   0.608  -6.267  0.00  0.00    +0.121 C 
ATOM      3  N   UNL     1       7.297   1.188  -6.788  0.00  0.00    -0.299 N 
ATOM      4  C   UNL     1       8.137   1.387  -5.583  0.00  0.00    +0.115 C 
ATOM      5  C   UNL     1       7.153   1.879  -4.503  0.00  0.00    -0.004 C 
ATOM      6  C   UNL     1       7.522   1.287  -3.146  0.00  0.00    -0.010 C 
ATOM      7  C   UNL     1       8.871   1.853  -2.697  0.00  0.00    -0.082 C 
ATOM      8  N   UNL     1       8.785   3.316  -2.608  0.00  0.00    +0.379 N 
ATOM      9  C   UNL     1       8.523   3.883  -3.936  0.00  0.00    -0.082 C 
ATOM     10  C   UNL     1       7.158   3.403  -4.438  0.00  0.00    -0.010 C 
ATOM     11  C   UNL     1       7.609   1.472  -8.069  0.00  0.00    +0.236 C 
ATOM     12  O   UNL     1       8.691   1.948  -8.338  0.00  0.00    -0.274 OA
ATOM     13  H   UNL     1       8.037   3.570  -1.981  0.00  0.00    -0.086 HD
ATOM     14  H   UNL     1       9.656   3.682  -2.254  0.00  0.00    -0.086 HD
ENDROOT
BRANCH  11  15
ATOM     15  C   UNL     1       6.612   1.196  -9.165  0.00  0.00    +0.162 C 
ATOM     16  C   UNL     1       6.646  -0.300  -9.542  0.00  0.00    +0.033 C 
ATOM     17  C   UNL     1       6.471  -0.275 -11.083  0.00  0.00    +0.021 C 
ATOM     18  C   UNL     1       7.251   1.009 -11.464  0.00  0.00    +0.109 C 
ATOM     19  N   UNL     1       6.970   1.961 -10.369  0.00  0.00    -0.283 N 
ATOM     20  C   UNL     1       7.030   3.304 -10.457  0.00  0.00    +0.320 C 
ATOM     21  O   UNL     1       6.777   3.987  -9.488  0.00  0.00    -0.266 OA
BRANCH  20  22
ATOM     22  C   UNL     1       7.412   3.958 -11.761  0.00  0.00    +0.470 C 
ATOM     23  F   UNL     1       7.406   5.348 -11.605  0.00  0.00    -0.162 F 
ATOM     24  F   UNL     1       8.693   3.536 -12.135  0.00  0.00    -0.162 F 
ATOM     25  F   UNL     1       6.494   3.595 -12.751  0.00  0.00    -0.162 F 
ENDBRANCH  20  22
ENDBRANCH  11  15
BRANCH   1  27
ATOM     26  N   UNL     1       4.382   0.922  -2.953  0.00  0.00    -0.315 N 
ATOM     27  C   UNL     1       5.196   0.439  -3.913  0.00  0.00    +0.218 C 
ATOM     28  O   UNL     1       5.465  -0.743  -3.942  0.00  0.00    -0.275 OA
ATOM     29  H   UNL     1       4.167   1.867  -2.929  0.00  0.00    +0.149 HD
BRANCH  26  30
ATOM     30  C   UNL     1       3.822   0.018  -1.945  0.00  0.00    +0.109 C 
BRANCH  30  31
ATOM     31  C   UNL     1       2.940   0.813  -0.981  0.00  0.00    +0.057 C 
BRANCH  31  37
ATOM     32  C   UNL     1       3.095  -0.428   1.192  0.00  0.00    +0.124 A 
ATOM     33  C   UNL     1       2.559  -1.281   2.147  0.00  0.00    +0.046 A 
ATOM     34  C   UNL     1       1.302  -1.821   1.962  0.00  0.00    +0.004 A 
ATOM     35  C   UNL     1       0.577  -1.513   0.825  0.00  0.00    +0.000 A 
ATOM     36  C   UNL     1       1.108  -0.665  -0.128  0.00  0.00    +0.007 A 
ATOM     37  C   UNL     1       2.363  -0.117   0.056  0.00  0.00    -0.004 A 
BRANCH  32  38
ATOM     38  O   UNL     1       4.332   0.105   1.373  0.00  0.00    -0.492 OA
BRANCH  38  40
ATOM     39  C   UNL     1       6.391   0.433   2.594  0.00  0.00    +0.048 C 
ATOM     40  C   UNL     1       5.027  -0.260   2.567  0.00  0.00    +0.225 C 
ENDBRANCH  38  40
ENDBRANCH  32  38
ENDBRANCH  31  37
ENDBRANCH  30  31
ENDBRANCH  26  30
ENDBRANCH   1  27
TORSDOF 8
