REMARK  Name = ZINC61916199
REMARK  6 active torsions:
REMARK  status: ('A' for Active; 'I' for Inactive)
REMARK    1  A    between atoms: C_1  and  C_2
REMARK    2  A    between atoms: C_4  and  N_21
REMARK    3  A    between atoms: C_6  and  S_9
REMARK    4  A    between atoms: C_7  and  C_8
REMARK    5  A    between atoms: S_9  and  N_12
REMARK    6  A    between atoms: C_17  and  C_20
REMARK                            x       y       z     vdW  Elec       q    Type
REMARK                         _______ _______ _______ _____ _____    ______ ____
ROOT
ATOM      1  C   UNL     1       1.438  -1.492  -2.105  0.00  0.00    +0.044 C 
ATOM      2  C   UNL     1       0.591  -1.267  -0.879  0.00  0.00    -0.044 A 
ATOM      3  C   UNL     1      -0.307  -0.218  -0.844  0.00  0.00    +0.026 A 
ATOM      4  C   UNL     1      -1.088  -0.012   0.286  0.00  0.00    +0.027 A 
ATOM      5  C   UNL     1      -0.963  -0.863   1.378  0.00  0.00    +0.051 A 
ATOM      6  C   UNL     1      -0.063  -1.909   1.336  0.00  0.00    +0.110 A 
ATOM      7  C   UNL     1       0.709  -2.115   0.207  0.00  0.00    -0.021 A 
ATOM      8  C   UNL     1       1.685  -3.262   0.163  0.00  0.00    +0.046 C 
ENDROOT
BRANCH   6   9
ATOM      9  S   UNL     1       0.097  -2.988   2.720  0.00  0.00    +0.061 S 
ATOM     10  O   UNL     1      -0.867  -2.567   3.676  0.00  0.00    -0.153 OA
ATOM     11  O   UNL     1       0.128  -4.311   2.202  0.00  0.00    -0.153 OA
BRANCH   9  12
ATOM     12  N   UNL     1       1.584  -2.707   3.391  0.00  0.00    -0.174 NA
ATOM     13  C   UNL     1       2.722  -3.545   2.970  0.00  0.00    +0.112 C 
ATOM     14  C   UNL     1       3.989  -2.699   2.778  0.00  0.00    +0.045 C 
ATOM     15  C   UNL     1       3.627  -1.384   2.118  0.00  0.00    +0.161 C 
ATOM     16  O   UNL     1       3.360  -0.422   3.131  0.00  0.00    -0.375 OA
ATOM     17  C   UNL     1       2.087  -0.323   3.654  0.00  0.00    +0.131 C 
ATOM     18  C   UNL     1       1.720  -1.641   4.366  0.00  0.00    +0.140 C 
ATOM     19  C   UNL     1       2.036   0.832   4.657  0.00  0.00    +0.039 C 
ENDBRANCH   9  12
ENDBRANCH   6   9
BRANCH   4  20
ATOM     20  N   UNL     1      -1.996   1.048   0.325  0.00  0.00    -0.358 N 
ATOM     21  H   UNL     1      -2.083   1.641  -0.437  0.00  0.00    +0.142 HD
ATOM     22  H   UNL     1      -2.541   1.191   1.115  0.00  0.00    +0.142 HD
ENDBRANCH   4  20
TORSDOF 3
