REMARK  Name = ZINC34790737
REMARK  9 active torsions:
REMARK  status: ('A' for Active; 'I' for Inactive)
REMARK    1  A    between atoms: C_1  and  C_2
REMARK    2  A    between atoms: C_2  and  N_3
REMARK    3  A    between atoms: N_6  and  C_9
REMARK    4  A    between atoms: C_9  and  C_10
REMARK    5  A    between atoms: C_21  and  O_32
REMARK    6  A    between atoms: C_22  and  O_30
REMARK    7  A    between atoms: C_25  and  C_27
REMARK    8  A    between atoms: O_30  and  C_31
REMARK    9  A    between atoms: O_32  and  C_33
REMARK                            x       y       z     vdW  Elec       q    Type
REMARK                         _______ _______ _______ _____ _____    ______ ____
ROOT
ATOM      1  C   UNL     1      -4.799  -4.141  -1.214  0.00  0.00    +0.231 C 
ATOM      2  O   UNL     1      -3.728  -4.708  -1.254  0.00  0.00    -0.274 OA
ATOM      3  N   UNL     1      -5.941  -4.854  -1.261  0.00  0.00    -0.284 N 
ATOM      4  C   UNL     1      -5.923  -6.324  -1.355  0.00  0.00    +0.120 C 
ATOM      5  C   UNL     1      -6.561  -6.883  -0.086  0.00  0.00    +0.012 C 
ATOM      6  C   UNL     1      -6.829  -8.390  -0.263  0.00  0.00    +0.013 C 
ATOM      7  C   UNL     1      -5.590  -9.072   0.370  0.00  0.00    +0.001 C 
ATOM      8  C   UNL     1      -5.291  -8.171   1.594  0.00  0.00    +0.001 C 
ATOM      9  C   UNL     1      -5.584  -6.742   1.093  0.00  0.00    +0.013 C 
ATOM     10  C   UNL     1      -7.850  -6.176   0.236  0.00  0.00    -0.031 A 
ATOM     11  C   UNL     1      -8.745  -6.819   1.083  0.00  0.00    +0.054 A 
ATOM     12  C   UNL     1      -9.942  -6.220   1.427  0.00  0.00    +0.162 A 
ATOM     13  C   UNL     1     -10.253  -4.961   0.922  0.00  0.00    +0.162 A 
ATOM     14  C   UNL     1      -9.363  -4.326   0.076  0.00  0.00    +0.055 A 
ATOM     15  C   UNL     1      -8.164  -4.934  -0.272  0.00  0.00    -0.011 A 
ATOM     16  C   UNL     1      -7.252  -4.198  -1.215  0.00  0.00    +0.192 C 
ENDROOT
BRANCH  16  17
ATOM     17  C   UNL     1      -7.861  -4.197  -2.593  0.00  0.00    +0.236 C 
ATOM     18  O   UNL     1      -7.260  -4.694  -3.522  0.00  0.00    -0.274 OA
ATOM     19  N   UNL     1      -9.073  -3.643  -2.794  0.00  0.00    -0.328 N 
ATOM     20  H   UNL     1      -9.553  -3.245  -2.052  0.00  0.00    +0.145 HD
ATOM     21  H   UNL     1      -9.464  -3.642  -3.682  0.00  0.00    +0.145 HD
ENDBRANCH  16  17
BRANCH  13  22
ATOM     22  O   UNL     1     -11.426  -4.359   1.258  0.00  0.00    -0.491 OA
ATOM     23  C   UNL     1     -11.675  -3.068   0.701  0.00  0.00    +0.277 C 
ENDBRANCH  13  22
BRANCH  12  24
ATOM     24  O   UNL     1     -10.812  -6.858   2.256  0.00  0.00    -0.491 OA
ATOM     25  C   UNL     1     -10.424  -8.148   2.734  0.00  0.00    +0.277 C 
ENDBRANCH  12  24
BRANCH   1  26
ATOM     26  C   UNL     1      -4.853  -2.639  -1.111  0.00  0.00    +0.180 C 
BRANCH  26  30
ATOM     27  N   UNL     1      -1.376  -0.512   0.012  0.00  0.00    +0.381 N 
ATOM     28  C   UNL     1      -2.050  -0.124  -1.234  0.00  0.00    -0.063 C 
ATOM     29  C   UNL     1      -3.492  -0.638  -1.215  0.00  0.00    +0.066 C 
ATOM     30  N   UNL     1      -3.486  -2.101  -1.076  0.00  0.00    -0.298 NA
ATOM     31  C   UNL     1      -2.792  -2.506   0.155  0.00  0.00    +0.066 C 
ATOM     32  C   UNL     1      -1.357  -1.977   0.125  0.00  0.00    -0.063 C 
ATOM     33  H   UNL     1      -1.873  -0.121   0.799  0.00  0.00    -0.082 HD
BRANCH  27  35
ATOM     34  C   UNL     1      -0.019   1.526   0.010  0.00  0.00    -0.017 C 
ATOM     35  C   UNL     1       0.002  -0.004   0.002  0.00  0.00    -0.082 C 
ENDBRANCH  27  35
ENDBRANCH  26  30
ENDBRANCH   1  26
TORSDOF 6
