REMARK  Name = ZINC38965615
REMARK  5 active torsions:
REMARK  status: ('A' for Active; 'I' for Inactive)
REMARK    1  A    between atoms: C_1  and  C_2
REMARK    2  A    between atoms: C_4  and  C_8
REMARK    3  A    between atoms: C_12  and  S_24
REMARK    4  A    between atoms: N_14  and  N_15
REMARK    5  A    between atoms: C_16  and  C_17
REMARK                            x       y       z     vdW  Elec       q    Type
REMARK                         _______ _______ _______ _____ _____    ______ ____
ROOT
ATOM      1  C   UNL     1      -0.977  -2.967   1.052  0.00  0.00    +0.206 C 
ATOM      2  N   UNL     1      -2.444  -3.075   1.218  0.00  0.00    -0.231 NA
ATOM      3  N   UNL     1      -2.631  -4.285   2.034  0.00  0.00    -0.225 NA
ATOM      4  C   UNL     1      -1.585  -5.204   1.514  0.00  0.00    +0.231 C 
ATOM      5  N   UNL     1      -0.430  -4.322   1.240  0.00  0.00    -0.207 N 
ATOM      6  H   UNL     1      -2.904  -3.167   0.325  0.00  0.00    +0.143 HD
ATOM      7  H   UNL     1      -3.553  -4.674   1.899  0.00  0.00    +0.143 HD
ENDROOT
BRANCH   1  11
ATOM      8  C   UNL     1      -0.180   1.170  -1.071  0.00  0.00    +0.067 C 
ATOM      9  C   UNL     1      -0.141  -0.311  -0.795  0.00  0.00    +0.058 C 
ATOM     10  C   UNL     1      -1.216  -1.069  -0.569  0.00  0.00    +0.029 C 
ATOM     11  C   UNL     1      -0.644  -2.458  -0.352  0.00  0.00    +0.190 C 
ATOM     12  N   UNL     1       0.805  -2.248  -0.505  0.00  0.00    -0.177 NA
ATOM     13  N   UNL     1       0.988  -1.053  -0.750  0.00  0.00    -0.159 NA
ENDBRANCH   1  11
BRANCH   5  14
ATOM     14  N   UNL     1       0.917  -4.700   1.173  0.00  0.00    -0.188 NA
ATOM     15  C   UNL     1       1.244  -5.953   1.245  0.00  0.00    +0.138 C 
BRANCH  15  16
ATOM     16  C   UNL     1       2.665  -6.342   1.313  0.00  0.00    -0.003 A 
ATOM     17  C   UNL     1       3.662  -5.363   1.306  0.00  0.00    +0.009 A 
ATOM     18  C   UNL     1       4.989  -5.733   1.370  0.00  0.00    +0.003 A 
ATOM     19  C   UNL     1       5.336  -7.070   1.441  0.00  0.00    +0.038 A 
ATOM     20  C   UNL     1       4.354  -8.048   1.448  0.00  0.00    +0.124 A 
ATOM     21  C   UNL     1       3.020  -7.691   1.390  0.00  0.00    +0.047 A 
ATOM     22  F   UNL     1       4.701  -9.351   1.518  0.00  0.00    -0.205 F 
ENDBRANCH  15  16
ENDBRANCH   5  14
BRANCH   4  23
ATOM     23  S   UNL     1      -1.155  -6.448   2.762  0.00  0.00    -0.138 S 
ATOM     24  H   UNL     1      -2.305  -7.114   2.967  0.00  0.00    +0.105 HD
ENDBRANCH   4  23
TORSDOF 4
