REMARK  Name = ZINC52839892
REMARK  7 active torsions:
REMARK  status: ('A' for Active; 'I' for Inactive)
REMARK    1  A    between atoms: C_1  and  C_2
REMARK    2  A    between atoms: C_2  and  C_3
REMARK    3  A    between atoms: C_2  and  C_4
REMARK    4  A    between atoms: C_6  and  C_11
REMARK    5  A    between atoms: C_7  and  N_10
REMARK    6  A    between atoms: N_8  and  N_9
REMARK    7  A    between atoms: N_20  and  C_21
REMARK                            x       y       z     vdW  Elec       q    Type
REMARK                         _______ _______ _______ _____ _____    ______ ____
ROOT
ATOM      1  C   UNL     1       1.819  -0.422  -1.087  0.00  0.00    +0.109 A 
ATOM      2  N   UNL     1       1.563   0.109  -2.249  0.00  0.00    -0.340 N 
ATOM      3  C   UNL     1       2.269  -0.536  -3.201  0.00  0.00    +0.088 A 
ATOM      4  C   UNL     1       2.998  -1.517  -2.587  0.00  0.00    +0.139 A 
ATOM      5  N   UNL     1       2.714  -1.437  -1.251  0.00  0.00    -0.240 N 
ATOM      6  H   UNL     1       0.959   0.852  -2.405  0.00  0.00    +0.167 HD
ENDROOT
BRANCH   3   7
ATOM      7  C   UNL     1       2.256  -0.236  -4.652  0.00  0.00    +0.002 A 
ATOM      8  C   UNL     1       2.156  -1.273  -5.580  0.00  0.00    +0.012 A 
ATOM      9  C   UNL     1       2.146  -0.987  -6.928  0.00  0.00    +0.024 A 
ATOM     10  C   UNL     1       2.234   0.331  -7.364  0.00  0.00    +0.033 A 
ATOM     11  C   UNL     1       2.331   1.366  -6.446  0.00  0.00    -0.026 A 
ATOM     12  C   UNL     1       2.338   1.083  -5.093  0.00  0.00    +0.015 A 
ATOM     13  C   UNL     1       2.417   2.804  -6.888  0.00  0.00    +0.038 C 
ATOM     14  C   UNL     1       2.890   2.891  -8.338  0.00  0.00    +0.024 C 
ATOM     15  C   UNL     1       2.017   1.971  -9.201  0.00  0.00    +0.105 C 
ATOM     16  N   UNL     1       2.227   0.592  -8.741  0.00  0.00    -0.333 N 
ATOM     17  C   UNL     1       2.424  -0.493  -9.706  0.00  0.00    +0.129 C 
ENDBRANCH   3   7
BRANCH   1  19
ATOM     18  C   UNL     1       1.029   1.536   0.213  0.00  0.00    +0.015 C 
ATOM     19  C   UNL     1       1.227   0.019   0.227  0.00  0.00    +0.049 C 
ATOM     20  C   UNL     1      -0.123  -0.670   0.434  0.00  0.00    +0.015 C 
ENDBRANCH   1  19
BRANCH   5  21
ATOM     21  N   UNL     1       3.229  -2.229  -0.265  0.00  0.00    -0.295 N 
ATOM     22  H   UNL     1       2.655  -3.046  -0.120  0.00  0.00    +0.163 HD
ATOM     23  H   UNL     1       4.182  -2.488  -0.470  0.00  0.00    +0.163 HD
ENDBRANCH   5  21
BRANCH   4  24
ATOM     24  N   UNL     1       3.863  -2.418  -3.201  0.00  0.00    -0.342 N 
ATOM     25  H   UNL     1       3.995  -2.385  -4.162  0.00  0.00    +0.144 HD
ATOM     26  H   UNL     1       4.333  -3.078  -2.669  0.00  0.00    +0.144 HD
ENDBRANCH   4  24
TORSDOF 4
