REMARK  Name = ZINC51734166
REMARK  7 active torsions:
REMARK  status: ('A' for Active; 'I' for Inactive)
REMARK    1  A    between atoms: C_1  and  C_2
REMARK    2  A    between atoms: C_2  and  C_3
REMARK    3  A    between atoms: C_3  and  C_5
REMARK    4  A    between atoms: C_3  and  C_8
REMARK    5  A    between atoms: C_5  and  N_7
REMARK    6  A    between atoms: C_13  and  C_19
REMARK    7  A    between atoms: C_16  and  C_18
REMARK                            x       y       z     vdW  Elec       q    Type
REMARK                         _______ _______ _______ _____ _____    ______ ____
ROOT
ATOM      1  C   UNL     1      -1.451  -2.044   0.504  0.00  0.00    +0.225 C 
ATOM      2  O   UNL     1      -0.389  -2.627   0.553  0.00  0.00    -0.275 OA
ATOM      3  N   UNL     1      -2.597  -2.741   0.371  0.00  0.00    -0.298 N 
ATOM      4  C   UNL     1      -3.898  -2.060   0.429  0.00  0.00    +0.108 C 
ATOM      5  C   UNL     1      -4.768  -2.749   1.485  0.00  0.00    +0.022 C 
ATOM      6  C   UNL     1      -4.854  -4.245   1.172  0.00  0.00    -0.011 C 
ATOM      7  C   UNL     1      -3.454  -4.860   1.224  0.00  0.00    +0.025 C 
ATOM      8  C   UNL     1      -2.569  -4.194   0.159  0.00  0.00    +0.073 C 
ATOM      9  C   UNL     1      -1.132  -4.704   0.292  0.00  0.00    +0.028 C 
ATOM     10  C   UNL     1      -5.751  -4.931   2.205  0.00  0.00    +0.007 C 
ENDROOT
BRANCH   1  11
ATOM     11  C   UNL     1      -1.490  -0.540   0.591  0.00  0.00    +0.126 C 
BRANCH  11  13
ATOM     12  C   UNL     1      -0.112   1.514   0.950  0.00  0.00    +0.005 C 
ATOM     13  C   UNL     1      -0.065  -0.001   0.736  0.00  0.00    +0.016 C 
ENDBRANCH  11  13
BRANCH  11  14
ATOM     14  C   UNL     1      -2.113   0.020  -0.662  0.00  0.00    +0.058 C 
ATOM     15  S   UNL     1      -3.444   0.902  -0.567  0.00  0.00    -0.040 S 
BRANCH  14  16
ATOM     16  N   UNL     1      -1.549  -0.222  -1.862  0.00  0.00    -0.355 N 
ATOM     17  H   UNL     1      -0.742  -0.757  -1.919  0.00  0.00    +0.143 HD
ATOM     18  H   UNL     1      -1.950   0.138  -2.668  0.00  0.00    +0.143 HD
ENDBRANCH  14  16
ENDBRANCH  11  14
ENDBRANCH   1  11
TORSDOF 4
