REMARK  Name = ZINC50310047
REMARK  6 active torsions:
REMARK  status: ('A' for Active; 'I' for Inactive)
REMARK    1  A    between atoms: C_1  and  C_2
REMARK    2  A    between atoms: C_2  and  C_3
REMARK    3  A    between atoms: C_2  and  C_4
REMARK    4  A    between atoms: C_5  and  N_23
REMARK    5  A    between atoms: C_6  and  C_10
REMARK    6  A    between atoms: C_16  and  C_19
REMARK                            x       y       z     vdW  Elec       q    Type
REMARK                         _______ _______ _______ _____ _____    ______ ____
ROOT
ATOM      1  C   UNL     1       0.726  -0.476   1.239  0.00  0.00    +0.060 A 
ATOM      2  C   UNL     1       0.189  -1.158   2.286  0.00  0.00    +0.078 A 
ATOM      3  C   UNL     1       1.291  -1.533   3.097  0.00  0.00    +0.168 A 
ATOM      4  N   UNL     1       2.379  -1.071   2.510  0.00  0.00    -0.167 NA
ATOM      5  N   UNL     1       2.072  -0.457   1.424  0.00  0.00    -0.279 N 
ATOM      6  H   UNL     1       2.709  -0.039   0.824  0.00  0.00    +0.189 HD
ENDROOT
BRANCH   3   7
ATOM      7  C   UNL     1       1.232  -2.294   4.359  0.00  0.00    +0.269 C 
ATOM      8  O   UNL     1       0.176  -2.763   4.737  0.00  0.00    -0.268 OA
ATOM      9  N   UNL     1       2.349  -2.470   5.093  0.00  0.00    -0.296 N 
ATOM     10  C   UNL     1       2.342  -3.356   6.265  0.00  0.00    +0.108 C 
ATOM     11  C   UNL     1       2.867  -2.577   7.475  0.00  0.00    +0.020 C 
ATOM     12  C   UNL     1       4.239  -1.986   7.140  0.00  0.00    +0.015 C 
ATOM     13  C   UNL     1       4.107  -1.018   5.963  0.00  0.00    +0.110 C 
ATOM     14  C   UNL     1       3.597  -1.784   4.732  0.00  0.00    +0.120 C 
BRANCH  13  15
ATOM     15  C   UNL     1       5.473  -0.403   5.651  0.00  0.00    +0.394 C 
ATOM     16  F   UNL     1       6.376  -1.419   5.320  0.00  0.00    -0.170 F 
ATOM     17  F   UNL     1       5.351   0.482   4.574  0.00  0.00    -0.170 F 
ATOM     18  F   UNL     1       5.939   0.289   6.773  0.00  0.00    -0.170 F 
ENDBRANCH  13  15
ENDBRANCH   3   7
BRANCH   1  20
ATOM     19  C   UNL     1       0.234   1.643   0.050  0.00  0.00    +0.014 C 
ATOM     20  C   UNL     1      -0.029   0.137   0.088  0.00  0.00    +0.033 C 
ATOM     21  C   UNL     1       0.441  -0.496  -1.224  0.00  0.00    +0.014 C 
ENDBRANCH   1  20
BRANCH   2  22
ATOM     22  N   UNL     1      -1.167  -1.432   2.515  0.00  0.00    -0.355 N 
ATOM     23  H   UNL     1      -1.837  -1.123   1.887  0.00  0.00    +0.142 HD
ATOM     24  H   UNL     1      -1.434  -1.931   3.303  0.00  0.00    +0.142 HD
ENDBRANCH   2  22
TORSDOF 4
