REMARK  Name = ZINC49564533
REMARK  5 active torsions:
REMARK  status: ('A' for Active; 'I' for Inactive)
REMARK    1  A    between atoms: C_1  and  O_2
REMARK    2  A    between atoms: O_2  and  C_3
REMARK    3  A    between atoms: C_8  and  N_9
REMARK    4  A    between atoms: N_9  and  C_10
REMARK    5  A    between atoms: C_15  and  N_16
REMARK                            x       y       z     vdW  Elec       q    Type
REMARK                         _______ _______ _______ _____ _____    ______ ____
ROOT
ATOM      1  N   UNL     1       0.096  -2.777  -0.114  0.00  0.00    -0.308 N 
ATOM      2  H   UNL     1      -0.009  -2.393   0.770  0.00  0.00    +0.152 HD
ENDROOT
BRANCH   1   8
ATOM      3  C   UNL     1       0.780  -0.728  -1.204  0.00  0.00    +0.141 A 
ATOM      4  C   UNL     1       1.546  -0.075  -2.156  0.00  0.00    +0.048 A 
ATOM      5  C   UNL     1       2.386  -0.798  -2.983  0.00  0.00    +0.019 A 
ATOM      6  C   UNL     1       2.465  -2.174  -2.862  0.00  0.00    +0.020 A 
ATOM      7  C   UNL     1       1.704  -2.833  -1.915  0.00  0.00    +0.042 A 
ATOM      8  C   UNL     1       0.863  -2.113  -1.078  0.00  0.00    +0.075 A 
ATOM      9 BR   UNL     1       3.616  -3.156  -3.998  0.00  0.00    -0.050 Br
BRANCH   3  11
ATOM     10  C   UNL     1      -0.080   1.399  -0.576  0.00  0.00    +0.277 C 
ATOM     11  O   UNL     1      -0.046  -0.017  -0.390  0.00  0.00    -0.493 OA
ENDBRANCH   3  11
ENDBRANCH   1   8
BRANCH   1  12
ATOM     12  C   UNL     1      -0.525  -4.006  -0.430  0.00  0.00    +0.089 A 
ATOM     13  C   UNL     1      -0.561  -4.612  -1.691  0.00  0.00    +0.128 A 
ATOM     14  N   UNL     1      -1.224  -5.737  -1.591  0.00  0.00    -0.304 N 
ATOM     15  H   UNL     1      -2.146  -6.637   0.095  0.00  0.00    +0.188 HD
ATOM     16  N   UNL     1      -1.636  -5.893  -0.262  0.00  0.00    -0.286 N 
ATOM     17  C   UNL     1      -1.191  -4.817   0.442  0.00  0.00    +0.131 A 
ATOM     18  H   UNL     1      -1.400  -6.357  -2.316  0.00  0.00    +0.186 HD
BRANCH  17  19
ATOM     19  N   UNL     1      -1.383  -4.584   1.806  0.00  0.00    -0.342 N 
ATOM     20  H   UNL     1      -1.026  -3.781   2.216  0.00  0.00    +0.144 HD
ATOM     21  H   UNL     1      -1.874  -5.226   2.342  0.00  0.00    +0.144 HD
ENDBRANCH  17  19
ENDBRANCH   1  12
TORSDOF 4
