REMARK  Name = ZINC17195964
REMARK  13 active torsions:
REMARK  status: ('A' for Active; 'I' for Inactive)
REMARK    1  A    between atoms: C_1  and  C_2
REMARK    2  A    between atoms: C_3  and  C_4
REMARK    3  A    between atoms: C_3  and  C_5
REMARK    4  A    between atoms: C_5  and  O_7
REMARK    5  A    between atoms: O_7  and  C_8
REMARK    6  A    between atoms: C_10  and  C_35
REMARK    7  A    between atoms: C_12  and  O_34
REMARK    8  A    between atoms: C_17  and  C_18
REMARK    9  A    between atoms: C_17  and  C_19
REMARK   10  A    between atoms: C_21  and  C_32
REMARK   11  A    between atoms: C_23  and  O_31
REMARK   12  A    between atoms: C_27  and  C_30
REMARK   13  A    between atoms: C_32  and  O_33
REMARK                            x       y       z     vdW  Elec       q    Type
REMARK                         _______ _______ _______ _____ _____    ______ ____
ROOT
ATOM      1  C   UNL     1       2.652   0.531   3.871  0.00  0.00    +0.124 C 
ATOM      2  C   UNL     1       1.873   1.741   4.332  0.00  0.00    +0.055 C 
ATOM      3  C   UNL     1       2.041   2.097   5.798  0.00  0.00    +0.023 C 
ATOM      4  C   UNL     1       1.934   0.924   6.766  0.00  0.00    +0.085 C 
ATOM      5  C   UNL     1       2.760  -0.288   6.380  0.00  0.00    +0.052 C 
ATOM      6  C   UNL     1       3.071  -0.491   4.918  0.00  0.00    +0.052 C 
ATOM      7  C   UNL     1       4.129   0.334   4.196  0.00  0.00    +0.012 C 
ATOM      8  C   UNL     1       4.969  -0.410   3.139  0.00  0.00    +0.015 C 
ATOM      9  C   UNL     1       4.898   1.399   4.963  0.00  0.00    +0.015 C 
ATOM     10  C   UNL     1       2.134  -1.565   6.874  0.00  0.00    -0.019 C 
ATOM     11  C   UNL     1       1.601  -1.752   8.038  0.00  0.00    -0.045 C 
ATOM     12  C   UNL     1       1.497  -0.727   9.118  0.00  0.00    +0.076 C 
ATOM     13  C   UNL     1       2.686   0.235   9.124  0.00  0.00    +0.140 C 
ATOM     14  C   UNL     1       2.416   1.387   8.141  0.00  0.00    +0.084 C 
ATOM     15  C   UNL     1       1.462   2.270   8.897  0.00  0.00    -0.011 C 
ATOM     16  C   UNL     1       1.624   2.062  10.208  0.00  0.00    -0.009 C 
ATOM     17  C   UNL     1       2.590   0.996  10.460  0.00  0.00    +0.191 C 
ATOM     18  O   UNL     1       3.189   0.746  11.478  0.00  0.00    -0.289 OA
ATOM     19  C   UNL     1       0.902   2.840  11.278  0.00  0.00    +0.047 C 
ATOM     20  C   UNL     1       0.894   3.091   6.101  0.00  0.00    +0.010 C 
ENDROOT
BRANCH  13  21
ATOM     21  O   UNL     1       3.945  -0.406   8.973  0.00  0.00    -0.380 OA
ATOM     22  H   UNL     1       4.140  -1.056   9.662  0.00  0.00    +0.211 HD
ENDBRANCH  13  21
BRANCH   4  23
ATOM     23  O   UNL     1       0.560   0.535   6.845  0.00  0.00    -0.387 OA
ATOM     24  H   UNL     1      -0.029   1.235   7.160  0.00  0.00    +0.210 HD
ENDBRANCH   4  23
BRANCH   1  25
ATOM     25  O   UNL     1       2.210  -0.013   2.608  0.00  0.00    -0.454 OA
BRANCH  25  26
ATOM     26  C   UNL     1       1.833   0.869   1.661  0.00  0.00    +0.335 C 
ATOM     27  O   UNL     1       1.874   2.062   1.890  0.00  0.00    -0.245 OA
BRANCH  26  30
ATOM     28  C   UNL     1       1.050   2.738  -0.300  0.00  0.00    +0.036 C 
ATOM     29  C   UNL     1       0.999   1.259  -0.584  0.00  0.00    -0.020 C 
ATOM     30  C   UNL     1       1.372   0.389   0.351  0.00  0.00    +0.029 C 
ATOM     31  C   UNL     1       1.321  -1.091   0.066  0.00  0.00    +0.051 C 
ENDBRANCH  26  30
ENDBRANCH  25  26
ENDBRANCH   1  25
BRANCH  11  32
ATOM     32  C   UNL     1       1.050  -3.127   8.333  0.00  0.00    +0.186 C 
BRANCH  32  33
ATOM     33  O   UNL     1       1.248  -3.973   7.198  0.00  0.00    -0.391 OA
ATOM     34  H   UNL     1       0.917  -4.874   7.317  0.00  0.00    +0.210 HD
ENDBRANCH  32  33
ENDBRANCH  11  32
TORSDOF 7
