REMARK  Name = ZINC41014067
REMARK  3 active torsions:
REMARK  status: ('A' for Active; 'I' for Inactive)
REMARK    1  A    between atoms: C_8  and  N_13
REMARK    2  A    between atoms: N_13  and  C_14
REMARK    3  A    between atoms: C_14  and  C_15
REMARK                            x       y       z     vdW  Elec       q    Type
REMARK                         _______ _______ _______ _____ _____    ______ ____
ROOT
ATOM      1  C   UNL     1      -0.017   1.379   0.010  0.00  0.00    +0.017 A 
ATOM      2  C   UNL     1       1.164   2.093   0.002  0.00  0.00    +0.025 A 
ATOM      3  C   UNL     1       2.386   1.423  -0.013  0.00  0.00    +0.039 A 
ATOM      4  C   UNL     1       2.392   0.034  -0.021  0.00  0.00    +0.001 A 
ATOM      5  C   UNL     1       1.213  -0.676  -0.012  0.00  0.00    +0.022 A 
ATOM      6  C   UNL     1       0.002  -0.004   0.002  0.00  0.00    +0.018 A 
ATOM      7 BR   UNL     1      -1.621  -0.975   0.012  0.00  0.00    -0.050 Br
ATOM      8  C   UNL     1       3.844  -0.385  -0.038  0.00  0.00    +0.173 C 
ATOM      9  C   UNL     1       4.605   0.924  -0.038  0.00  0.00    +0.239 C 
ATOM     10  O   UNL     1       5.810   1.057  -0.049  0.00  0.00    -0.273 OA
ATOM     11  N   UNL     1       3.694   1.911  -0.024  0.00  0.00    -0.284 N 
ATOM     12  H   UNL     1       3.919   2.855  -0.022  0.00  0.00    +0.155 HD
ENDROOT
BRANCH   8  13
ATOM     13  N   UNL     1       4.167  -1.170   1.161  0.00  0.00    -0.296 NA
ATOM     14  H   UNL     1       4.338  -0.569   1.952  0.00  0.00    +0.123 HD
BRANCH  13  15
ATOM     15  C   UNL     1       5.312  -2.058   0.916  0.00  0.00    +0.139 C 
BRANCH  15  16
ATOM     16  C   UNL     1       5.613  -2.845   2.165  0.00  0.00    +0.077 A 
ATOM     17  C   UNL     1       5.152  -4.135   2.453  0.00  0.00    +0.045 A 
ATOM     18  C   UNL     1       5.640  -4.490   3.664  0.00  0.00    +0.105 A 
ATOM     19  N   UNL     1       6.382  -3.463   4.126  0.00  0.00    -0.284 N 
ATOM     20  H   UNL     1       6.855  -3.436   4.973  0.00  0.00    +0.188 HD
ATOM     21  N   UNL     1       6.354  -2.444   3.166  0.00  0.00    -0.178 NA
ENDBRANCH  15  16
ENDBRANCH  13  15
ENDBRANCH   8  13
TORSDOF 3
