REMARK  Name = ZINC54710992
REMARK  5 active torsions:
REMARK  status: ('A' for Active; 'I' for Inactive)
REMARK    1  A    between atoms: C_6  and  N_20
REMARK    2  A    between atoms: C_8  and  S_10
REMARK    3  A    between atoms: S_10  and  C_11
REMARK    4  A    between atoms: C_11  and  C_12
REMARK    5  A    between atoms: C_14  and  C_17
REMARK                            x       y       z     vdW  Elec       q    Type
REMARK                         _______ _______ _______ _____ _____    ______ ____
ROOT
ATOM      1  C   UNL     1      -0.018   1.449   0.010  0.00  0.00    +0.021 A 
ATOM      2  C   UNL     1       1.143   2.120   0.003  0.00  0.00    +0.048 A 
ATOM      3  S   UNL     1       2.371   0.827  -0.016  0.00  0.00    -0.077 S 
ATOM      4  C   UNL     1       1.291  -0.580  -0.013  0.00  0.00    +0.114 A 
ATOM      5  C   UNL     1       0.002  -0.004   0.002  0.00  0.00    +0.047 A 
ATOM      6  C   UNL     1      -1.081  -0.927   0.007  0.00  0.00    +0.129 A 
ATOM      7  N   UNL     1      -0.826  -2.224  -0.003  0.00  0.00    -0.207 NA
ATOM      8  C   UNL     1       0.414  -2.700  -0.017  0.00  0.00    +0.191 A 
ATOM      9  N   UNL     1       1.462  -1.887  -0.022  0.00  0.00    -0.215 NA
ENDROOT
BRANCH   6  10
ATOM     10  N   UNL     1      -2.386  -0.471   0.022  0.00  0.00    -0.343 N 
ATOM     11  H   UNL     1      -2.568   0.481   0.030  0.00  0.00    +0.144 HD
ATOM     12  H   UNL     1      -3.121  -1.105   0.026  0.00  0.00    +0.144 HD
ENDBRANCH   6  10
BRANCH   8  13
ATOM     13  S   UNL     1       0.671  -4.443  -0.029  0.00  0.00    -0.076 S 
BRANCH  13  14
ATOM     14  C   UNL     1       2.477  -4.620  -0.048  0.00  0.00    +0.176 C 
BRANCH  14  15
ATOM     15  C   UNL     1       2.838  -6.082  -0.059  0.00  0.00    +0.238 A 
ATOM     16  N   UNL     1       3.017  -6.817  -1.122  0.00  0.00    -0.195 NA
ATOM     17  C   UNL     1       3.327  -8.069  -0.768  0.00  0.00    +0.175 A 
ATOM     18  N   UNL     1       3.350  -8.147   0.532  0.00  0.00    -0.061 NA
ATOM     19  O   UNL     1       3.037  -6.850   1.020  0.00  0.00    -0.337 OA
BRANCH  17  20
ATOM     20  C   UNL     1       3.604  -9.206  -1.718  0.00  0.00    +0.060 C 
ATOM     21  C   UNL     1       3.743 -10.608  -1.121  0.00  0.00    +0.012 C 
ATOM     22  C   UNL     1       4.979  -9.871  -1.641  0.00  0.00    +0.012 C 
ENDBRANCH  17  20
ENDBRANCH  14  15
ENDBRANCH  13  14
ENDBRANCH   8  13
TORSDOF 5
