REMARK  Name = ZINC00108206
REMARK  4 active torsions:
REMARK  status: ('A' for Active; 'I' for Inactive)
REMARK    1  A    between atoms: C_4  and  O_16
REMARK    2  A    between atoms: C_5  and  C_7
REMARK    3  A    between atoms: C_7  and  N_8
REMARK    4  A    between atoms: O_16  and  C_17
REMARK                            x       y       z     vdW  Elec       q    Type
REMARK                         _______ _______ _______ _____ _____    ______ ____
ROOT
ATOM      1  C   UNL     1       1.227  -2.187  -0.022  0.00  0.00    +0.143 C 
ENDROOT
BRANCH   1   2
ATOM      2  N   UNL     1       1.487  -2.679   1.333  0.00  0.00    -0.311 N 
ATOM      3  C   UNL     1       1.551  -4.046   1.575  0.00  0.00    +0.190 A 
ATOM      4  N   UNL     1       1.780  -4.637   2.785  0.00  0.00    -0.300 N 
ATOM      5  H   UNL     1       1.925  -4.177   3.626  0.00  0.00    +0.171 HD
ATOM      6  C   UNL     1       1.767  -5.991   2.602  0.00  0.00    +0.211 A 
ATOM      7  N   UNL     1       1.540  -6.226   1.333  0.00  0.00    -0.137 NA
ATOM      8  N   UNL     1       1.398  -4.993   0.683  0.00  0.00    -0.247 N 
ATOM      9  N   UNL     1       1.961  -6.949   3.588  0.00  0.00    -0.328 N 
ATOM     10  H   UNL     1       1.614  -2.051   2.062  0.00  0.00    +0.149 HD
ATOM     11  H   UNL     1       2.123  -6.676   4.505  0.00  0.00    +0.145 HD
ATOM     12  H   UNL     1       1.934  -7.892   3.361  0.00  0.00    +0.145 HD
ATOM     13  H   UNL     1       1.219  -4.864  -0.261  0.00  0.00    +0.192 HD
ENDBRANCH   1   2
BRANCH   1  18
ATOM     14  C   UNL     1      -0.017   1.378   0.010  0.00  0.00    +0.001 A 
ATOM     15  C   UNL     1       1.170   2.088   0.002  0.00  0.00    +0.004 A 
ATOM     16  C   UNL     1       2.377   1.417  -0.013  0.00  0.00    +0.046 A 
ATOM     17  C   UNL     1       2.399   0.030  -0.021  0.00  0.00    +0.135 A 
ATOM     18  C   UNL     1       1.207  -0.680  -0.013  0.00  0.00    +0.012 A 
ATOM     19  C   UNL     1       0.002  -0.004   0.002  0.00  0.00    +0.009 A 
BRANCH  17  20
ATOM     20  O   UNL     1       3.586  -0.632  -0.037  0.00  0.00    -0.405 OA
BRANCH  20  21
ATOM     21  C   UNL     1       4.772   0.164  -0.045  0.00  0.00    +0.575 C 
ATOM     22  F   UNL     1       4.804   0.965   1.101  0.00  0.00    -0.133 F 
ATOM     23  F   UNL     1       5.894  -0.672  -0.061  0.00  0.00    -0.133 F 
ATOM     24  F   UNL     1       4.781   0.977  -1.183  0.00  0.00    -0.133 F 
ENDBRANCH  20  21
ENDBRANCH  17  20
ENDBRANCH   1  18
TORSDOF 4
