REMARK  Name = ZINC17853568
REMARK  6 active torsions:
REMARK  status: ('A' for Active; 'I' for Inactive)
REMARK    1  A    between atoms: C_1  and  C_2
REMARK    2  A    between atoms: C_2  and  C_4
REMARK    3  A    between atoms: C_2  and  N_14
REMARK    4  A    between atoms: C_7  and  S_10
REMARK    5  A    between atoms: S_10  and  N_13
REMARK    6  A    between atoms: C_15  and  C_17
REMARK                            x       y       z     vdW  Elec       q    Type
REMARK                         _______ _______ _______ _____ _____    ______ ____
ROOT
ATOM      1  C   UNL     1      -3.087   0.941  -1.399  0.00  0.00    +0.033 C 
ATOM      2  C   UNL     1      -2.514   0.980   0.019  0.00  0.00    +0.100 C 
ENDROOT
BRANCH   2   3
ATOM      3  C   UNL     1      -1.219   1.751   0.017  0.00  0.00    -0.027 A 
ATOM      4  C   UNL     1      -0.013   1.076   0.008  0.00  0.00    +0.007 A 
ATOM      5  C   UNL     1       1.175   1.783   0.000  0.00  0.00    +0.029 A 
ATOM      6  C   UNL     1       1.156   3.165   0.008  0.00  0.00    +0.105 A 
ATOM      7  C   UNL     1      -0.050   3.840   0.022  0.00  0.00    +0.029 A 
ATOM      8  C   UNL     1      -1.238   3.133   0.030  0.00  0.00    +0.007 A 
BRANCH   6   9
ATOM      9  S   UNL     1       2.670   4.067  -0.003  0.00  0.00    +0.056 S 
ATOM     10  O   UNL     1       2.387   5.342   0.557  0.00  0.00    -0.153 OA
ATOM     11  O   UNL     1       3.662   3.202   0.534  0.00  0.00    -0.153 OA
BRANCH   9  12
ATOM     12  N   UNL     1       3.075   4.326  -1.587  0.00  0.00    -0.204 NA
ATOM     13  H   UNL     1       2.502   3.992  -2.295  0.00  0.00    +0.144 HD
ATOM     14  H   UNL     1       3.886   4.811  -1.808  0.00  0.00    +0.144 HD
ENDBRANCH   9  12
ENDBRANCH   6   9
ENDBRANCH   2   3
BRANCH   2  15
ATOM     15  N   UNL     1      -3.470   1.634   0.915  0.00  0.00    -0.305 N 
ATOM     16  C   UNL     1      -4.466   0.919   1.476  0.00  0.00    +0.247 C 
ATOM     17  O   UNL     1      -4.571  -0.269   1.238  0.00  0.00    -0.270 OA
ATOM     18  H   UNL     1      -3.387   2.581   1.105  0.00  0.00    +0.150 HD
BRANCH  16  19
ATOM     19  C   UNL     1      -5.431   1.579   2.379  0.00  0.00    +0.072 A 
ATOM     20  C   UNL     1      -5.314   2.943   2.654  0.00  0.00    +0.017 A 
ATOM     21  C   UNL     1      -6.217   3.553   3.498  0.00  0.00    +0.016 A 
ATOM     22  C   UNL     1      -7.240   2.817   4.073  0.00  0.00    +0.021 A 
ATOM     23  C   UNL     1      -7.364   1.465   3.807  0.00  0.00    +0.054 A 
ATOM     24  C   UNL     1      -6.468   0.841   2.958  0.00  0.00    +0.137 A 
ATOM     25  F   UNL     1      -6.593  -0.477   2.692  0.00  0.00    -0.205 F 
ATOM     26 BR   UNL     1      -8.474   3.665   5.229  0.00  0.00    -0.050 Br
ENDBRANCH  16  19
ENDBRANCH   2  15
TORSDOF 5
