REMARK  Name = ZINC50014581
REMARK  5 active torsions:
REMARK  status: ('A' for Active; 'I' for Inactive)
REMARK    1  A    between atoms: C_1  and  C_2
REMARK    2  A    between atoms: C_7  and  C_8
REMARK    3  A    between atoms: N_10  and  C_11
REMARK    4  A    between atoms: N_10  and  C_12
REMARK    5  A    between atoms: C_17  and  N_18
REMARK                            x       y       z     vdW  Elec       q    Type
REMARK                         _______ _______ _______ _____ _____    ______ ____
ROOT
ATOM      1  C   UNL     1       0.129   0.181   2.391  0.00  0.00    +0.251 C 
ATOM      2  O   UNL     1      -0.010   1.388   2.332  0.00  0.00    -0.270 OA
ATOM      3  N   UNL     1       0.323  -0.417   3.582  0.00  0.00    -0.269 N 
ATOM      4  C   UNL     1       0.593  -1.856   3.644  0.00  0.00    +0.138 C 
ENDROOT
BRANCH   1  11
ATOM      5  C   UNL     1      -2.061   0.524   0.531  0.00  0.00    +0.044 C 
ATOM      6  C   UNL     1      -0.965  -0.472   0.250  0.00  0.00    -0.038 A 
ATOM      7  C   UNL     1      -0.996  -1.227  -0.904  0.00  0.00    +0.004 A 
ATOM      8  C   UNL     1       0.009  -2.141  -1.163  0.00  0.00    +0.000 A 
ATOM      9  C   UNL     1       1.051  -2.306  -0.268  0.00  0.00    +0.001 A 
ATOM     10  C   UNL     1       1.094  -1.558   0.890  0.00  0.00    +0.013 A 
ATOM     11  C   UNL     1       0.086  -0.629   1.155  0.00  0.00    +0.040 A 
ENDBRANCH   1  11
BRANCH   3  12
ATOM     12  C   UNL     1       0.267   0.336   4.762  0.00  0.00    +0.057 A 
ATOM     13  C   UNL     1      -0.936   0.488   5.434  0.00  0.00    +0.025 A 
ATOM     14  C   UNL     1      -0.989   1.232   6.598  0.00  0.00    +0.002 A 
ATOM     15  C   UNL     1       0.156   1.825   7.096  0.00  0.00    +0.002 A 
ATOM     16  C   UNL     1       1.360   1.679   6.434  0.00  0.00    +0.024 A 
ATOM     17  C   UNL     1       1.423   0.930   5.268  0.00  0.00    +0.046 A 
BRANCH  17  18
ATOM     18  N   UNL     1       2.642   0.776   4.599  0.00  0.00    -0.357 N 
ATOM     19  H   UNL     1       2.684   0.255   3.781  0.00  0.00    +0.142 HD
ATOM     20  H   UNL     1       3.445   1.190   4.952  0.00  0.00    +0.142 HD
ENDBRANCH  17  18
ENDBRANCH   3  12
TORSDOF 3
