REMARK  Name = ZINC00784471
REMARK  7 active torsions:
REMARK  status: ('A' for Active; 'I' for Inactive)
REMARK    1  A    between atoms: C_1  and  C_2
REMARK    2  A    between atoms: C_2  and  C_3
REMARK    3  A    between atoms: C_7  and  N_20
REMARK    4  A    between atoms: C_8  and  C_12
REMARK    5  A    between atoms: C_12  and  C_14
REMARK    6  A    between atoms: C_22  and  C_25
REMARK    7  A    between atoms: C_22  and  C_26
REMARK                            x       y       z     vdW  Elec       q    Type
REMARK                         _______ _______ _______ _____ _____    ______ ____
ROOT
ATOM      1  C   UNL     1       0.720  -0.384  -1.279  0.00  0.00    +0.051 A 
ATOM      2  C   UNL     1      -0.017  -0.613  -2.434  0.00  0.00    +0.003 A 
ATOM      3  C   UNL     1       0.627  -1.079  -3.558  0.00  0.00    -0.023 A 
ATOM      4  C   UNL     1       2.004  -1.307  -3.485  0.00  0.00    +0.065 A 
ATOM      5  C   UNL     1       3.013  -1.789  -4.434  0.00  0.00    +0.084 A 
ATOM      6  C   UNL     1       4.209  -1.788  -3.737  0.00  0.00    +0.199 A 
ATOM      7  O   UNL     1       3.988  -1.352  -2.476  0.00  0.00    -0.432 OA
ATOM      8  C   UNL     1       2.688  -1.055  -2.283  0.00  0.00    +0.230 A 
ATOM      9  N   UNL     1       2.018  -0.598  -1.234  0.00  0.00    -0.217 NA
ATOM     10  C   UNL     1      -0.114  -1.336  -4.842  0.00  0.00    +0.070 C 
ATOM     11  C   UNL     1      -1.616  -1.417  -4.564  0.00  0.00    +0.068 C 
ATOM     12  O   UNL     1      -1.993  -0.288  -3.767  0.00  0.00    -0.369 OA
ATOM     13  C   UNL     1      -1.499  -0.352  -2.429  0.00  0.00    +0.197 C 
ATOM     14  C   UNL     1      -2.386  -1.394  -5.886  0.00  0.00    +0.041 C 
ATOM     15  C   UNL     1      -1.929  -2.708  -3.805  0.00  0.00    +0.041 C 
ENDROOT
BRANCH   5  16
ATOM     16  N   UNL     1       2.812  -2.165  -5.750  0.00  0.00    -0.354 N 
ATOM     17  H   UNL     1       1.923  -2.124  -6.135  0.00  0.00    +0.142 HD
ATOM     18  H   UNL     1       3.560  -2.470  -6.287  0.00  0.00    +0.142 HD
ENDBRANCH   5  16
BRANCH   1  20
ATOM     19  C   UNL     1       0.018   1.658  -0.060  0.00  0.00    +0.010 C 
ATOM     20  C   UNL     1       0.017   0.128  -0.048  0.00  0.00    +0.052 C 
ENDBRANCH   1  20
BRANCH   6  21
ATOM     21  C   UNL     1       5.461  -2.181  -4.261  0.00  0.00    +0.230 C 
ATOM     22  O   UNL     1       5.532  -2.651  -5.383  0.00  0.00    -0.283 OA
BRANCH  21  23
ATOM     23  C   UNL     1       6.686  -2.022  -3.446  0.00  0.00    +0.025 A 
ATOM     24  C   UNL     1       6.594  -1.614  -2.114  0.00  0.00    +0.012 A 
ATOM     25  C   UNL     1       7.740  -1.468  -1.360  0.00  0.00    +0.001 A 
ATOM     26  C   UNL     1       8.978  -1.726  -1.921  0.00  0.00    +0.000 A 
ATOM     27  C   UNL     1       9.076  -2.131  -3.240  0.00  0.00    +0.001 A 
ATOM     28  C   UNL     1       7.938  -2.287  -4.003  0.00  0.00    +0.012 A 
ENDBRANCH  21  23
ENDBRANCH   6  21
TORSDOF 4
