REMARK  Name = ZINC08748202
REMARK  9 active torsions:
REMARK  status: ('A' for Active; 'I' for Inactive)
REMARK    1  A    between atoms: C_1  and  C_2
REMARK    2  A    between atoms: C_2  and  C_3
REMARK    3  A    between atoms: C_2  and  C_4
REMARK    4  A    between atoms: C_4  and  N_5
REMARK    5  A    between atoms: C_9  and  C_11
REMARK    6  A    between atoms: C_11  and  S_12
REMARK    7  A    between atoms: S_12  and  C_13
REMARK    8  A    between atoms: C_17  and  C_20
REMARK    9  A    between atoms: N_28  and  N_29
REMARK                            x       y       z     vdW  Elec       q    Type
REMARK                         _______ _______ _______ _____ _____    ______ ____
ROOT
ATOM      1  C   UNL     1       1.163   2.048   0.002  0.00  0.00    +0.190 A 
ATOM      2  N   UNL     1       1.179   3.365   0.009  0.00  0.00    -0.215 NA
ATOM      3  C   UNL     1       0.047   4.061   0.023  0.00  0.00    +0.117 A 
ATOM      4  C   UNL     1      -1.212   3.435   0.032  0.00  0.00    +0.081 A 
ATOM      5  C   UNL     1      -2.353   4.345   0.048  0.00  0.00    +0.004 A 
ATOM      6  C   UNL     1      -2.122   5.679   0.053  0.00  0.00    +0.056 A 
ATOM      7  S   UNL     1      -0.343   5.791   0.036  0.00  0.00    -0.076 S 
ATOM      8  C   UNL     1      -1.198   2.006   0.019  0.00  0.00    +0.280 A 
ATOM      9  O   UNL     1      -2.243   1.379   0.020  0.00  0.00    -0.265 OA
ATOM     10  N   UNL     1      -0.016   1.362   0.009  0.00  0.00    -0.209 N 
ENDROOT
BRANCH   5  11
ATOM     11  C   UNL     1      -3.738   3.819   0.059  0.00  0.00    -0.017 A 
ATOM     12  C   UNL     1      -4.128   2.855  -0.870  0.00  0.00    +0.008 A 
ATOM     13  C   UNL     1      -5.418   2.365  -0.852  0.00  0.00    +0.001 A 
ATOM     14  C   UNL     1      -6.327   2.836   0.079  0.00  0.00    +0.000 A 
ATOM     15  C   UNL     1      -5.947   3.797   0.999  0.00  0.00    +0.001 A 
ATOM     16  C   UNL     1      -4.659   4.290   0.994  0.00  0.00    +0.008 A 
ENDBRANCH   5  11
BRANCH  10  17
ATOM     17  N   UNL     1       0.002  -0.004   0.002  0.00  0.00    -0.293 N 
ATOM     18  H   UNL     1       0.949  -0.353  -0.009  0.00  0.00    +0.163 HD
ATOM     19  H   UNL     1      -0.512  -0.377   0.786  0.00  0.00    +0.163 HD
ENDBRANCH  10  17
BRANCH   1  20
ATOM     20  S   UNL     1       2.685   1.160  -0.017  0.00  0.00    -0.077 S 
BRANCH  20  21
ATOM     21  C   UNL     1       3.855   2.542  -0.021  0.00  0.00    +0.173 C 
BRANCH  21  26
ATOM     22  N   UNL     1       8.612   3.234  -0.062  0.00  0.00    -0.299 N 
ATOM     23  C   UNL     1       7.568   2.382  -0.056  0.00  0.00    +0.306 C 
ATOM     24  O   UNL     1       7.763   1.182  -0.064  0.00  0.00    -0.252 OA
ATOM     25  N   UNL     1       6.308   2.860  -0.042  0.00  0.00    -0.240 N 
ATOM     26  C   UNL     1       5.264   2.007  -0.037  0.00  0.00    +0.231 C 
ATOM     27  O   UNL     1       5.458   0.811  -0.044  0.00  0.00    -0.274 OA
ATOM     28  H   UNL     1       8.456   4.191  -0.056  0.00  0.00    +0.150 HD
ATOM     29  H   UNL     1       6.152   3.817  -0.036  0.00  0.00    +0.159 HD
BRANCH  22  30
ATOM     30  C   UNL     1       9.982   2.714  -0.077  0.00  0.00    +0.108 C 
BRANCH  30  32
ATOM     31  C   UNL     1      12.397   3.342   0.029  0.00  0.00    +0.009 C 
ATOM     32  C   UNL     1      10.970   3.882  -0.081  0.00  0.00    -0.000 C 
ATOM     33  C   UNL     1      10.822   4.672  -1.383  0.00  0.00    +0.009 C 
ENDBRANCH  30  32
ENDBRANCH  22  30
ENDBRANCH  21  26
ENDBRANCH  20  21
ENDBRANCH   1  20
TORSDOF 7
