REMARK  Name = ZINC19324849
REMARK  18 active torsions:
REMARK  status: ('A' for Active; 'I' for Inactive)
REMARK    1  A    between atoms: C_1  and  C_2
REMARK    2  A    between atoms: C_2  and  C_3
REMARK    3  A    between atoms: C_2  and  C_4
REMARK    4  A    between atoms: C_2  and  C_5
REMARK    5  A    between atoms: C_5  and  C_6
REMARK    6  A    between atoms: C_6  and  C_7
REMARK    7  A    between atoms: C_6  and  C_8
REMARK    8  A    between atoms: C_6  and  N_9
REMARK    9  A    between atoms: N_11  and  C_22
REMARK   10  A    between atoms: P_13  and  C_15
REMARK   11  A    between atoms: P_13  and  C_16
REMARK   12  A    between atoms: C_22  and  C_23
REMARK   13  A    between atoms: C_22  and  C_24
REMARK   14  A    between atoms: C_22  and  C_25
REMARK   15  A    between atoms: C_25  and  C_26
REMARK   16  A    between atoms: C_26  and  C_27
REMARK   17  A    between atoms: C_26  and  C_28
REMARK   18  A    between atoms: C_26  and  C_29
REMARK                            x       y       z     vdW  Elec       q    Type
REMARK                         _______ _______ _______ _____ _____    ______ ____
ROOT
ATOM      1  N   UNL     1       2.364  -1.866   1.947  0.00  0.00    +0.394 N 
ATOM      2  C   UNL     1       2.270  -1.924   0.487  0.00  0.00    +0.010 C 
ATOM      3  N   UNL     1       2.313  -3.303  -0.006  0.00  0.00    -0.309 NA
ATOM      4  C   UNL     1       3.691  -3.835   0.027  0.00  0.00    +0.111 C 
ATOM      5  P   UNL     1       4.262  -3.736   1.768  0.00  0.00    -0.102 P 
ATOM      6  C   UNL     1       3.752  -2.091   2.399  0.00  0.00    -0.043 C 
ATOM      7  C   UNL     1       3.478  -5.053   2.756  0.00  0.00    +0.039 C 
ATOM      8  H   UNL     1       1.734  -2.672   2.352  0.00  0.00    -0.079 HD
ENDROOT
BRANCH   5   9
ATOM      9  C   UNL     1       6.067  -3.899   1.839  0.00  0.00    -0.028 A 
ATOM     10  C   UNL     1       6.731  -4.652   0.889  0.00  0.00    +0.008 A 
ATOM     11  C   UNL     1       8.107  -4.772   0.941  0.00  0.00    +0.001 A 
ATOM     12  C   UNL     1       8.818  -4.147   1.948  0.00  0.00    +0.000 A 
ATOM     13  C   UNL     1       8.154  -3.398   2.901  0.00  0.00    +0.001 A 
ATOM     14  C   UNL     1       6.778  -3.274   2.846  0.00  0.00    +0.008 A 
ENDBRANCH   5   9
BRANCH   1  15
ATOM     15  C   UNL     1       1.844  -0.590   2.458  0.00  0.00    -0.069 C 
ATOM     16  C   UNL     1       2.307   0.550   1.548  0.00  0.00    -0.010 C 
ATOM     17  C   UNL     1       2.370  -0.356   3.876  0.00  0.00    -0.010 C 
BRANCH  15  18
ATOM     18  C   UNL     1       0.315  -0.635   2.482  0.00  0.00    -0.006 C 
BRANCH  18  20
ATOM     19  C   UNL     1       0.537  -2.183   4.431  0.00  0.00    +0.010 C 
ATOM     20  C   UNL     1      -0.146  -1.966   3.079  0.00  0.00    -0.039 C 
ATOM     21  C   UNL     1      -1.664  -1.939   3.274  0.00  0.00    +0.010 C 
ATOM     22  C   UNL     1       0.225  -3.107   2.131  0.00  0.00    +0.010 C 
ENDBRANCH  18  20
ENDBRANCH  15  18
ENDBRANCH   1  15
BRANCH   3  23
ATOM     23  C   UNL     1       1.746  -3.396  -1.358  0.00  0.00    +0.015 C 
ATOM     24  C   UNL     1       2.554  -2.516  -2.313  0.00  0.00    +0.027 C 
ATOM     25  C   UNL     1       1.800  -4.849  -1.835  0.00  0.00    +0.027 C 
BRANCH  23  26
ATOM     26  C   UNL     1       0.291  -2.921  -1.334  0.00  0.00    +0.027 C 
BRANCH  26  27
ATOM     27  C   UNL     1      -0.368  -3.231  -2.680  0.00  0.00    -0.036 C 
ATOM     28  C   UNL     1      -1.041  -4.603  -2.613  0.00  0.00    +0.010 C 
ATOM     29  C   UNL     1      -1.418  -2.162  -2.991  0.00  0.00    +0.010 C 
ATOM     30  C   UNL     1       0.695  -3.237  -3.780  0.00  0.00    +0.010 C 
ENDBRANCH  26  27
ENDBRANCH  23  26
ENDBRANCH   3  23
TORSDOF 7
