REMARK  Name = ZINC39561245
REMARK  8 active torsions:
REMARK  status: ('A' for Active; 'I' for Inactive)
REMARK    1  A    between atoms: C_1  and  C_2
REMARK    2  A    between atoms: C_2  and  C_4
REMARK    3  A    between atoms: C_9  and  N_10
REMARK    4  A    between atoms: C_11  and  C_13
REMARK    5  A    between atoms: C_13  and  O_14
REMARK    6  A    between atoms: O_14  and  C_15
REMARK    7  A    between atoms: C_15  and  C_17
REMARK    8  A    between atoms: C_19  and  N_25
REMARK                            x       y       z     vdW  Elec       q    Type
REMARK                         _______ _______ _______ _____ _____    ______ ____
ROOT
ATOM      1  N   UNL     1       0.017  -2.745  -0.194  0.00  0.00    -0.282 N 
ATOM      2  C   UNL     1       0.074  -4.076  -0.398  0.00  0.00    +0.255 C 
ATOM      3  O   UNL     1      -0.946  -4.706  -0.580  0.00  0.00    -0.272 OA
ATOM      4  H   UNL     1       0.835  -2.232  -0.105  0.00  0.00    +0.155 HD
ENDROOT
BRANCH   1  10
ATOM      5  C   UNL     1      -1.439  -1.125   0.874  0.00  0.00    +0.042 A 
ATOM      6  C   UNL     1      -2.684  -0.483   0.947  0.00  0.00    +0.062 A 
ATOM      7  C   UNL     1      -3.685  -0.820   0.061  0.00  0.00    +0.167 A 
ATOM      8  C   UNL     1      -3.462  -1.800  -0.911  0.00  0.00    +0.168 A 
ATOM      9  C   UNL     1      -2.235  -2.439  -0.990  0.00  0.00    +0.073 A 
ATOM     10  C   UNL     1      -1.218  -2.106  -0.109  0.00  0.00    +0.048 A 
ATOM     11  O   UNL     1      -4.599  -1.943  -1.651  0.00  0.00    -0.453 OA
ATOM     12  C   UNL     1      -5.647  -1.342  -0.868  0.00  0.00    +0.466 C 
ATOM     13  O   UNL     1      -4.962  -0.354  -0.076  0.00  0.00    -0.453 OA
BRANCH   5  15
ATOM     14  C   UNL     1      -0.571   0.365   2.785  0.00  0.00    +0.091 C 
ATOM     15  C   UNL     1      -0.373  -0.770   1.813  0.00  0.00    +0.162 C 
ATOM     16  O   UNL     1       0.670  -1.390   1.809  0.00  0.00    -0.292 OA
ENDBRANCH   5  15
ENDBRANCH   1  10
BRANCH   2  17
ATOM     17  C   UNL     1       1.406  -4.781  -0.400  0.00  0.00    +0.328 C 
BRANCH  17  18
ATOM     18  O   UNL     1       1.206  -6.176  -0.635  0.00  0.00    -0.451 OA
BRANCH  18  19
ATOM     19  C   UNL     1       2.305  -6.955  -0.668  0.00  0.00    +0.360 C 
ATOM     20  O   UNL     1       3.403  -6.463  -0.501  0.00  0.00    -0.243 OA
BRANCH  19  21
ATOM     21  C   UNL     1       2.175  -8.409  -0.907  0.00  0.00    +0.169 A 
ATOM     22  C   UNL     1       3.315  -9.208  -0.933  0.00  0.00    +0.095 A 
ATOM     23  C   UNL     1       3.175 -10.578  -1.159  0.00  0.00    +0.067 A 
ATOM     24  C   UNL     1       1.892 -11.089  -1.350  0.00  0.00    +0.100 A 
ATOM     25  C   UNL     1       0.806 -10.228  -1.309  0.00  0.00    +0.150 A 
ATOM     26  N   UNL     1       0.970  -8.941  -1.089  0.00  0.00    -0.226 NA
ATOM     27 CL   UNL     1      -0.794 -10.858  -1.546  0.00  0.00    -0.060 Cl
ATOM     28 CL   UNL     1       1.657 -12.785  -1.636  0.00  0.00    -0.078 Cl
ATOM     29 CL   UNL     1       4.886  -8.511  -0.689  0.00  0.00    -0.079 Cl
BRANCH  23  30
ATOM     30  N   UNL     1       4.289 -11.413  -1.194  0.00  0.00    -0.356 N 
ATOM     31  H   UNL     1       5.176 -11.045  -1.060  0.00  0.00    +0.142 HD
ATOM     32  H   UNL     1       4.178 -12.364  -1.352  0.00  0.00    +0.142 HD
ENDBRANCH  23  30
ENDBRANCH  19  21
ENDBRANCH  18  19
ENDBRANCH  17  18
ENDBRANCH   2  17
TORSDOF 7
