REMARK  Name = ZINC27533206
REMARK  8 active torsions:
REMARK  status: ('A' for Active; 'I' for Inactive)
REMARK    1  A    between atoms: C_1  and  C_2
REMARK    2  A    between atoms: C_2  and  O_3
REMARK    3  A    between atoms: O_3  and  C_4
REMARK    4  A    between atoms: C_4  and  C_6
REMARK    5  A    between atoms: C_7  and  N_32
REMARK    6  A    between atoms: C_11  and  C_13
REMARK    7  A    between atoms: C_16  and  C_19
REMARK    8  A    between atoms: C_23  and  C_26
REMARK                            x       y       z     vdW  Elec       q    Type
REMARK                         _______ _______ _______ _____ _____    ______ ____
ROOT
ATOM      1  C   UNL     1      -1.433   3.845   2.482  0.00  0.00    +0.105 C 
ATOM      2  C   UNL     1      -1.448   5.186   2.693  0.00  0.00    +0.195 C 
ATOM      3  O   UNL     1      -2.067   5.718   3.758  0.00  0.00    -0.446 OA
ATOM      4  C   UNL     1      -2.291   4.960   4.848  0.00  0.00    +0.115 C 
ATOM      5  C   UNL     1      -2.329   3.618   4.772  0.00  0.00    +0.045 C 
ATOM      6  C   UNL     1      -2.104   2.915   3.455  0.00  0.00    +0.097 C 
ATOM      7  C   UNL     1      -2.581   2.827   5.911  0.00  0.00    +0.164 C 
ATOM      8  O   UNL     1      -2.592   1.617   5.806  0.00  0.00    -0.292 OA
ATOM      9  C   UNL     1      -2.838   3.454   7.254  0.00  0.00    +0.088 C 
ATOM     10  C   UNL     1      -3.451   4.843   7.043  0.00  0.00    +0.034 C 
ATOM     11  C   UNL     1      -2.502   5.664   6.168  0.00  0.00    +0.083 C 
ENDROOT
BRANCH   6  12
ATOM     12  C   UNL     1      -3.429   2.473   2.892  0.00  0.00    -0.035 A 
ATOM     13  C   UNL     1      -4.405   3.409   2.603  0.00  0.00    +0.005 A 
ATOM     14  C   UNL     1      -5.619   3.004   2.081  0.00  0.00    +0.003 A 
ATOM     15  C   UNL     1      -5.862   1.661   1.858  0.00  0.00    -0.050 A 
ATOM     16  C   UNL     1      -4.889   0.725   2.152  0.00  0.00    +0.003 A 
ATOM     17  C   UNL     1      -3.672   1.130   2.669  0.00  0.00    +0.005 A 
ATOM     18  C   UNL     1      -7.188   1.219   1.296  0.00  0.00    +0.044 C 
ENDBRANCH   6  12
BRANCH  10  19
ATOM     19  C   UNL     1      -3.630   5.525   8.375  0.00  0.00    -0.043 A 
ATOM     20  C   UNL     1      -2.537   5.742   9.193  0.00  0.00    +0.004 A 
ATOM     21  C   UNL     1      -2.701   6.372  10.412  0.00  0.00    +0.000 A 
ATOM     22  C   UNL     1      -3.959   6.776  10.819  0.00  0.00    +0.000 A 
ATOM     23  C   UNL     1      -5.053   6.554  10.003  0.00  0.00    +0.000 A 
ATOM     24  C   UNL     1      -4.888   5.929   8.781  0.00  0.00    +0.004 A 
ENDBRANCH  10  19
BRANCH   2  25
ATOM     25  N   UNL     1      -0.823   6.013   1.799  0.00  0.00    -0.329 N 
ATOM     26  H   UNL     1      -0.828   7.101   1.959  0.00  0.00    +0.145 HD
ATOM     27  H   UNL     1      -0.316   5.589   0.920  0.00  0.00    +0.145 HD
ENDBRANCH   2  25
BRANCH   1  28
ATOM     28  C   UNL     1      -0.784   3.323   1.353  0.00  0.00    +0.341 C 
ATOM     29  O   UNL     1       0.324   2.829   1.461  0.00  0.00    -0.245 OA
BRANCH  28  30
ATOM     30  O   UNL     1      -1.389   3.368   0.146  0.00  0.00    -0.462 OA
BRANCH  30  32
ATOM     31  C   UNL     1      -1.508   2.959  -2.233  0.00  0.00    +0.048 C 
ATOM     32  C   UNL     1      -0.670   2.818  -0.961  0.00  0.00    +0.229 C 
ENDBRANCH  30  32
ENDBRANCH  28  30
ENDBRANCH   1  28
TORSDOF 6
