REMARK  Name = ZINC47896399
REMARK  9 active torsions:
REMARK  status: ('A' for Active; 'I' for Inactive)
REMARK    1  A    between atoms: C_1  and  C_2
REMARK    2  A    between atoms: C_4  and  C_8
REMARK    3  A    between atoms: C_5  and  C_7
REMARK    4  A    between atoms: C_10  and  C_18
REMARK    5  A    between atoms: C_12  and  C_17
REMARK    6  A    between atoms: N_20  and  C_21
REMARK    7  A    between atoms: C_21  and  C_23
REMARK    8  A    between atoms: C_21  and  C_29
REMARK    9  A    between atoms: N_31  and  C_32
REMARK                            x       y       z     vdW  Elec       q    Type
REMARK                         _______ _______ _______ _____ _____    ______ ____
ROOT
ATOM      1  C   UNL     1      -1.341  -3.417  -0.553  0.00  0.00    +0.079 A 
ATOM      2  C   UNL     1      -2.732  -3.330  -0.653  0.00  0.00    +0.042 A 
ATOM      3  C   UNL     1      -3.497  -4.479  -0.478  0.00  0.00    +0.053 A 
ATOM      4  C   UNL     1      -2.821  -5.687  -0.206  0.00  0.00    +0.076 A 
ATOM      5  C   UNL     1      -3.259  -7.061   0.031  0.00  0.00    +0.091 A 
ATOM      6  N   UNL     1      -2.194  -7.778   0.232  0.00  0.00    -0.080 NA
ATOM      7  O   UNL     1      -1.045  -6.959   0.144  0.00  0.00    -0.334 OA
ATOM      8  C   UNL     1      -1.418  -5.691  -0.122  0.00  0.00    +0.260 A 
ATOM      9  N   UNL     1      -0.738  -4.569  -0.301  0.00  0.00    -0.210 NA
ATOM     10  C   UNL     1      -4.682  -7.556   0.041  0.00  0.00    +0.070 C 
ENDROOT
BRANCH   1  14
ATOM     11  C   UNL     1       0.093   1.415  -1.386  0.00  0.00    +0.086 C 
ATOM     12  C   UNL     1       0.088  -0.066  -1.106  0.00  0.00    +0.103 A 
ATOM     13  C   UNL     1      -1.006  -0.840  -1.021  0.00  0.00    +0.054 A 
ATOM     14  C   UNL     1      -0.522  -2.196  -0.738  0.00  0.00    +0.041 A 
ATOM     15  C   UNL     1       0.833  -2.100  -0.681  0.00  0.00    +0.111 A 
ATOM     16  O   UNL     1       1.177  -0.825  -0.909  0.00  0.00    -0.464 OA
ATOM     17  C   UNL     1       1.787  -3.236  -0.414  0.00  0.00    +0.087 C 
ENDBRANCH   1  14
BRANCH   3  18
ATOM     18  C   UNL     1      -4.973  -4.435  -0.575  0.00  0.00    +0.246 C 
ATOM     19  O   UNL     1      -5.578  -5.371  -1.059  0.00  0.00    -0.270 OA
ATOM     20  N   UNL     1      -5.646  -3.357  -0.126  0.00  0.00    -0.296 N 
ATOM     21  H   UNL     1      -5.163  -2.610   0.261  0.00  0.00    +0.150 HD
BRANCH  20  22
ATOM     22  C   UNL     1      -7.107  -3.314  -0.221  0.00  0.00    +0.190 C 
BRANCH  22  23
ATOM     23  C   UNL     1      -7.566  -1.879  -0.253  0.00  0.00    -0.018 A 
ATOM     24  C   UNL     1      -6.952  -0.939   0.553  0.00  0.00    +0.006 A 
ATOM     25  C   UNL     1      -7.373   0.378   0.524  0.00  0.00    +0.000 A 
ATOM     26  C   UNL     1      -8.408   0.754  -0.311  0.00  0.00    +0.000 A 
ATOM     27  C   UNL     1      -9.022  -0.186  -1.117  0.00  0.00    +0.000 A 
ATOM     28  C   UNL     1      -8.598  -1.502  -1.091  0.00  0.00    +0.006 A 
ENDBRANCH  22  23
BRANCH  22  29
ATOM     29  C   UNL     1      -7.709  -4.008   0.974  0.00  0.00    +0.238 C 
ATOM     30  O   UNL     1      -6.989  -4.491   1.821  0.00  0.00    -0.273 OA
ATOM     31  N   UNL     1      -9.049  -4.091   1.100  0.00  0.00    -0.317 N 
ATOM     32  C   UNL     1      -9.634  -4.766   2.262  0.00  0.00    +0.128 C 
ATOM     33  H   UNL     1      -9.625  -3.705   0.422  0.00  0.00    +0.148 HD
ENDBRANCH  22  29
ENDBRANCH  20  22
ENDBRANCH   3  18
TORSDOF 5
