REMARK  Name = ZINC39856297
REMARK  7 active torsions:
REMARK  status: ('A' for Active; 'I' for Inactive)
REMARK    1  A    between atoms: C_1  and  C_2
REMARK    2  A    between atoms: C_6  and  C_7
REMARK    3  A    between atoms: N_9  and  C_10
REMARK    4  A    between atoms: C_15  and  C_16
REMARK    5  A    between atoms: C_21  and  C_29
REMARK    6  A    between atoms: C_21  and  C_30
REMARK    7  A    between atoms: N_24  and  N_25
REMARK                            x       y       z     vdW  Elec       q    Type
REMARK                         _______ _______ _______ _____ _____    ______ ____
ROOT
ATOM      1  C   UNL     1      -0.006   1.502   0.010  0.00  0.00    +0.048 C 
ATOM      2  C   UNL     1       0.021  -0.004   0.002  0.00  0.00    +0.009 A 
ATOM      3  C   UNL     1       0.039  -0.839  -1.123  0.00  0.00    +0.042 A 
ATOM      4  C   UNL     1       0.059  -2.138  -0.673  0.00  0.00    +0.116 A 
ATOM      5  O   UNL     1       0.057  -2.112   0.658  0.00  0.00    -0.454 OA
ATOM      6  C   UNL     1       0.039  -0.831   1.091  0.00  0.00    +0.193 A 
ATOM      7  C   UNL     1       0.076  -3.327  -1.599  0.00  0.00    +0.081 C 
ATOM      8  C   UNL     1      -0.440  -2.905  -2.978  0.00  0.00    -0.023 C 
ATOM      9  C   UNL     1       0.330  -1.684  -3.493  0.00  0.00    +0.064 C 
ATOM     10  C   UNL     1       0.040  -0.512  -2.567  0.00  0.00    +0.071 C 
ATOM     11  N   UNL     1      -0.189   0.685  -3.010  0.00  0.00    -0.183 NA
ATOM     12  C   UNL     1      -0.262  -4.065  -3.959  0.00  0.00    +0.011 C 
ATOM     13  C   UNL     1      -1.926  -2.557  -2.874  0.00  0.00    +0.011 C 
ENDROOT
BRANCH  11  14
ATOM     14  N   UNL     1      -0.176   0.936  -4.388  0.00  0.00    -0.191 N 
ATOM     15  C   UNL     1      -0.414   2.180  -4.848  0.00  0.00    +0.317 C 
ATOM     16  O   UNL     1      -0.402   2.399  -6.044  0.00  0.00    -0.251 OA
ATOM     17  N   UNL     1      -0.665   3.183  -3.983  0.00  0.00    -0.312 N 
ATOM     18  H   UNL     1       0.005   0.215  -5.011  0.00  0.00    +0.179 HD
ATOM     19  H   UNL     1      -0.674   3.009  -3.028  0.00  0.00    +0.147 HD
ATOM     20  H   UNL     1      -0.836   4.078  -4.314  0.00  0.00    +0.147 HD
ENDBRANCH  11  14
BRANCH   6  21
ATOM     21  C   UNL     1       0.035  -0.400   2.493  0.00  0.00    +0.284 C 
ATOM     22  O   UNL     1       0.015   0.786   2.765  0.00  0.00    -0.266 OA
ATOM     23  N   UNL     1       0.054  -1.318   3.480  0.00  0.00    -0.278 N 
ATOM     24  H   UNL     1      -0.010  -2.262   3.266  0.00  0.00    +0.155 HD
BRANCH  23  25
ATOM     25  C   UNL     1       0.167  -0.909   4.812  0.00  0.00    +0.045 A 
ATOM     26  C   UNL     1       0.760   0.309   5.119  0.00  0.00    +0.024 A 
ATOM     27  C   UNL     1       0.870   0.710   6.436  0.00  0.00    +0.002 A 
ATOM     28  C   UNL     1       0.391  -0.101   7.449  0.00  0.00    +0.001 A 
ATOM     29  C   UNL     1      -0.199  -1.314   7.147  0.00  0.00    +0.014 A 
ATOM     30  C   UNL     1      -0.318  -1.718   5.832  0.00  0.00    +0.076 A 
BRANCH  30  31
ATOM     31  C   UNL     1      -0.967  -3.038   5.503  0.00  0.00    +0.419 C 
ATOM     32  F   UNL     1      -1.371  -3.666   6.686  0.00  0.00    -0.166 F 
ATOM     33  F   UNL     1      -2.082  -2.818   4.688  0.00  0.00    -0.166 F 
ATOM     34  F   UNL     1      -0.051  -3.854   4.832  0.00  0.00    -0.166 F 
ENDBRANCH  30  31
ENDBRANCH  23  25
ENDBRANCH   6  21
TORSDOF 4
