REMARK  Name = ZINC37735882
REMARK  9 active torsions:
REMARK  status: ('A' for Active; 'I' for Inactive)
REMARK    1  A    between atoms: C_4  and  N_8
REMARK    2  A    between atoms: C_5  and  C_6
REMARK    3  A    between atoms: C_9  and  C_11
REMARK    4  A    between atoms: C_11  and  S_12
REMARK    5  A    between atoms: S_12  and  C_13
REMARK    6  A    between atoms: C_13  and  C_14
REMARK    7  A    between atoms: C_14  and  C_15
REMARK    8  A    between atoms: C_15  and  C_17
REMARK    9  A    between atoms: C_15  and  N_20
REMARK                            x       y       z     vdW  Elec       q    Type
REMARK                         _______ _______ _______ _____ _____    ______ ____
ROOT
ATOM      1  C   UNK     1       3.140  -3.852  -0.050  0.00  0.00    +0.165 C 
ENDROOT
BRANCH   1   3
ATOM      2  N   UNK     1       1.541  -1.965  -0.024  0.00  0.00    -0.278 N 
ATOM      3  C   UNK     1       2.824  -2.379  -0.039  0.00  0.00    +0.227 C 
ATOM      4  O   UNK     1       3.723  -1.566  -0.043  0.00  0.00    -0.275 OA
ATOM      5  H   UNK     1       0.821  -2.615  -0.021  0.00  0.00    +0.155 HD
BRANCH   2   9
ATOM      6  C   UNK     1      -0.018   1.440   0.010  0.00  0.00    +0.028 A 
ATOM      7  C   UNK     1       1.187   2.043   0.002  0.00  0.00    +0.048 A 
ATOM      8  S   UNK     1       2.328   0.678  -0.017  0.00  0.00    -0.081 S 
ATOM      9  C   UNK     1       1.250  -0.608  -0.013  0.00  0.00    +0.089 A 
ATOM     10  C   UNK     1       0.002  -0.004   0.002  0.00  0.00    +0.080 A 
BRANCH  10  11
ATOM     11  C   UNK     1      -1.206  -0.773   0.010  0.00  0.00    +0.102 C 
ATOM     12  N   UNK     1      -2.164  -1.383   0.016  0.00  0.00    -0.191 NA
ENDBRANCH  10  11
ENDBRANCH   2   9
ENDBRANCH   1   3
BRANCH   1  13
ATOM     13  S   UNK     1       4.939  -4.085  -0.069  0.00  0.00    -0.151 S 
BRANCH  13  14
ATOM     14  C   UNK     1       5.148  -5.887  -0.082  0.00  0.00    +0.068 C 
BRANCH  14  15
ATOM     15  C   UNK     1       6.640  -6.226  -0.098  0.00  0.00    +0.006 C 
BRANCH  15  16
ATOM     16  C   UNK     1       6.817  -7.746  -0.108  0.00  0.00    +0.041 C 
BRANCH  16  17
ATOM     17  N   UNK     1       6.280  -8.293  -1.362  0.00  0.00    +0.387 N 
ATOM     18  H   UNK     1       6.775  -7.891  -2.143  0.00  0.00    -0.089 HD
ATOM     19  H   UNK     1       6.396  -9.295  -1.369  0.00  0.00    -0.089 HD
ATOM     20  H   UNK     1       5.299  -8.068  -1.434  0.00  0.00    -0.089 HD
ENDBRANCH  16  17
BRANCH  16  21
ATOM     21  C   UNK     1       8.282  -8.082  -0.001  0.00  0.00    +0.342 C 
ATOM     22  O   UNK     1       8.793  -8.235   1.096  0.00  0.00    -0.248 OA
ATOM     23  O   UNK     1       8.956  -8.201  -1.010  0.00  0.00    -0.248 OA
ENDBRANCH  16  21
ENDBRANCH  15  16
ENDBRANCH  14  15
ENDBRANCH  13  14
ENDBRANCH   1  13
TORSDOF 9
