REMARK  Name = ZINC17179641
REMARK  6 active torsions:
REMARK  status: ('A' for Active; 'I' for Inactive)
REMARK    1  A    between atoms: C_1  and  C_2
REMARK    2  A    between atoms: C_2  and  C_11
REMARK    3  A    between atoms: N_3  and  N_4
REMARK    4  A    between atoms: N_7  and  C_10
REMARK    5  A    between atoms: C_12  and  C_26
REMARK    6  A    between atoms: C_15  and  O_16
REMARK                            x       y       z     vdW  Elec       q    Type
REMARK                         _______ _______ _______ _____ _____    ______ ____
ROOT
ATOM      1  C   UNL     1      -0.271  -0.783  -1.251  0.00  0.00    +0.091 A 
ATOM      2  C   UNL     1       0.794  -0.931  -2.167  0.00  0.00    +0.178 A 
ATOM      3  N   UNL     1       0.374  -1.647  -3.174  0.00  0.00    -0.157 NA
ATOM      4  N   UNL     1      -0.965  -1.994  -2.962  0.00  0.00    -0.175 N 
ATOM      5  C   UNL     1      -1.358  -1.464  -1.772  0.00  0.00    +0.227 A 
ATOM      6  C   UNL     1      -1.755  -2.754  -3.817  0.00  0.00    +0.198 A 
ATOM      7  N   UNL     1      -3.011  -3.107  -3.679  0.00  0.00    -0.221 NA
ATOM      8  C   UNL     1      -3.661  -3.853  -4.598  0.00  0.00    +0.081 A 
ATOM      9  C   UNL     1      -5.003  -4.299  -4.571  0.00  0.00    +0.029 A 
ATOM     10  C   UNL     1      -5.509  -5.057  -5.593  0.00  0.00    +0.002 A 
ATOM     11  C   UNL     1      -4.731  -5.414  -6.686  0.00  0.00    +0.001 A 
ATOM     12  C   UNL     1      -3.415  -4.995  -6.746  0.00  0.00    +0.017 A 
ATOM     13  C   UNL     1      -2.899  -4.235  -5.726  0.00  0.00    +0.041 A 
ATOM     14  S   UNL     1      -1.322  -3.491  -5.386  0.00  0.00    -0.048 S 
ENDROOT
BRANCH   2  15
ATOM     15  C   UNL     1       2.179  -0.358  -2.009  0.00  0.00    +0.437 C 
ATOM     16  F   UNL     1       2.990  -1.279  -1.338  0.00  0.00    -0.164 F 
ATOM     17  F   UNL     1       2.720  -0.092  -3.271  0.00  0.00    -0.164 F 
ATOM     18  F   UNL     1       2.111   0.829  -1.271  0.00  0.00    -0.164 F 
ENDBRANCH   2  15
BRANCH   1  20
ATOM     19  C   UNL     1      -0.594   1.415   0.065  0.00  0.00    +0.068 C 
ATOM     20  C   UNL     1      -0.230  -0.047   0.027  0.00  0.00    +0.070 C 
ATOM     21  N   UNL     1       0.119  -0.657   1.117  0.00  0.00    -0.189 NA
BRANCH  21  22
ATOM     22  N   UNL     1       0.122   0.033   2.336  0.00  0.00    -0.259 N 
ATOM     23  C   UNL     1      -0.826  -0.318   3.405  0.00  0.00    +0.107 C 
ATOM     24  C   UNL     1      -0.041  -0.504   4.708  0.00  0.00    -0.058 C 
ATOM     25  N   UNL     1       0.755   0.701   4.975  0.00  0.00    +0.380 N 
ATOM     26  C   UNL     1       1.768   0.873   3.925  0.00  0.00    -0.058 C 
ATOM     27  C   UNL     1       1.076   1.124   2.586  0.00  0.00    +0.107 C 
ATOM     28  C   UNL     1       1.421   0.566   6.277  0.00  0.00    -0.096 C 
ATOM     29  H   UNL     1       0.149   1.507   4.991  0.00  0.00    -0.082 HD
ENDBRANCH  21  22
ENDBRANCH   1  20
BRANCH   5  30
ATOM     30  O   UNL     1      -2.584  -1.579  -1.204  0.00  0.00    -0.492 OA
ATOM     31  H   UNL     1      -3.200  -0.878  -1.455  0.00  0.00    +0.294 HD
ENDBRANCH   5  30
TORSDOF 4
