REMARK  Name = ZINC63193988
REMARK  6 active torsions:
REMARK  status: ('A' for Active; 'I' for Inactive)
REMARK    1  A    between atoms: C_1  and  C_2
REMARK    2  A    between atoms: C_3  and  S_9
REMARK    3  A    between atoms: S_9  and  N_12
REMARK    4  A    between atoms: C_17  and  C_19
REMARK    5  A    between atoms: C_19  and  C_21
REMARK    6  A    between atoms: C_19  and  N_22
REMARK                            x       y       z     vdW  Elec       q    Type
REMARK                         _______ _______ _______ _____ _____    ______ ____
ROOT
ATOM      1  N   UNL     1      -2.620  -0.795  -0.892  0.00  0.00    -0.175 NA
ATOM      2  C   UNL     1      -1.792   0.102  -1.710  0.00  0.00    +0.110 C 
ATOM      3  C   UNL     1      -2.709   0.942  -2.604  0.00  0.00    +0.017 C 
ATOM      4  C   UNL     1      -3.617   0.012  -3.413  0.00  0.00    +0.003 C 
ATOM      5  C   UNL     1      -4.490  -0.808  -2.460  0.00  0.00    +0.019 C 
ATOM      6  C   UNL     1      -3.588  -1.671  -1.564  0.00  0.00    +0.065 C 
ENDROOT
BRANCH   1   7
ATOM      7  S   UNL     1      -2.460  -0.821   0.756  0.00  0.00    +0.069 S 
ATOM      8  O   UNL     1      -3.185  -1.954   1.216  0.00  0.00    -0.152 OA
ATOM      9  O   UNL     1      -2.736   0.496   1.212  0.00  0.00    -0.152 OA
BRANCH   7  12
ATOM     10  C   UNL     1      -0.131   1.170   1.788  0.00  0.00    +0.066 C 
ATOM     11  C   UNL     1       0.178  -0.284   1.537  0.00  0.00    +0.050 A 
ATOM     12  C   UNL     1      -0.762  -1.132   1.110  0.00  0.00    +0.166 A 
ATOM     13  S   UNL     1       0.149  -2.660   0.993  0.00  0.00    -0.007 S 
ATOM     14  C   UNL     1       1.652  -2.099   1.496  0.00  0.00    +0.290 A 
ATOM     15  O   UNL     1       2.692  -2.723   1.615  0.00  0.00    -0.260 OA
ATOM     16  N   UNL     1       1.430  -0.788   1.730  0.00  0.00    -0.318 N 
ATOM     17  H   UNL     1       2.150  -0.214   2.035  0.00  0.00    +0.169 HD
ENDBRANCH   7  12
ENDBRANCH   1   7
BRANCH   6  18
ATOM     18  C   UNL     1      -4.441  -2.392  -0.518  0.00  0.00    -0.059 C 
ATOM     19  C   UNL     1      -5.189  -1.361   0.329  0.00  0.00    -0.013 C 
BRANCH  18  20
ATOM     20  N   UNL     1      -5.409  -3.266  -1.193  0.00  0.00    +0.381 N 
ATOM     21  H   UNL     1      -4.921  -3.885  -1.824  0.00  0.00    -0.090 HD
ATOM     22  H   UNL     1      -5.907  -3.812  -0.505  0.00  0.00    -0.090 HD
ATOM     23  H   UNL     1      -6.065  -2.703  -1.714  0.00  0.00    -0.090 HD
ENDBRANCH  18  20
ENDBRANCH   6  18
TORSDOF 4
