REMARK  Name = ZINC01778536
REMARK  4 active torsions:
REMARK  status: ('A' for Active; 'I' for Inactive)
REMARK    1  A    between atoms: C_1  and  C_2
REMARK    2  A    between atoms: C_5  and  C_8
REMARK    3  A    between atoms: C_18  and  C_20
REMARK    4  A    between atoms: C_23  and  C_26
REMARK                            x       y       z     vdW  Elec       q    Type
REMARK                         _______ _______ _______ _____ _____    ______ ____
ROOT
ATOM      1  C   UNL     1      -0.216   5.684   0.055  0.00  0.00    +0.212 C 
ATOM      2  N   UNL     1       1.024   6.158  -0.579  0.00  0.00    -0.302 N 
ATOM      3  C   UNL     1       0.677   6.900  -1.644  0.00  0.00    +0.153 C 
ATOM      4  S   UNL     1       1.800   7.661  -2.689  0.00  0.00    -0.017 S 
ATOM      5  N   UNL     1      -0.653   6.973  -1.791  0.00  0.00    -0.203 N 
ATOM      6  N   UNL     1      -1.296   6.245  -0.775  0.00  0.00    -0.203 N 
ATOM      7  C   UNL     1      -2.624   6.318  -0.924  0.00  0.00    +0.153 C 
ATOM      8  S   UNL     1      -3.747   5.559   0.121  0.00  0.00    -0.017 S 
ATOM      9  N   UNL     1      -2.970   7.060  -1.990  0.00  0.00    -0.302 N 
ATOM     10  C   UNL     1      -1.731   7.534  -2.623  0.00  0.00    +0.212 C 
ATOM     11  H   UNL     1       1.999   5.881  -0.153  0.00  0.00    +0.150 HD
ATOM     12  H   UNL     1      -3.946   7.338  -2.415  0.00  0.00    +0.150 HD
ENDROOT
BRANCH   1  17
ATOM     13  C   UNL     1      -0.430  -0.090   0.004  0.00  0.00    +0.044 C 
ATOM     14  C   UNL     1      -0.374   1.416   0.017  0.00  0.00    -0.050 A 
ATOM     15  C   UNL     1      -0.514   2.102   1.209  0.00  0.00    +0.004 A 
ATOM     16  C   UNL     1      -0.457   3.483   1.222  0.00  0.00    +0.007 A 
ATOM     17  C   UNL     1      -0.271   4.179   0.041  0.00  0.00    -0.008 A 
ATOM     18  C   UNL     1      -0.137   3.492  -1.151  0.00  0.00    +0.007 A 
ATOM     19  C   UNL     1      -0.188   2.111  -1.163  0.00  0.00    +0.004 A 
ENDBRANCH   1  17
BRANCH  10  20
ATOM     20  C   UNL     1      -1.628   7.017  -4.035  0.00  0.00    -0.008 A 
ATOM     21  C   UNL     1      -1.420   7.898  -5.080  0.00  0.00    +0.007 A 
ATOM     22  C   UNL     1      -1.321   7.424  -6.374  0.00  0.00    +0.004 A 
ATOM     23  C   UNL     1      -1.440   6.070  -6.625  0.00  0.00    -0.050 A 
ATOM     24  C   UNL     1      -1.653   5.189  -5.581  0.00  0.00    +0.004 A 
ATOM     25  C   UNL     1      -1.747   5.663  -4.286  0.00  0.00    +0.007 A 
ATOM     26  C   UNL     1      -1.337   5.553  -8.037  0.00  0.00    +0.044 C 
ENDBRANCH  10  20
TORSDOF 2
