REMARK  Name = ZINC33358892
REMARK  5 active torsions:
REMARK  status: ('A' for Active; 'I' for Inactive)
REMARK    1  A    between atoms: C_1  and  C_2
REMARK    2  A    between atoms: N_4  and  C_5
REMARK    3  A    between atoms: C_7  and  O_28
REMARK    4  A    between atoms: C_15  and  C_18
REMARK    5  A    between atoms: C_25  and  O_27
REMARK                            x       y       z     vdW  Elec       q    Type
REMARK                         _______ _______ _______ _____ _____    ______ ____
ROOT
ATOM      1  C   UNL     1       1.468   1.735   2.404  0.00  0.00    +0.160 C 
ATOM      2  C   UNL     1       0.035   1.204   2.507  0.00  0.00    +0.171 C 
ATOM      3  C   UNL     1      -0.736   1.586   1.263  0.00  0.00    +0.183 C 
ATOM      4  C   UNL     1      -0.013   1.086   0.008  0.00  0.00    +0.178 C 
ATOM      5  C   UNL     1      -0.746   1.600  -1.238  0.00  0.00    +0.197 C 
ATOM      6  O   UNL     1      -0.879   3.023  -1.137  0.00  0.00    -0.345 OA
ATOM      7  C   UNL     1      -1.550   3.477   0.041  0.00  0.00    +0.282 C 
ATOM      8  O   UNL     1      -0.853   3.009   1.198  0.00  0.00    -0.339 OA
ATOM      9  O   UNL     1       1.326   1.586  -0.002  0.00  0.00    -0.341 OA
ATOM     10  C   UNL     1       2.110   1.192   1.125  0.00  0.00    +0.270 C 
ENDROOT
BRANCH   7  11
ATOM     11  C   UNL     1      -1.583   4.984   0.050  0.00  0.00    +0.008 A 
ATOM     12  C   UNL     1      -0.995   5.682   1.087  0.00  0.00    +0.008 A 
ATOM     13  C   UNL     1      -1.022   7.064   1.093  0.00  0.00    +0.000 A 
ATOM     14  C   UNL     1      -1.646   7.747   0.067  0.00  0.00    +0.000 A 
ATOM     15  C   UNL     1      -2.240   7.049  -0.968  0.00  0.00    +0.000 A 
ATOM     16  C   UNL     1      -2.208   5.667  -0.977  0.00  0.00    +0.008 A 
ENDBRANCH   7  11
BRANCH   1  20
ATOM     17  C   UNL     1       4.116   1.542   5.162  0.00  0.00    +0.109 C 
ATOM     18  C   UNL     1       3.320   1.997   3.965  0.00  0.00    +0.210 C 
ATOM     19  O   UNL     1       3.651   2.995   3.361  0.00  0.00    -0.276 OA
ATOM     20  N   UNL     1       2.241   1.294   3.567  0.00  0.00    -0.305 N 
ATOM     21  H   UNL     1       1.941   0.389   4.115  0.00  0.00    +0.149 HD
ENDBRANCH   1  20
BRANCH  10  22
ATOM     22  O   UNL     1       3.432   1.718   0.994  0.00  0.00    -0.365 OA
ATOM     23  H   UNL     1       4.053   1.438   0.130  0.00  0.00    +0.213 HD
ENDBRANCH  10  22
BRANCH   2  24
ATOM     24  O   UNL     1      -0.599   1.763   3.659  0.00  0.00    -0.387 OA
ATOM     25  H   UNL     1      -1.639   1.495   3.898  0.00  0.00    +0.210 HD
ENDBRANCH   2  24
TORSDOF 4
