REMARK  Name = ZINC11613653
REMARK  6 active torsions:
REMARK  status: ('A' for Active; 'I' for Inactive)
REMARK    1  A    between atoms: C_1  and  C_2
REMARK    2  A    between atoms: C_5  and  N_12
REMARK    3  A    between atoms: C_8  and  C_10
REMARK    4  A    between atoms: C_8  and  C_11
REMARK    5  A    between atoms: C_13  and  C_15
REMARK    6  A    between atoms: C_15  and  C_16
REMARK                            x       y       z     vdW  Elec       q    Type
REMARK                         _______ _______ _______ _____ _____    ______ ____
ROOT
ATOM      1  C   UNL     1      -1.943   0.720  -3.518  0.00  0.00    +0.121 C 
ENDROOT
BRANCH   1   2
ATOM      2  C   UNL     1      -2.810   1.010  -4.745  0.00  0.00    +0.112 C 
ATOM      3  C   UNL     1      -4.094   0.174  -4.644  0.00  0.00    +0.103 C 
ATOM      4  S   UNL     1      -3.996  -0.808  -6.186  0.00  0.00    -0.086 S 
ATOM      5  C   UNL     1      -2.466  -0.172  -6.835  0.00  0.00    +0.172 A 
ATOM      6  N   UNL     1      -2.016   0.755  -5.946  0.00  0.00    -0.283 N 
ATOM      7  C   UNL     1      -0.838   1.379  -6.257  0.00  0.00    +0.258 A 
ATOM      8  O   UNL     1      -0.382   2.220  -5.500  0.00  0.00    -0.267 OA
ATOM      9  C   UNL     1      -0.151   1.061  -7.440  0.00  0.00    +0.038 A 
ATOM     10  C   UNL     1      -0.667   0.118  -8.271  0.00  0.00    +0.052 A 
ATOM     11  N   UNL     1      -1.819  -0.471  -7.939  0.00  0.00    -0.228 NA
ATOM     12  C   UNL     1       0.006  -0.302  -9.549  0.00  0.00    +0.056 C 
ATOM     13  C   UNL     1       1.035   0.740  -9.983  0.00  0.00    +0.006 C 
ATOM     14  C   UNL     1       1.947   1.043  -8.788  0.00  0.00    +0.005 C 
ATOM     15  C   UNL     1       1.131   1.792  -7.737  0.00  0.00    +0.042 C 
ENDBRANCH   1   2
BRANCH   1  17
ATOM     16  N   UNL     1      -2.168   0.843  -1.058  0.00  0.00    -0.312 N 
ATOM     17  C   UNL     1      -2.689   1.117  -2.271  0.00  0.00    +0.215 C 
ATOM     18  O   UNL     1      -3.759   1.681  -2.358  0.00  0.00    -0.276 OA
ATOM     19  H   UNL     1      -1.312   0.392  -0.989  0.00  0.00    +0.149 HD
BRANCH  16  23
ATOM     20  C   UNL     1      -0.512  -0.392   2.710  0.00  0.00    +0.007 C 
ATOM     21  C   UNL     1      -1.450  -0.300   1.504  0.00  0.00    -0.012 C 
ATOM     22  C   UNL     1      -1.957   1.137   1.361  0.00  0.00    +0.025 C 
ATOM     23  C   UNL     1      -2.894   1.229   0.155  0.00  0.00    +0.074 C 
ATOM     24  C   UNL     1      -4.082   0.286   0.359  0.00  0.00    +0.028 C 
ATOM     25  C   UNL     1      -3.575  -1.150   0.503  0.00  0.00    -0.033 C 
ATOM     26  C   UNL     1      -2.638  -1.242   1.708  0.00  0.00    +0.009 C 
ATOM     27  C   UNL     1      -2.817  -1.552  -0.764  0.00  0.00    +0.011 C 
ATOM     28  C   UNL     1      -4.763  -2.092   0.707  0.00  0.00    +0.011 C 
ENDBRANCH  16  23
ENDBRANCH   1  17
TORSDOF 3
