REMARK  Name = ZINC40796577
REMARK  8 active torsions:
REMARK  status: ('A' for Active; 'I' for Inactive)
REMARK    1  A    between atoms: C_1  and  C_2
REMARK    2  A    between atoms: C_2  and  C_3
REMARK    3  A    between atoms: C_2  and  C_4
REMARK    4  A    between atoms: C_2  and  N_5
REMARK    5  A    between atoms: N_5  and  N_6
REMARK    6  A    between atoms: C_8  and  N_25
REMARK    7  A    between atoms: C_9  and  O_13
REMARK    8  A    between atoms: O_13  and  C_14
REMARK                            x       y       z     vdW  Elec       q    Type
REMARK                         _______ _______ _______ _____ _____    ______ ____
ROOT
ATOM      1  N   UNL     1       1.913   0.126  -1.362  0.00  0.00    -0.263 N 
ATOM      2  C   UNL     1       2.744  -0.214  -2.422  0.00  0.00    +0.160 A 
ATOM      3  C   UNL     1       4.089   0.166  -2.421  0.00  0.00    +0.129 A 
ATOM      4  C   UNL     1       4.878  -0.201  -3.509  0.00  0.00    +0.246 A 
ATOM      5  N   UNL     1       4.326  -0.894  -4.502  0.00  0.00    -0.199 NA
ATOM      6  C   UNL     1       3.053  -1.233  -4.465  0.00  0.00    +0.227 A 
ATOM      7  N   UNL     1       2.273  -0.911  -3.453  0.00  0.00    -0.218 NA
ATOM      8  H   UNL     1       2.264   0.634  -0.614  0.00  0.00    +0.168 HD
ENDROOT
BRANCH   3   9
ATOM      9  N   UNL     1       4.630   0.897  -1.352  0.00  0.00    -0.351 N 
ATOM     10  H   UNL     1       4.069   1.146  -0.601  0.00  0.00    +0.143 HD
ATOM     11  H   UNL     1       5.565   1.154  -1.364  0.00  0.00    +0.143 HD
ENDBRANCH   3   9
BRANCH   1  12
ATOM     12  N   UNL     1       0.602  -0.256  -1.372  0.00  0.00    -0.236 NA
ATOM     13  H   UNL     1       0.135   0.075  -2.204  0.00  0.00    +0.145 HD
BRANCH  12  15
ATOM     14  C   UNL     1      -0.025   1.732  -0.087  0.00  0.00    +0.029 C 
ATOM     15  C   UNL     1      -0.090   0.206  -0.162  0.00  0.00    +0.028 C 
ATOM     16  C   UNL     1       0.586  -0.395   1.073  0.00  0.00    +0.029 C 
ATOM     17  C   UNL     1      -1.554  -0.240  -0.209  0.00  0.00    +0.029 C 
ENDBRANCH  12  15
ENDBRANCH   1  12
BRANCH   4  18
ATOM     18  O   UNL     1       6.189   0.143  -3.556  0.00  0.00    -0.434 OA
BRANCH  18  19
ATOM     19  C   UNL     1       6.936  -0.329  -4.588  0.00  0.00    +0.156 A 
ATOM     20  C   UNL     1       7.664  -1.488  -4.443  0.00  0.00    +0.049 A 
ATOM     21  C   UNL     1       8.433  -1.984  -5.492  0.00  0.00    +0.019 A 
ATOM     22  C   UNL     1       8.486  -1.336  -6.689  0.00  0.00    +0.027 A 
ATOM     23  C   UNL     1       7.757  -0.150  -6.875  0.00  0.00    +0.018 A 
ATOM     24  C   UNL     1       6.966   0.361  -5.818  0.00  0.00    +0.114 A 
ATOM     25  N   UNL     1       6.267   1.487  -5.993  0.00  0.00    -0.251 NA
ATOM     26  C   UNL     1       6.291   2.133  -7.133  0.00  0.00    +0.111 A 
ATOM     27  C   UNL     1       7.043   1.682  -8.216  0.00  0.00    +0.020 A 
ATOM     28  C   UNL     1       7.790   0.544  -8.100  0.00  0.00    +0.013 A 
ATOM     29 BR   UNL     1       9.541  -2.031  -8.097  0.00  0.00    -0.050 Br
ENDBRANCH  18  19
ENDBRANCH   4  18
TORSDOF 5
