REMARK  Name = ZINC48966556
REMARK  5 active torsions:
REMARK  status: ('A' for Active; 'I' for Inactive)
REMARK    1  A    between atoms: C_4  and  S_10
REMARK    2  A    between atoms: C_5  and  C_7
REMARK    3  A    between atoms: C_7  and  N_9
REMARK    4  A    between atoms: S_10  and  N_13
REMARK    5  A    between atoms: C_17  and  O_20
REMARK                            x       y       z     vdW  Elec       q    Type
REMARK                         _______ _______ _______ _____ _____    ______ ____
ROOT
ATOM      1  C   UNL     1       0.184   1.326   0.225  0.00  0.00    +0.001 A 
ATOM      2  C   UNL     1       0.540   0.383   1.172  0.00  0.00    +0.002 A 
ATOM      3  C   UNL     1       1.745  -0.289   1.070  0.00  0.00    +0.029 A 
ATOM      4  C   UNL     1       2.601  -0.021   0.021  0.00  0.00    +0.115 A 
ATOM      5  C   UNL     1       2.248   0.930  -0.938  0.00  0.00    +0.029 A 
ATOM      6  C   UNL     1       1.029   1.604  -0.829  0.00  0.00    +0.012 A 
ENDROOT
BRANCH   4   7
ATOM      7  S   UNL     1       4.136  -0.877  -0.107  0.00  0.00    +0.062 S 
ATOM      8  O   UNL     1       3.943  -1.916  -1.057  0.00  0.00    -0.153 OA
ATOM      9  O   UNL     1       5.142   0.115  -0.257  0.00  0.00    -0.153 OA
BRANCH   7  10
ATOM     10  N   UNL     1       4.409  -1.613   1.351  0.00  0.00    -0.174 NA
ATOM     11  C   UNL     1       5.011  -0.867   2.465  0.00  0.00    +0.109 C 
ATOM     12  C   UNL     1       4.105  -1.000   3.694  0.00  0.00    +0.020 C 
ATOM     13  C   UNL     1       3.866  -2.483   3.987  0.00  0.00    +0.034 C 
ATOM     14  C   UNL     1       3.161  -3.134   2.795  0.00  0.00    +0.130 C 
ATOM     15  C   UNL     1       4.050  -3.022   1.558  0.00  0.00    +0.140 C 
BRANCH  14  16
ATOM     16  O   UNL     1       2.910  -4.511   3.082  0.00  0.00    -0.390 OA
ATOM     17  H   UNL     1       2.350  -4.655   3.857  0.00  0.00    +0.210 HD
ENDBRANCH  14  16
ENDBRANCH   7  10
ENDBRANCH   4   7
BRANCH   5  18
ATOM     18  C   UNL     1       3.158   1.222  -2.063  0.00  0.00    +0.079 C 
ATOM     19  S   UNL     1       2.957   0.414  -3.559  0.00  0.00    -0.035 S 
BRANCH  18  20
ATOM     20  N   UNL     1       4.148   2.124  -1.912  0.00  0.00    -0.352 N 
ATOM     21  H   UNL     1       4.261   2.582  -1.065  0.00  0.00    +0.143 HD
ATOM     22  H   UNL     1       4.746   2.316  -2.651  0.00  0.00    +0.143 HD
ENDBRANCH  18  20
ENDBRANCH   5  18
TORSDOF 5
