REMARK  Name = ZINC49010140
REMARK  7 active torsions:
REMARK  status: ('A' for Active; 'I' for Inactive)
REMARK    1  A    between atoms: C_1  and  C_2
REMARK    2  A    between atoms: C_7  and  N_10
REMARK    3  A    between atoms: N_10  and  C_11
REMARK    4  A    between atoms: N_10  and  C_12
REMARK    5  A    between atoms: C_15  and  S_19
REMARK    6  A    between atoms: C_17  and  N_18
REMARK    7  A    between atoms: S_19  and  C_22
REMARK                            x       y       z     vdW  Elec       q    Type
REMARK                         _______ _______ _______ _____ _____    ______ ____
ROOT
ATOM      1  C   UNL     1      -0.989  -3.286   2.372  0.00  0.00    +0.051 A 
ATOM      2  C   UNL     1      -1.468  -2.636   3.499  0.00  0.00    +0.027 A 
ATOM      3  C   UNL     1      -1.841  -3.368   4.612  0.00  0.00    +0.029 A 
ATOM      4  C   UNL     1      -1.737  -4.746   4.605  0.00  0.00    +0.090 A 
ATOM      5  C   UNL     1      -1.261  -5.402   3.485  0.00  0.00    +0.051 A 
ATOM      6  C   UNL     1      -0.890  -4.677   2.363  0.00  0.00    +0.048 A 
ENDROOT
BRANCH   4   7
ATOM      7  S   UNL     1      -2.214  -5.670   6.028  0.00  0.00    -0.006 S 
ATOM      8  O   UNL     1      -1.452  -6.867   5.955  0.00  0.00    -0.170 OA
ATOM      9  O   UNL     1      -2.048  -4.771   7.116  0.00  0.00    -0.170 OA
ATOM     10  C   UNL     1      -3.973  -6.034   5.780  0.00  0.00    +0.200 C 
ENDBRANCH   4   7
BRANCH   6  11
ATOM     11  N   UNL     1      -0.412  -5.340   1.225  0.00  0.00    -0.356 N 
ATOM     12  H   UNL     1      -0.149  -4.831   0.442  0.00  0.00    +0.142 HD
ATOM     13  H   UNL     1      -0.344  -6.307   1.221  0.00  0.00    +0.142 HD
ENDBRANCH   6  11
BRANCH   1  14
ATOM     14  N   UNL     1      -0.612  -2.548   1.244  0.00  0.00    -0.328 N 
ATOM     15  C   UNL     1      -1.607  -1.751   0.523  0.00  0.00    +0.129 C 
BRANCH  14  21
ATOM     16  C   UNL     1       2.452  -1.879   4.182  0.00  0.00    +0.007 C 
ATOM     17  C   UNL     1       1.523  -1.657   2.986  0.00  0.00    -0.012 C 
ATOM     18  C   UNL     1       1.863  -0.323   2.318  0.00  0.00    +0.003 C 
ATOM     19  C   UNL     1       0.934  -0.102   1.122  0.00  0.00    +0.002 C 
ATOM     20  C   UNL     1       1.119  -1.239   0.115  0.00  0.00    +0.022 C 
ATOM     21  C   UNL     1       0.779  -2.572   0.784  0.00  0.00    +0.073 C 
ATOM     22  C   UNL     1       1.708  -2.794   1.980  0.00  0.00    +0.025 C 
ENDBRANCH  14  21
ENDBRANCH   1  14
TORSDOF 4
