REMARK  Name = ZINC33026189
REMARK  4 active torsions:
REMARK  status: ('A' for Active; 'I' for Inactive)
REMARK    1  A    between atoms: C_1  and  C_2
REMARK    2  A    between atoms: C_5  and  N_9
REMARK    3  A    between atoms: C_10  and  C_12
REMARK    4  A    between atoms: C_12  and  N_13
REMARK                            x       y       z     vdW  Elec       q    Type
REMARK                         _______ _______ _______ _____ _____    ______ ____
ROOT
ATOM      1  N   UNL     1      -1.191   1.867   0.018  0.00  0.00    -0.283 N 
ATOM      2  C   UNL     1      -0.096   1.343  -0.568  0.00  0.00    +0.234 C 
ATOM      3  O   UNL     1      -0.155   0.256  -1.102  0.00  0.00    -0.274 OA
ATOM      4  H   UNL     1      -1.119   2.818   0.565  0.00  0.00    +0.155 HD
ENDROOT
BRANCH   1   9
ATOM      5  C   UNL     1      -6.167  -0.837  -0.339  0.00  0.00    +0.044 C 
ATOM      6  C   UNL     1      -4.846  -0.118  -0.244  0.00  0.00    -0.049 A 
ATOM      7  C   UNL     1      -3.671  -0.843  -0.159  0.00  0.00    +0.005 A 
ATOM      8  C   UNL     1      -2.458  -0.188  -0.072  0.00  0.00    +0.025 A 
ATOM      9  C   UNL     1      -2.418   1.200  -0.070  0.00  0.00    +0.052 A 
ATOM     10  C   UNL     1      -3.600   1.926  -0.151  0.00  0.00    +0.062 A 
ATOM     11  C   UNL     1      -4.811   1.264  -0.243  0.00  0.00    +0.025 A 
ATOM     12 CL   UNL     1      -3.557   3.661  -0.142  0.00  0.00    -0.082 Cl
ENDBRANCH   1   9
BRANCH   2  13
ATOM     13  C   UNL     1       1.201   2.111  -0.566  0.00  0.00    +0.202 C 
BRANCH  13  14
ATOM     14  N   UNL     1       2.229   1.337  -1.266  0.00  0.00    -0.291 N 
ATOM     15  C   UNL     1       3.477   1.830  -1.388  0.00  0.00    +0.297 C 
ATOM     16  O   UNL     1       3.750   2.917  -0.918  0.00  0.00    -0.253 OA
ATOM     17  N   UNL     1       4.423   1.117  -2.032  0.00  0.00    -0.313 N 
ATOM     18  H   UNL     1       1.982   0.353  -1.691  0.00  0.00    +0.151 HD
ATOM     19  H   UNL     1       5.441   1.520  -2.132  0.00  0.00    +0.146 HD
ATOM     20  H   UNL     1       4.176   0.134  -2.458  0.00  0.00    +0.146 HD
ENDBRANCH  13  14
ENDBRANCH   2  13
TORSDOF 3
