REMARK  Name = ZINC67300357
REMARK  4 active torsions:
REMARK  status: ('A' for Active; 'I' for Inactive)
REMARK    1  A    between atoms: C_12  and  C_14
REMARK    2  A    between atoms: C_14  and  C_15
REMARK    3  A    between atoms: C_18  and  S_21
REMARK    4  A    between atoms: S_21  and  N_24
REMARK                            x       y       z     vdW  Elec       q    Type
REMARK                         _______ _______ _______ _____ _____    ______ ____
ROOT
ATOM      1  C   UNL     1      -0.017   1.380   0.010  0.00  0.00    +0.000 A 
ATOM      2  C   UNL     1       1.170   2.091   0.002  0.00  0.00    +0.002 A 
ATOM      3  C   UNL     1       2.380   1.424  -0.027  0.00  0.00    +0.024 A 
ATOM      4  C   UNL     1       2.399   0.035  -0.040  0.00  0.00    +0.039 A 
ATOM      5  C   UNL     1       1.210  -0.671  -0.009  0.00  0.00    -0.026 A 
ATOM      6  C   UNL     1       0.002  -0.004   0.002  0.00  0.00    +0.005 A 
ATOM      7  C   UNL     1       1.240  -2.187   0.051  0.00  0.00    +0.037 C 
ATOM      8  C   UNL     1       1.758  -2.731  -1.277  0.00  0.00    +0.006 C 
ATOM      9  C   UNL     1       3.280  -2.768  -1.300  0.00  0.00    +0.020 C 
ATOM     10  C   UNL     1       3.918  -1.400  -1.340  0.00  0.00    +0.114 C 
ATOM     11  N   UNL     1       3.616  -0.654  -0.108  0.00  0.00    -0.271 N 
ATOM     12  C   UNL     1       4.483  -0.634   0.923  0.00  0.00    +0.224 C 
ATOM     13  O   UNL     1       5.532  -1.238   0.844  0.00  0.00    -0.275 OA
ENDROOT
BRANCH  12  14
ATOM     14  C   UNL     1       4.150   0.138   2.174  0.00  0.00    +0.131 C 
BRANCH  14  15
ATOM     15  C   UNL     1       5.276  -0.002   3.165  0.00  0.00    -0.038 A 
ATOM     16  C   UNL     1       5.271  -1.041   4.076  0.00  0.00    +0.006 A 
ATOM     17  C   UNL     1       6.304  -1.169   4.986  0.00  0.00    +0.029 A 
ATOM     18  C   UNL     1       7.343  -0.257   4.984  0.00  0.00    +0.105 A 
ATOM     19  C   UNL     1       7.349   0.782   4.072  0.00  0.00    +0.029 A 
ATOM     20  C   UNL     1       6.318   0.907   3.160  0.00  0.00    +0.006 A 
BRANCH  18  21
ATOM     21  S   UNL     1       8.660  -0.419   6.143  0.00  0.00    +0.056 S 
ATOM     22  O   UNL     1       9.231   0.874   6.293  0.00  0.00    -0.153 OA
ATOM     23  O   UNL     1       8.143  -1.155   7.244  0.00  0.00    -0.153 OA
BRANCH  21  24
ATOM     24  N   UNL     1       9.818  -1.369   5.439  0.00  0.00    -0.204 NA
ATOM     25  H   UNL     1      10.752  -1.246   5.670  0.00  0.00    +0.144 HD
ATOM     26  H   UNL     1       9.563  -2.049   4.796  0.00  0.00    +0.144 HD
ENDBRANCH  21  24
ENDBRANCH  18  21
ENDBRANCH  14  15
ENDBRANCH  12  14
TORSDOF 4
