REMARK  Name = ZINC02537898
REMARK  6 active torsions:
REMARK  status: ('A' for Active; 'I' for Inactive)
REMARK    1  A    between atoms: C_3  and  C_12
REMARK    2  A    between atoms: N_5  and  C_6
REMARK    3  A    between atoms: C_6  and  C_7
REMARK    4  A    between atoms: N_9  and  C_10
REMARK    5  A    between atoms: C_10  and  C_11
REMARK    6  A    between atoms: C_11  and  N_27
REMARK                            x       y       z     vdW  Elec       q    Type
REMARK                         _______ _______ _______ _____ _____    ______ ____
ROOT
ATOM      1  C   UNL     1      -0.018   1.503   0.010  0.00  0.00    +0.239 C 
ENDROOT
BRANCH   1   6
ATOM      2  C   UNL     1      -0.203   2.832   2.130  0.00  0.00    +0.124 A 
ATOM      3  C   UNL     1      -1.144   3.013   3.086  0.00  0.00    +0.067 A 
ATOM      4  C   UNL     1      -2.259   2.240   2.743  0.00  0.00    +0.179 A 
ATOM      5  N   UNL     1      -1.998   1.622   1.619  0.00  0.00    -0.166 NA
ATOM      6  N   UNL     1      -0.704   1.975   1.216  0.00  0.00    -0.261 N 
ATOM      7 BR   UNL     1      -0.982   4.116   4.613  0.00  0.00    -0.047 Br
BRANCH   4   8
ATOM      8  C   UNL     1      -3.542   2.142   3.528  0.00  0.00    +0.437 C 
ATOM      9  F   UNL     1      -4.433   3.127   3.090  0.00  0.00    -0.164 F 
ATOM     10  F   UNL     1      -4.111   0.879   3.335  0.00  0.00    -0.164 F 
ATOM     11  F   UNL     1      -3.271   2.329   4.888  0.00  0.00    -0.164 F 
ENDBRANCH   4   8
ENDBRANCH   1   6
BRANCH   1  12
ATOM     12  C   UNL     1       0.002  -0.004   0.002  0.00  0.00    +0.234 C 
ATOM     13  O   UNL     1      -0.506  -0.622   0.913  0.00  0.00    -0.274 OA
ATOM     14  N   UNL     1       0.585  -0.664  -1.018  0.00  0.00    -0.316 N 
ATOM     15  H   UNL     1       0.992  -0.170  -1.747  0.00  0.00    +0.149 HD
BRANCH  14  16
ATOM     16  C   UNL     1       0.605  -2.129  -1.026  0.00  0.00    +0.085 C 
BRANCH  16  17
ATOM     17  C   UNL     1       1.321  -2.623  -2.285  0.00  0.00    -0.067 C 
BRANCH  17  20
ATOM     18  H   UNL     1       0.407  -4.466  -2.221  0.00  0.00    -0.090 HD
ATOM     19  H   UNL     1       1.809  -4.442  -3.115  0.00  0.00    -0.090 HD
ATOM     20  N   UNL     1       1.355  -4.096  -2.272  0.00  0.00    +0.379 N 
ATOM     21  H   UNL     1       1.883  -4.414  -1.451  0.00  0.00    -0.090 HD
ENDBRANCH  17  20
ENDBRANCH  16  17
ENDBRANCH  14  16
ENDBRANCH   1  12
TORSDOF 6
