REMARK  Name = ZINC31916852
REMARK  8 active torsions:
REMARK  status: ('A' for Active; 'I' for Inactive)
REMARK    1  A    between atoms: C_1  and  C_2
REMARK    2  A    between atoms: C_5  and  C_9
REMARK    3  A    between atoms: C_6  and  C_8
REMARK    4  A    between atoms: C_10  and  C_19
REMARK    5  A    between atoms: C_14  and  C_18
REMARK    6  A    between atoms: C_19  and  C_21
REMARK    7  A    between atoms: C_19  and  C_22
REMARK    8  A    between atoms: C_22  and  N_24
REMARK                            x       y       z     vdW  Elec       q    Type
REMARK                         _______ _______ _______ _____ _____    ______ ____
ROOT
ATOM      1  C   UNL     1      -3.571   1.792   1.739  0.00  0.00    +0.094 A 
ATOM      2  C   UNL     1      -2.522   0.927   1.655  0.00  0.00    +0.060 A 
ATOM      3  N   UNL     1      -3.035  -0.337   1.738  0.00  0.00    -0.302 N 
ATOM      4  C   UNL     1      -2.451  -1.571   1.714  0.00  0.00    +0.093 A 
ATOM      5  C   UNL     1      -3.200  -2.688   1.816  0.00  0.00    +0.021 A 
ATOM      6  C   UNL     1      -4.596  -2.597   1.948  0.00  0.00    -0.046 A 
ATOM      7  C   UNL     1      -5.191  -1.374   1.973  0.00  0.00    +0.050 A 
ATOM      8  C   UNL     1      -4.395  -0.215   1.866  0.00  0.00    +0.139 A 
ATOM      9  N   UNL     1      -4.700   1.074   1.861  0.00  0.00    -0.228 NA
ATOM     10  C   UNL     1      -5.429  -3.847   2.062  0.00  0.00    +0.044 C 
ENDROOT
BRANCH   1  15
ATOM     11  C   UNL     1      -3.230   7.539   1.584  0.00  0.00    +0.044 C 
ATOM     12  C   UNL     1      -3.319   6.035   1.624  0.00  0.00    -0.050 A 
ATOM     13  C   UNL     1      -2.481   5.317   2.458  0.00  0.00    +0.004 A 
ATOM     14  C   UNL     1      -2.562   3.940   2.504  0.00  0.00    +0.010 A 
ATOM     15  C   UNL     1      -3.483   3.272   1.699  0.00  0.00    +0.005 A 
ATOM     16  C   UNL     1      -4.325   4.000   0.861  0.00  0.00    -0.041 A 
ATOM     17  C   UNL     1      -4.239   5.378   0.828  0.00  0.00    +0.007 A 
ATOM     18  C   UNL     1      -5.328   3.286  -0.007  0.00  0.00    +0.044 C 
ENDBRANCH   1  15
BRANCH   2  19
ATOM     19  C   UNL     1      -1.068   1.295   1.505  0.00  0.00    +0.086 C 
ATOM     20  C   UNL     1      -0.478   0.563   0.299  0.00  0.00    +0.021 C 
BRANCH  19  21
ATOM     21  C   UNL     1      -0.319   0.897   2.751  0.00  0.00    +0.055 C 
ATOM     22  S   UNL     1      -1.032  -0.011   3.857  0.00  0.00    -0.040 S 
BRANCH  21  23
ATOM     23  N   UNL     1       0.953   1.306   2.932  0.00  0.00    -0.355 N 
ATOM     24  H   UNL     1       1.500   1.016   3.841  0.00  0.00    +0.143 HD
ATOM     25  H   UNL     1       1.443   1.931   2.170  0.00  0.00    +0.143 HD
ENDBRANCH  21  23
ENDBRANCH  19  21
ENDBRANCH   2  19
TORSDOF 4
