REMARK  Name = ZINC00524573
REMARK  3 active torsions:
REMARK  status: ('A' for Active; 'I' for Inactive)
REMARK    1  A    between atoms: C_14  and  C_15
REMARK    2  A    between atoms: N_16  and  C_17
REMARK    3  A    between atoms: C_22  and  C_23
REMARK                            x       y       z     vdW  Elec       q    Type
REMARK                         _______ _______ _______ _____ _____    ______ ____
ROOT
ATOM      1  C   UNL     1      -1.148  -2.093   0.324  0.00  0.00    +0.001 A 
ATOM      2  C   UNL     1       0.061  -2.784   0.276  0.00  0.00    +0.001 A 
ATOM      3  C   UNL     1       1.250  -2.134   0.149  0.00  0.00    +0.009 A 
ATOM      4  C   UNL     1       1.269  -0.733   0.065  0.00  0.00    -0.009 A 
ATOM      5  C   UNL     1       0.001  -0.004   0.116  0.00  0.00    -0.017 A 
ATOM      6  C   UNL     1      -1.198  -0.738   0.248  0.00  0.00    +0.008 A 
ATOM      7  C   UNL     1      -0.016   1.390   0.034  0.00  0.00    +0.017 A 
ATOM      8  C   UNL     1       1.181   2.096  -0.096  0.00  0.00    -0.017 A 
ATOM      9  C   UNL     1       1.187   3.505  -0.181  0.00  0.00    +0.008 A 
ATOM     10  C   UNL     1       2.368   4.164  -0.308  0.00  0.00    +0.001 A 
ATOM     11  C   UNL     1       3.583   3.483  -0.357  0.00  0.00    +0.001 A 
ATOM     12  C   UNL     1       3.644   2.125  -0.280  0.00  0.00    +0.009 A 
ATOM     13  C   UNL     1       2.459   1.384  -0.148  0.00  0.00    -0.009 A 
ATOM     14  C   UNL     1       2.486  -0.026  -0.067  0.00  0.00    +0.008 A 
ENDROOT
BRANCH  14  15
ATOM     15  C   UNL     1       3.718  -0.724  -0.117  0.00  0.00    +0.120 C 
ATOM     16  N   UNL     1       3.745  -2.021   0.067  0.00  0.00    -0.254 NA
BRANCH  16  17
ATOM     17  C   UNL     1       4.938  -2.673   0.148  0.00  0.00    +0.076 A 
ATOM     18  C   UNL     1       5.938  -2.208   1.007  0.00  0.00    +0.028 A 
ATOM     19  C   UNL     1       7.140  -2.876   1.088  0.00  0.00    +0.002 A 
ATOM     20  C   UNL     1       7.374  -4.003   0.314  0.00  0.00    +0.001 A 
ATOM     21  C   UNL     1       6.404  -4.475  -0.545  0.00  0.00    +0.015 A 
ATOM     22  C   UNL     1       5.176  -3.819  -0.640  0.00  0.00    +0.062 A 
BRANCH  22  23
ATOM     23  C   UNL     1       4.136  -4.320  -1.556  0.00  0.00    +0.244 C 
ATOM     24  O   UNL     1       3.039  -3.795  -1.576  0.00  0.00    -0.270 OA
ATOM     25  N   UNL     1       4.400  -5.359  -2.373  0.00  0.00    -0.325 N 
ATOM     26  H   UNL     1       5.275  -5.777  -2.357  0.00  0.00    +0.145 HD
ATOM     27  H   UNL     1       3.716  -5.688  -2.976  0.00  0.00    +0.145 HD
ENDBRANCH  22  23
ENDBRANCH  16  17
ENDBRANCH  14  15
TORSDOF 3
