REMARK  Name = ZINC01720115
REMARK  4 active torsions:
REMARK  status: ('A' for Active; 'I' for Inactive)
REMARK    1  A    between atoms: C_3  and  S_15
REMARK    2  A    between atoms: C_8  and  S_11
REMARK    3  A    between atoms: S_11  and  N_14
REMARK    4  A    between atoms: S_15  and  N_18
REMARK                            x       y       z     vdW  Elec       q    Type
REMARK                         _______ _______ _______ _____ _____    ______ ____
ROOT
ATOM      1  C   UNL     1      -3.495   0.558   3.713  0.00  0.00    +0.010 A 
ATOM      2  C   UNL     1      -4.181   0.962   4.817  0.00  0.00    +0.029 A 
ATOM      3  C   UNL     1      -3.966   2.221   5.374  0.00  0.00    +0.106 A 
ATOM      4  C   UNL     1      -3.063   3.083   4.831  0.00  0.00    +0.037 A 
ATOM      5  C   UNL     1      -2.336   2.701   3.690  0.00  0.00    -0.016 A 
ATOM      6  C   UNL     1      -2.556   1.420   3.123  0.00  0.00    -0.016 A 
ATOM      7  C   UNL     1      -1.829   1.038   1.983  0.00  0.00    +0.037 A 
ATOM      8  C   UNL     1      -0.927   1.900   1.439  0.00  0.00    +0.106 A 
ATOM      9  C   UNL     1      -0.707   3.157   2.000  0.00  0.00    +0.029 A 
ATOM     10  C   UNL     1      -1.396   3.563   3.101  0.00  0.00    +0.010 A 
ENDROOT
BRANCH   8  11
ATOM     11  S   UNL     1      -0.017   1.417   0.010  0.00  0.00    +0.056 S 
ATOM     12  O   UNL     1       0.002  -0.004   0.002  0.00  0.00    -0.153 OA
ATOM     13  O   UNL     1       1.172   2.195   0.003  0.00  0.00    -0.153 OA
BRANCH  11  14
ATOM     14  N   UNL     1      -0.897   1.885  -1.312  0.00  0.00    -0.204 NA
ATOM     15  H   UNL     1      -1.747   2.338  -1.194  0.00  0.00    +0.144 HD
ATOM     16  H   UNL     1      -0.563   1.708  -2.205  0.00  0.00    +0.144 HD
ENDBRANCH  11  14
ENDBRANCH   8  11
BRANCH   3  17
ATOM     17  S   UNL     1      -4.874   2.704   6.805  0.00  0.00    +0.056 S 
ATOM     18  O   UNL     1      -5.274   1.506   7.455  0.00  0.00    -0.153 OA
ATOM     19  O   UNL     1      -4.104   3.705   7.457  0.00  0.00    -0.153 OA
BRANCH  17  20
ATOM     20  N   UNL     1      -6.260   3.442   6.278  0.00  0.00    -0.204 NA
ATOM     21  H   UNL     1      -6.430   3.533   5.328  0.00  0.00    +0.144 HD
ATOM     22  H   UNL     1      -6.902   3.784   6.920  0.00  0.00    +0.144 HD
ENDBRANCH  17  20
ENDBRANCH   3  17
TORSDOF 4
