REMARK  Name = ZINC62329450
REMARK  5 active torsions:
REMARK  status: ('A' for Active; 'I' for Inactive)
REMARK    1  A    between atoms: C_1  and  C_2
REMARK    2  A    between atoms: C_2  and  N_3
REMARK    3  A    between atoms: C_9  and  C_11
REMARK    4  A    between atoms: C_14  and  C_18
REMARK    5  A    between atoms: C_16  and  N_17
REMARK                            x       y       z     vdW  Elec       q    Type
REMARK                         _______ _______ _______ _____ _____    ______ ____
ROOT
ATOM      1  N   UNL     1      -1.376  -0.512   0.012  0.00  0.00    -0.297 NA
ATOM      2  C   UNL     1      -1.400  -1.966   0.230  0.00  0.00    +0.091 C 
ATOM      3  C   UNL     1      -2.809  -2.424   0.613  0.00  0.00    +0.071 C 
ATOM      4  C   UNL     1      -3.785  -1.892  -0.435  0.00  0.00    +0.055 A 
ATOM      5  C   UNL     1      -3.392  -0.867  -1.245  0.00  0.00    +0.027 A 
ATOM      6  S   UNL     1      -4.817  -0.609  -2.267  0.00  0.00    -0.070 S 
ATOM      7  C   UNL     1      -5.830  -1.888  -1.531  0.00  0.00    +0.114 A 
ATOM      8  N   UNL     1      -5.008  -2.369  -0.612  0.00  0.00    -0.243 NA
ATOM      9  C   UNL     1      -2.078  -0.164  -1.239  0.00  0.00    +0.128 C 
ENDROOT
BRANCH   7  10
ATOM     10  C   UNL     1      -7.211  -2.296  -1.861  0.00  0.00    +0.065 A 
ATOM     11  C   UNL     1      -7.923  -1.664  -2.881  0.00  0.00    +0.126 A 
ATOM     12  N   UNL     1      -9.157  -2.061  -3.144  0.00  0.00    -0.240 NA
ATOM     13  C   UNL     1      -9.720  -3.038  -2.461  0.00  0.00    +0.128 A 
ATOM     14  N   UNL     1      -9.091  -3.667  -1.489  0.00  0.00    -0.217 NA
ATOM     15  C   UNL     1      -7.846  -3.340  -1.159  0.00  0.00    +0.129 A 
ATOM     16  C   UNL     1     -11.129  -3.450  -2.803  0.00  0.00    +0.088 C 
BRANCH  15  17
ATOM     17  N   UNL     1      -7.188  -4.007  -0.142  0.00  0.00    -0.343 N 
ATOM     18  H   UNL     1      -6.280  -3.758   0.093  0.00  0.00    +0.144 HD
ATOM     19  H   UNL     1      -7.633  -4.724   0.335  0.00  0.00    +0.144 HD
ENDBRANCH  15  17
ENDBRANCH   7  10
BRANCH   1  21
ATOM     20  C   UNL     1      -0.019   1.526   0.010  0.00  0.00    +0.020 C 
ATOM     21  C   UNL     1       0.002  -0.004   0.002  0.00  0.00    +0.081 C 
ENDBRANCH   1  21
TORSDOF 3
