REMARK  Name = ZINC62725980
REMARK  4 active torsions:
REMARK  status: ('A' for Active; 'I' for Inactive)
REMARK    1  A    between atoms: C_1  and  C_2
REMARK    2  A    between atoms: C_3  and  S_8
REMARK    3  A    between atoms: S_8  and  N_11
REMARK    4  A    between atoms: C_17  and  N_18
REMARK                            x       y       z     vdW  Elec       q    Type
REMARK                         _______ _______ _______ _____ _____    ______ ____
ROOT
ATOM      1  N   UNL     1      -1.454   0.520  -3.020  0.00  0.00    -0.127 NA
ATOM      2  C   UNL     1      -1.733   1.036  -4.206  0.00  0.00    +0.109 A 
ATOM      3  C   UNL     1      -0.808   0.938  -5.282  0.00  0.00    +0.048 A 
ATOM      4  C   UNL     1      -1.128   1.475  -6.474  0.00  0.00    +0.084 A 
ATOM      5  N   UNL     1      -2.313   2.108  -6.672  0.00  0.00    -0.365 N 
ATOM      6  C   UNL     1      -3.242   2.236  -5.680  0.00  0.00    +0.107 A 
ATOM      7  C   UNL     1      -3.011   1.722  -4.451  0.00  0.00    +0.068 A 
ATOM      8  H   UNL     1      -2.505   2.482  -7.546  0.00  0.00    +0.165 HD
ENDROOT
BRANCH   1   9
ATOM      9  S   UNL     1      -0.008  -0.247  -2.770  0.00  0.00    +0.102 S 
ATOM     10  O   UNL     1       1.003   0.745  -2.881  0.00  0.00    -0.146 OA
ATOM     11  O   UNL     1      -0.023  -1.415  -3.579  0.00  0.00    -0.146 OA
BRANCH   9  14
ATOM     12  C   UNL     1      -0.018   1.503   0.010  0.00  0.00    +0.067 C 
ATOM     13  C   UNL     1       0.002  -0.004   0.002  0.00  0.00    +0.060 A 
ATOM     14  C   UNL     1       0.008  -0.796  -1.095  0.00  0.00    +0.152 A 
ATOM     15  C   UNL     1       0.028  -2.127  -0.666  0.00  0.00    +0.163 A 
ATOM     16  N   UNL     1       0.035  -2.134   0.643  0.00  0.00    -0.180 NA
ATOM     17  N   UNL     1       0.024  -0.805   1.088  0.00  0.00    -0.280 N 
ATOM     18  H   UNL     1       0.029  -0.513   2.013  0.00  0.00    +0.189 HD
ENDBRANCH   9  14
ENDBRANCH   1   9
BRANCH   7  19
ATOM     19  N   UNL     1      -3.966   1.845  -3.430  0.00  0.00    -0.355 N 
ATOM     20  H   UNL     1      -3.787   1.476  -2.551  0.00  0.00    +0.142 HD
ATOM     21  H   UNL     1      -4.805   2.300  -3.604  0.00  0.00    +0.142 HD
ENDBRANCH   7  19
TORSDOF 3
