REMARK  Name = ZINC40781213
REMARK  5 active torsions:
REMARK  status: ('A' for Active; 'I' for Inactive)
REMARK    1  A    between atoms: C_1  and  C_2
REMARK    2  A    between atoms: C_7  and  N_8
REMARK    3  A    between atoms: C_10  and  N_27
REMARK    4  A    between atoms: C_11  and  O_15
REMARK    5  A    between atoms: O_15  and  C_16
REMARK                            x       y       z     vdW  Elec       q    Type
REMARK                         _______ _______ _______ _____ _____    ______ ____
ROOT
ATOM      1  N   UNL     1      -0.082  -0.035   2.408  0.00  0.00    -0.298 N 
ATOM      2  C   UNL     1      -0.175  -0.732   3.608  0.00  0.00    +0.151 A 
ATOM      3  C   UNL     1      -0.219  -0.046   4.825  0.00  0.00    +0.128 A 
ATOM      4  C   UNL     1      -0.313  -0.793   5.998  0.00  0.00    +0.246 A 
ATOM      5  N   UNL     1      -0.356  -2.119   5.916  0.00  0.00    -0.199 NA
ATOM      6  C   UNL     1      -0.312  -2.728   4.749  0.00  0.00    +0.227 A 
ATOM      7  N   UNL     1      -0.229  -2.061   3.615  0.00  0.00    -0.218 NA
ATOM      8  H   UNL     1      -0.140   0.933   2.403  0.00  0.00    +0.154 HD
ENDROOT
BRANCH   1  15
ATOM      9  C   UNL     1      -1.061   1.149   0.013  0.00  0.00    +0.045 C 
ATOM     10  C   UNL     1      -0.368  -0.190   0.016  0.00  0.00    -0.029 A 
ATOM     11  C   UNL     1      -0.188  -0.877  -1.168  0.00  0.00    +0.005 A 
ATOM     12  C   UNL     1       0.448  -2.105  -1.167  0.00  0.00    +0.000 A 
ATOM     13  C   UNL     1       0.904  -2.649   0.020  0.00  0.00    +0.002 A 
ATOM     14  C   UNL     1       0.727  -1.968   1.207  0.00  0.00    +0.023 A 
ATOM     15  C   UNL     1       0.094  -0.731   1.209  0.00  0.00    +0.035 A 
ENDBRANCH   1  15
BRANCH   3  16
ATOM     16  N   UNL     1      -0.170   1.356   4.864  0.00  0.00    -0.351 N 
ATOM     17  H   UNL     1      -0.104   1.863   4.040  0.00  0.00    +0.143 HD
ATOM     18  H   UNL     1      -0.202   1.818   5.716  0.00  0.00    +0.143 HD
ENDBRANCH   3  16
BRANCH   4  19
ATOM     19  O   UNL     1      -0.358  -0.175   7.205  0.00  0.00    -0.434 OA
BRANCH  19  20
ATOM     20  C   UNL     1      -0.330  -0.952   8.320  0.00  0.00    +0.156 A 
ATOM     21  C   UNL     1      -1.501  -1.290   8.958  0.00  0.00    +0.049 A 
ATOM     22  C   UNL     1      -1.488  -2.084  10.101  0.00  0.00    +0.019 A 
ATOM     23  C   UNL     1      -0.315  -2.548  10.618  0.00  0.00    +0.027 A 
ATOM     24  C   UNL     1       0.901  -2.224   9.994  0.00  0.00    +0.018 A 
ATOM     25  C   UNL     1       0.899  -1.421   8.827  0.00  0.00    +0.114 A 
ATOM     26  N   UNL     1       2.054  -1.115   8.228  0.00  0.00    -0.251 NA
ATOM     27  C   UNL     1       3.200  -1.548   8.695  0.00  0.00    +0.111 A 
ATOM     28  C   UNL     1       3.272  -2.347   9.834  0.00  0.00    +0.020 A 
ATOM     29  C   UNL     1       2.130  -2.687  10.502  0.00  0.00    +0.013 A 
ATOM     30 BR   UNL     1      -0.325  -3.625  12.173  0.00  0.00    -0.050 Br
ENDBRANCH  19  20
ENDBRANCH   4  19
TORSDOF 4
