REMARK  Name = ZINC42470033
REMARK  4 active torsions:
REMARK  status: ('A' for Active; 'I' for Inactive)
REMARK    1  A    between atoms: C_3  and  N_10
REMARK    2  A    between atoms: CA_5  and  C_8
REMARK    3  A    between atoms: C_8  and  O_9
REMARK    4  A    between atoms: C_14  and  O_17
REMARK                            x       y       z     vdW  Elec       q    Type
REMARK                         _______ _______ _______ _____ _____    ______ ____
ROOT
ATOM      1  C   UNL     1      -0.009   1.368  -0.214  0.00  0.00    +0.025 A 
ATOM      2  C   UNL     1       1.198   2.044  -0.224  0.00  0.00    +0.045 A 
ATOM      3  C   UNL     1       2.374   1.333  -0.013  0.00  0.00    +0.122 A 
ATOM      4  N   UNL     1       2.344   0.025   0.195  0.00  0.00    -0.233 NA
ATOM      5  CA  UNL     1       1.208  -0.647   0.210  0.00  0.00    +0.087 A 
ATOM      6  C   UNL     1       0.002  -0.004   0.008  0.00  0.00    +0.065 A 
ATOM      7 CL   UNL     1      -1.485  -0.900   0.032  0.00  0.00    -0.082 Cl
ENDROOT
BRANCH   3   8
ATOM      8  N   UNL     1       3.594   2.000  -0.022  0.00  0.00    -0.313 N 
ATOM      9  C   UNL     1       4.858   1.251  -0.044  0.00  0.00    +0.106 C 
ATOM     10  C   UNL     1       5.735   1.729   1.117  0.00  0.00    +0.021 C 
ATOM     11  C   UNL     1       5.904   3.248   1.032  0.00  0.00    +0.034 C 
ATOM     12  C   UNL     1       4.535   3.922   1.151  0.00  0.00    +0.132 C 
ATOM     13  C   UNL     1       3.644   3.469  -0.015  0.00  0.00    +0.137 C 
BRANCH  12  14
ATOM     14  O   UNL     1       4.697   5.341   1.104  0.00  0.00    -0.390 OA
ATOM     15  H   UNL     1       5.253   5.697   1.810  0.00  0.00    +0.210 HD
ENDBRANCH  12  14
ENDBRANCH   3   8
BRANCH   5  16
ATOM     16  C   UNL     1       1.227  -2.134   0.452  0.00  0.00    +0.212 C 
BRANCH  16  17
ATOM     17  O   UNL     1       1.125  -2.390   1.854  0.00  0.00    -0.389 OA
ATOM     18  H   UNL     1       1.131  -3.330   2.083  0.00  0.00    +0.210 HD
ENDBRANCH  16  17
ENDBRANCH   5  16
TORSDOF 4
