REMARK  Name = ZINC40704492
REMARK  6 active torsions:
REMARK  status: ('A' for Active; 'I' for Inactive)
REMARK    1  A    between atoms: C_1  and  C_2
REMARK    2  A    between atoms: C_5  and  C_24
REMARK    3  A    between atoms: C_6  and  N_8
REMARK    4  A    between atoms: C_10  and  N_23
REMARK    5  A    between atoms: C_11  and  N_15
REMARK    6  A    between atoms: N_15  and  C_16
REMARK                            x       y       z     vdW  Elec       q    Type
REMARK                         _______ _______ _______ _____ _____    ______ ____
ROOT
ATOM      1  N   UNL     1      -0.002  -2.800   2.396  0.00  0.00    -0.298 N 
ATOM      2  C   UNL     1       0.118  -2.116   3.600  0.00  0.00    +0.149 A 
ATOM      3  C   UNL     1       0.251  -2.814   4.802  0.00  0.00    +0.106 A 
ATOM      4  C   UNL     1       0.368  -2.077   5.983  0.00  0.00    +0.149 A 
ATOM      5  N   UNL     1       0.350  -0.748   5.918  0.00  0.00    -0.219 NA
ATOM      6  C   UNL     1       0.223  -0.128   4.762  0.00  0.00    +0.225 A 
ATOM      7  N   UNL     1       0.115  -0.785   3.625  0.00  0.00    -0.219 NA
ATOM      8  H   UNL     1      -0.083  -3.767   2.393  0.00  0.00    +0.154 HD
ENDROOT
BRANCH   1  14
ATOM      9  C   UNL     1       1.237   1.206  -0.168  0.00  0.00    +0.044 C 
ATOM     10  C   UNL     1       0.587  -0.151  -0.083  0.00  0.00    -0.049 A 
ATOM     11  C   UNL     1      -0.016  -0.700  -1.200  0.00  0.00    +0.004 A 
ATOM     12  C   UNL     1      -0.614  -1.944  -1.126  0.00  0.00    +0.005 A 
ATOM     13  C   UNL     1      -0.611  -2.643   0.065  0.00  0.00    -0.029 A 
ATOM     14  C   UNL     1      -0.006  -2.095   1.189  0.00  0.00    +0.036 A 
ATOM     15  C   UNL     1       0.599  -0.847   1.110  0.00  0.00    +0.027 A 
ATOM     16  C   UNL     1      -1.264  -3.999   0.145  0.00  0.00    +0.045 C 
ENDBRANCH   1  14
BRANCH   3  17
ATOM     17  N   UNL     1       0.265  -4.217   4.824  0.00  0.00    -0.353 N 
ATOM     18  H   UNL     1       0.183  -4.716   3.996  0.00  0.00    +0.143 HD
ATOM     19  H   UNL     1       0.358  -4.689   5.666  0.00  0.00    +0.143 HD
ENDBRANCH   3  17
BRANCH   4  20
ATOM     20  N   UNL     1       0.502  -2.722   7.207  0.00  0.00    -0.296 N 
ATOM     21  H   UNL     1       0.601  -3.687   7.239  0.00  0.00    +0.154 HD
BRANCH  20  22
ATOM     22  C   UNL     1       0.495  -1.981   8.393  0.00  0.00    +0.068 A 
ATOM     23  C   UNL     1      -0.131  -0.742   8.435  0.00  0.00    +0.026 A 
ATOM     24  C   UNL     1      -0.136  -0.012   9.608  0.00  0.00    +0.002 A 
ATOM     25  C   UNL     1       0.481  -0.512  10.740  0.00  0.00    +0.003 A 
ATOM     26  C   UNL     1       1.106  -1.745  10.703  0.00  0.00    +0.040 A 
ATOM     27  C   UNL     1       1.110  -2.485   9.534  0.00  0.00    +0.144 A 
ATOM     28  F   UNL     1       1.715  -3.692   9.500  0.00  0.00    -0.204 F 
ENDBRANCH  20  22
ENDBRANCH   4  20
TORSDOF 4
