REMARK  Name = ZINC02990792
REMARK  8 active torsions:
REMARK  status: ('A' for Active; 'I' for Inactive)
REMARK    1  A    between atoms: C_1  and  C_2
REMARK    2  A    between atoms: C_2  and  C_3
REMARK    3  A    between atoms: C_3  and  C_5
REMARK    4  A    between atoms: C_3  and  S_14
REMARK    5  A    between atoms: C_11  and  C_13
REMARK    6  A    between atoms: S_14  and  C_15
REMARK    7  A    between atoms: C_20  and  N_28
REMARK    8  A    between atoms: N_21  and  C_22
REMARK                            x       y       z     vdW  Elec       q    Type
REMARK                         _______ _______ _______ _____ _____    ______ ____
ROOT
ATOM      1  C   UNL     1       2.348   1.318   0.064  0.00  0.00    +0.179 A 
ATOM      2  N   UNL     1       2.396   0.006  -0.042  0.00  0.00    -0.185 NA
ATOM      3  C   UNL     1       1.271  -0.725  -0.079  0.00  0.00    +0.276 A 
ATOM      4  O   UNL     1       1.334  -1.942  -0.178  0.00  0.00    -0.266 OA
ATOM      5  C   UNL     1       0.018  -0.085  -0.004  0.00  0.00    +0.114 A 
ATOM      6  C   UNL     1      -0.023   1.275   0.106  0.00  0.00    +0.108 A 
ATOM      7  N   UNL     1       1.155   1.977   0.140  0.00  0.00    -0.277 N 
ENDROOT
BRANCH   7   8
ATOM      8  C   UNL     1       1.135   3.373   0.252  0.00  0.00    +0.050 A 
ATOM      9  C   UNL     1       1.616   4.162  -0.785  0.00  0.00    +0.026 A 
ATOM     10  C   UNL     1       1.589   5.538  -0.674  0.00  0.00    +0.002 A 
ATOM     11  C   UNL     1       1.093   6.131   0.472  0.00  0.00    +0.000 A 
ATOM     12  C   UNL     1       0.618   5.349   1.509  0.00  0.00    +0.002 A 
ATOM     13  C   UNL     1       0.637   3.972   1.401  0.00  0.00    +0.026 A 
ENDBRANCH   7   8
BRANCH   6  14
ATOM     14  N   UNL     1      -1.230   1.933   0.176  0.00  0.00    -0.344 N 
ATOM     15  H   UNL     1      -2.059   1.431   0.148  0.00  0.00    +0.144 HD
ATOM     16  H   UNL     1      -1.251   2.900   0.254  0.00  0.00    +0.144 HD
ENDBRANCH   6  14
BRANCH   1  17
ATOM     17  S   UNL     1       3.850   2.238   0.109  0.00  0.00    -0.074 S 
BRANCH  17  18
ATOM     18  C   UNL     1       5.049   0.882   0.116  0.00  0.00    +0.140 C 
BRANCH  18  19
ATOM     19  C   UNL     1       5.027   0.185  -1.220  0.00  0.00    +0.232 C 
ATOM     20  O   UNL     1       4.657   0.781  -2.209  0.00  0.00    -0.274 OA
ATOM     21  N   UNL     1       5.417  -1.101  -1.315  0.00  0.00    -0.262 N 
ATOM     22  C   UNL     1       5.396  -1.745  -2.548  0.00  0.00    +0.188 A 
ATOM     23  N   UNL     1       5.034  -1.284  -3.733  0.00  0.00    -0.126 NA
ATOM     24  N   UNL     1       5.073  -2.004  -4.769  0.00  0.00    -0.145 NA
ATOM     25  C   UNL     1       5.482  -3.256  -4.702  0.00  0.00    +0.101 A 
ATOM     26  S   UNL     1       5.846  -3.375  -2.955  0.00  0.00    -0.036 S 
ATOM     27  C   UNL     1       5.612  -4.290  -5.790  0.00  0.00    +0.075 C 
ATOM     28  H   UNL     1       5.713  -1.578  -0.524  0.00  0.00    +0.157 HD
ENDBRANCH  18  19
BRANCH  18  30
ATOM     29  C   UNL     1       6.512   2.026   1.788  0.00  0.00    +0.005 C 
ATOM     30  C   UNL     1       6.450   1.442   0.375  0.00  0.00    +0.020 C 
ENDBRANCH  18  30
ENDBRANCH  17  18
ENDBRANCH   1  17
TORSDOF 6
