REMARK  Name = ZINC36855910
REMARK  6 active torsions:
REMARK  status: ('A' for Active; 'I' for Inactive)
REMARK    1  A    between atoms: C_3  and  C_6
REMARK    2  A    between atoms: C_9  and  S_12
REMARK    3  A    between atoms: N_10  and  N_11
REMARK    4  A    between atoms: S_12  and  C_13
REMARK    5  A    between atoms: C_13  and  C_14
REMARK    6  A    between atoms: N_16  and  C_17
REMARK                            x       y       z     vdW  Elec       q    Type
REMARK                         _______ _______ _______ _____ _____    ______ ____
ROOT
ATOM      1  C   UNL     1      10.813   1.183  -0.891  0.00  0.00    +0.227 C 
ATOM      2  O   UNL     1      11.770   1.538  -1.547  0.00  0.00    -0.275 OA
ATOM      3  N   UNL     1      10.933   0.156  -0.026  0.00  0.00    -0.285 N 
ATOM      4  H   UNL     1      10.188  -0.085   0.547  0.00  0.00    +0.155 HD
ENDROOT
BRANCH   3   5
ATOM      5  C   UNL     1      12.133  -0.563   0.046  0.00  0.00    +0.037 A 
ATOM      6  C   UNL     1      12.109  -1.929   0.292  0.00  0.00    +0.027 A 
ATOM      7  C   UNL     1      13.292  -2.641   0.363  0.00  0.00    +0.051 A 
ATOM      8  C   UNL     1      14.502  -1.993   0.189  0.00  0.00    +0.167 A 
ATOM      9  C   UNL     1      14.529  -0.621  -0.058  0.00  0.00    +0.169 A 
ATOM     10  C   UNL     1      13.345   0.090  -0.134  0.00  0.00    +0.072 A 
ATOM     11  O   UNL     1      15.837  -0.233  -0.193  0.00  0.00    -0.447 OA
ATOM     12  C   UNL     1      16.574  -1.274   0.463  0.00  0.00    +0.254 C 
ATOM     13  O   UNL     1      15.795  -2.452   0.209  0.00  0.00    -0.448 OA
ATOM     14  C   UNL     1      16.703  -1.004   1.965  0.00  0.00    +0.093 C 
ATOM     15  C   UNL     1      18.106  -1.558   2.326  0.00  0.00    +0.008 C 
ATOM     16  C   UNL     1      18.952  -1.196   1.080  0.00  0.00    +0.008 C 
ATOM     17  C   UNL     1      17.986  -1.405  -0.108  0.00  0.00    +0.093 C 
ENDBRANCH   3   5
BRANCH   1  18
ATOM     18  C   UNL     1       9.491   1.890  -1.043  0.00  0.00    +0.173 C 
BRANCH  18  19
ATOM     19  S   UNL     1       9.652   3.214  -2.272  0.00  0.00    -0.075 S 
BRANCH  19  23
ATOM     20  C   UNL     1       6.326   5.191  -2.832  0.00  0.00    +0.217 A 
ATOM     21  N   UNL     1       5.986   4.303  -1.924  0.00  0.00    -0.123 NA
ATOM     22  N   UNL     1       6.997   3.565  -1.633  0.00  0.00    -0.120 NA
ATOM     23  C   UNL     1       8.045   3.935  -2.335  0.00  0.00    +0.209 A 
ATOM     24  N   UNL     1       7.655   4.978  -3.127  0.00  0.00    -0.221 N 
BRANCH  20  27
ATOM     25  C   UNL     1       3.673   7.392  -4.054  0.00  0.00    +0.042 A 
ATOM     26  C   UNL     1       4.091   6.245  -3.352  0.00  0.00    +0.053 A 
ATOM     27  C   UNL     1       5.451   6.215  -3.425  0.00  0.00    +0.173 A 
ATOM     28  O   UNL     1       5.856   7.287  -4.135  0.00  0.00    -0.460 OA
ATOM     29  C   UNL     1       4.783   8.000  -4.517  0.00  0.00    +0.196 A 
ENDBRANCH  20  27
BRANCH  24  30
ATOM     30  N   UNL     1       8.423   5.668  -4.022  0.00  0.00    -0.294 N 
ATOM     31  H   UNL     1       8.874   6.455  -3.580  0.00  0.00    +0.163 HD
ATOM     32  H   UNL     1       9.101   5.061  -4.459  0.00  0.00    +0.163 HD
ENDBRANCH  24  30
ENDBRANCH  19  23
ENDBRANCH  18  19
ENDBRANCH   1  18
TORSDOF 6
