REMARK  Name = ZINC13096086
REMARK  4 active torsions:
REMARK  status: ('A' for Active; 'I' for Inactive)
REMARK    1  A    between atoms: C_5  and  N_7
REMARK    2  A    between atoms: C_8  and  C_10
REMARK    3  A    between atoms: C_10  and  N_11
REMARK    4  A    between atoms: C_13  and  C_22
REMARK                            x       y       z     vdW  Elec       q    Type
REMARK                         _______ _______ _______ _____ _____    ______ ____
ROOT
ATOM      1  N   UNL     1       1.127   3.635   0.445  0.00  0.00    -0.314 N 
ATOM      2  C   UNL     1       2.412   4.264   0.771  0.00  0.00    +0.160 C 
ATOM      3  C   UNL     1       2.217   5.785   0.808  0.00  0.00    +0.275 C 
ATOM      4  O   UNL     1       1.839   6.212  -0.505  0.00  0.00    -0.476 OA
ATOM      5  C   UNL     1       0.885   5.473  -1.136  0.00  0.00    +0.143 A 
ATOM      6  C   UNL     1       0.530   4.208  -0.682  0.00  0.00    +0.073 A 
ATOM      7  C   UNL     1      -0.445   3.485  -1.360  0.00  0.00    +0.027 A 
ATOM      8  C   UNL     1      -1.060   4.021  -2.474  0.00  0.00    +0.002 A 
ATOM      9  C   UNL     1      -0.708   5.280  -2.922  0.00  0.00    +0.004 A 
ATOM     10  C   UNL     1       0.262   6.006  -2.255  0.00  0.00    +0.047 A 
ENDROOT
BRANCH   3  11
ATOM     11  C   UNL     1       3.506   6.455   1.211  0.00  0.00    +0.253 C 
ATOM     12  O   UNL     1       4.085   7.176   0.426  0.00  0.00    -0.272 OA
ATOM     13  N   UNL     1       4.014   6.252   2.442  0.00  0.00    -0.326 N 
ATOM     14  H   UNL     1       3.551   5.675   3.069  0.00  0.00    +0.145 HD
ATOM     15  H   UNL     1       4.844   6.683   2.701  0.00  0.00    +0.145 HD
ENDBRANCH   3  11
BRANCH   1  16
ATOM     16  C   UNL     1       1.279   2.183   0.279  0.00  0.00    +0.201 C 
BRANCH  16  18
ATOM     17  N   UNL     1       1.970   0.253   1.663  0.00  0.00    -0.283 N 
ATOM     18  C   UNL     1       1.668   1.564   1.597  0.00  0.00    +0.235 C 
ATOM     19  O   UNL     1       1.704   2.246   2.600  0.00  0.00    -0.274 OA
ATOM     20  H   UNL     1       1.879  -0.306   0.875  0.00  0.00    +0.155 HD
BRANCH  17  25
ATOM     21  C   UNL     1       2.357  -0.390   5.263  0.00  0.00    +0.002 A 
ATOM     22  C   UNL     1       3.299  -1.402   5.249  0.00  0.00    +0.002 A 
ATOM     23  C   UNL     1       3.802  -1.867   4.048  0.00  0.00    +0.022 A 
ATOM     24  C   UNL     1       3.364  -1.320   2.856  0.00  0.00    +0.062 A 
ATOM     25  C   UNL     1       2.417  -0.303   2.867  0.00  0.00    +0.052 A 
ATOM     26  C   UNL     1       1.919   0.164   4.076  0.00  0.00    +0.025 A 
ATOM     27 CL   UNL     1       3.995  -1.903   1.348  0.00  0.00    -0.082 Cl
ENDBRANCH  17  25
ENDBRANCH  16  18
ENDBRANCH   1  16
TORSDOF 4
