REMARK  Name = ZINC58408927
REMARK  5 active torsions:
REMARK  status: ('A' for Active; 'I' for Inactive)
REMARK    1  A    between atoms: C_1  and  C_2
REMARK    2  A    between atoms: C_2  and  N_3
REMARK    3  A    between atoms: C_4  and  C_6
REMARK    4  A    between atoms: C_6  and  N_12
REMARK    5  A    between atoms: C_13  and  C_15
REMARK                            x       y       z     vdW  Elec       q    Type
REMARK                         _______ _______ _______ _____ _____    ______ ____
ROOT
ATOM      1  C   UNL     1      -3.047  -2.260   0.061  0.00  0.00    +0.111 C 
ATOM      2  C   UNL     1      -3.536  -2.214   1.510  0.00  0.00    +0.035 C 
ATOM      3  C   UNL     1      -5.005  -2.638   1.567  0.00  0.00    +0.003 C 
ATOM      4  C   UNL     1      -5.145  -4.063   1.027  0.00  0.00    +0.000 C 
ATOM      5  C   UNL     1      -4.657  -4.109  -0.422  0.00  0.00    +0.003 C 
ATOM      6  C   UNL     1      -3.188  -3.685  -0.479  0.00  0.00    +0.035 C 
ENDROOT
BRANCH   1   8
ATOM      7  N   UNL     1      -1.087  -1.341  -1.136  0.00  0.00    -0.314 N 
ATOM      8  C   UNL     1      -1.600  -1.843   0.005  0.00  0.00    +0.237 C 
ATOM      9  O   UNL     1      -0.897  -1.958   0.986  0.00  0.00    -0.273 OA
ATOM     10  H   UNL     1      -1.628  -1.316  -1.941  0.00  0.00    +0.149 HD
BRANCH   7  12
ATOM     11  C   UNL     1       0.617  -0.325  -2.565  0.00  0.00    +0.024 C 
ATOM     12  C   UNL     1       0.286  -0.833  -1.161  0.00  0.00    +0.101 C 
ENDBRANCH   7  12
ENDBRANCH   1   8
BRANCH   1  13
ATOM     13  N   UNL     1      -3.851  -1.347  -0.755  0.00  0.00    -0.301 N 
ATOM     14  C   UNL     1      -3.805  -0.020  -0.525  0.00  0.00    +0.218 C 
ATOM     15  O   UNL     1      -3.170   0.411   0.414  0.00  0.00    -0.275 OA
ATOM     16  H   UNL     1      -4.417  -1.698  -1.461  0.00  0.00    +0.150 HD
BRANCH  14  17
ATOM     17  C   UNL     1      -4.544   0.928  -1.434  0.00  0.00    +0.097 C 
ATOM     18  C   UNL     1      -3.993   0.810  -2.865  0.00  0.00    +0.037 C 
ATOM     19  C   UNL     1      -4.510   1.987  -3.728  0.00  0.00    +0.166 C 
ATOM     20  S   UNL     1      -4.763   3.318  -2.485  0.00  0.00    -0.030 S 
ATOM     21  O   UNL     1      -6.143   3.657  -2.445  0.00  0.00    -0.174 OA
ATOM     22  O   UNL     1      -3.799   4.340  -2.698  0.00  0.00    -0.174 OA
ATOM     23  C   UNL     1      -4.329   2.392  -0.953  0.00  0.00    +0.178 C 
ENDBRANCH  14  17
ENDBRANCH   1  13
TORSDOF 4
