REMARK  Name = ZINC20517687
REMARK  7 active torsions:
REMARK  status: ('A' for Active; 'I' for Inactive)
REMARK    1  A    between atoms: C_1  and  C_2
REMARK    2  A    between atoms: C_4  and  C_37
REMARK    3  A    between atoms: C_6  and  N_8
REMARK    4  A    between atoms: C_13  and  C_32
REMARK    5  A    between atoms: C_25  and  C_30
REMARK    6  A    between atoms: C_32  and  C_33
REMARK    7  A    between atoms: C_33  and  C_34
REMARK                            x       y       z     vdW  Elec       q    Type
REMARK                         _______ _______ _______ _____ _____    ______ ____
ROOT
ATOM      1  N   UNL     1       0.050  -2.798   2.395  0.00  0.00    -0.210 N 
ATOM      2  C   UNL     1      -0.025  -4.133   2.452  0.00  0.00    +0.232 C 
ATOM      3  O   UNL     1      -0.112  -4.871   1.494  0.00  0.00    -0.274 OA
ATOM      4  C   UNL     1       0.015  -4.578   3.896  0.00  0.00    +0.107 C 
ATOM      5  C   UNL     1      -1.361  -5.160   4.285  0.00  0.00    +0.068 C 
ATOM      6  N   UNL     1      -1.676  -4.546   5.603  0.00  0.00    -0.295 NA
ATOM      7  C   UNL     1      -1.190  -3.159   5.480  0.00  0.00    +0.136 C 
ATOM      8  C   UNL     1       0.134  -3.240   4.679  0.00  0.00    +0.123 C 
ATOM      9  C   UNL     1       0.146  -2.196   3.587  0.00  0.00    +0.233 C 
ATOM     10  O   UNL     1       0.227  -1.000   3.762  0.00  0.00    -0.274 OA
ATOM     11  C   UNL     1      -2.201  -2.279   4.803  0.00  0.00    +0.004 A 
ATOM     12  C   UNL     1      -2.810  -2.310   3.568  0.00  0.00    +0.009 A 
ATOM     13  C   UNL     1      -3.728  -1.334   3.223  0.00  0.00    +0.021 A 
ATOM     14  C   UNL     1      -4.032  -0.326   4.122  0.00  0.00    +0.046 A 
ATOM     15  C   UNL     1      -3.423  -0.291   5.360  0.00  0.00    -0.011 A 
ATOM     16  C   UNL     1      -2.498  -1.270   5.715  0.00  0.00    +0.043 A 
ATOM     17  N   UNL     1      -1.762  -1.447   6.888  0.00  0.00    -0.283 N 
ATOM     18  C   UNL     1      -0.969  -2.534   6.831  0.00  0.00    +0.243 C 
ATOM     19  O   UNL     1      -0.222  -2.933   7.699  0.00  0.00    -0.273 OA
ATOM     20  C   UNL     1      -3.760   0.811   6.331  0.00  0.00    +0.047 C 
ATOM     21 CL   UNL     1      -5.183   0.899   3.689  0.00  0.00    -0.083 Cl
ATOM     22  H   UNL     1      -2.668  -4.567   5.783  0.00  0.00    +0.123 HD
ATOM     23  H   UNL     1      -1.815  -0.856   7.655  0.00  0.00    +0.155 HD
ENDROOT
BRANCH   1  29
ATOM     24  C   UNL     1       2.376   0.050  -0.871  0.00  0.00    +0.044 C 
ATOM     25  C   UNL     1       1.149  -0.700  -0.420  0.00  0.00    -0.048 A 
ATOM     26  C   UNL     1       0.007  -0.687  -1.199  0.00  0.00    +0.006 A 
ATOM     27  C   UNL     1      -1.121  -1.373  -0.788  0.00  0.00    -0.048 A 
ATOM     28  C   UNL     1      -1.110  -2.074   0.402  0.00  0.00    +0.027 A 
ATOM     29  C   UNL     1       0.035  -2.088   1.186  0.00  0.00    +0.044 A 
ATOM     30  C   UNL     1       1.168  -1.403   0.768  0.00  0.00    +0.027 A 
ATOM     31  C   UNL     1      -2.365  -1.357  -1.640  0.00  0.00    +0.044 C 
ENDBRANCH   1  29
BRANCH   5  32
ATOM     32  C   UNL     1      -1.278  -6.683   4.412  0.00  0.00    +0.028 C 
BRANCH  32  33
ATOM     33  C   UNL     1      -2.675  -7.250   4.674  0.00  0.00    +0.097 C 
BRANCH  33  34
ATOM     34  C   UNL     1      -2.593  -8.749   4.798  0.00  0.00    +0.211 C 
ATOM     35  O   UNL     1      -1.523  -9.310   4.688  0.00  0.00    -0.276 OA
ATOM     36  N   UNL     1      -3.709  -9.468   5.032  0.00  0.00    -0.329 N 
ATOM     37  H   UNL     1      -4.565  -9.020   5.121  0.00  0.00    +0.145 HD
ATOM     38  H   UNL     1      -3.656 -10.433   5.112  0.00  0.00    +0.145 HD
ENDBRANCH  33  34
ENDBRANCH  32  33
ENDBRANCH   5  32
TORSDOF 4
