REMARK  Name = ZINC38586932
REMARK  3 active torsions:
REMARK  status: ('A' for Active; 'I' for Inactive)
REMARK    1  A    between atoms: C_1  and  C_2
REMARK    2  A    between atoms: C_4  and  C_25
REMARK    3  A    between atoms: C_28  and  C_31
REMARK                            x       y       z     vdW  Elec       q    Type
REMARK                         _______ _______ _______ _____ _____    ______ ____
ROOT
ATOM      1  C   UNL     1      -0.018   1.503   0.010  0.00  0.00    +0.062 C 
ATOM      2  C   UNL     1       0.002  -0.004   0.002  0.00  0.00    +0.023 C 
ATOM      3  C   UNL     1      -1.069  -0.755   0.003  0.00  0.00    +0.005 C 
ATOM      4  C   UNL     1      -2.522  -0.308   0.071  0.00  0.00    +0.108 C 
ATOM      5  S   UNL     1      -3.524  -1.599  -0.737  0.00  0.00    -0.139 S 
ATOM      6  C   UNL     1      -3.621  -2.936   0.472  0.00  0.00    +0.165 C 
ATOM      7  C   UNL     1      -2.454  -3.133   1.330  0.00  0.00    +0.225 C 
ATOM      8  O   UNL     1      -2.702  -3.634   2.406  0.00  0.00    -0.275 OA
ATOM      9  N   UNL     1      -1.182  -2.863   1.139  0.00  0.00    -0.291 N 
ATOM     10  C   UNL     1      -0.632  -2.199  -0.036  0.00  0.00    +0.210 C 
ATOM     11  N   UNL     1       0.836  -2.135   0.035  0.00  0.00    -0.213 N 
ATOM     12  N   UNL     1       1.157  -0.768  -0.014  0.00  0.00    -0.265 N 
ATOM     13  C   UNL     1       1.694  -3.171   0.124  0.00  0.00    +0.150 C 
ATOM     14  N   UNL     1       1.262  -4.419   0.151  0.00  0.00    -0.221 NA
ATOM     15  C   UNL     1       2.056  -5.474   0.301  0.00  0.00    +0.225 C 
ATOM     16  N   UNL     1       3.300  -5.370   0.753  0.00  0.00    -0.218 NA
ATOM     17  C   UNL     1       3.736  -4.136   0.984  0.00  0.00    +0.164 C 
ATOM     18  N   UNL     1       4.565  -3.608   1.833  0.00  0.00    -0.219 NA
ATOM     19  C   UNL     1       4.402  -2.281   1.912  0.00  0.00    +0.218 C 
ATOM     20  N   UNL     1       3.583  -1.810   1.014  0.00  0.00    -0.253 NA
ATOM     21  C   UNL     1       3.182  -2.951   0.189  0.00  0.00    +0.239 C 
ATOM     22  H   UNL     1      -0.560  -3.127   1.835  0.00  0.00    +0.151 HD
ATOM     23  H   UNL     1       2.058  -0.411  -0.050  0.00  0.00    +0.170 HD
ENDROOT
BRANCH   4  24
ATOM     24  C   UNL     1      -2.689   1.002  -0.654  0.00  0.00    -0.030 A 
ATOM     25  C   UNL     1      -2.386   1.091  -2.000  0.00  0.00    +0.005 A 
ATOM     26  C   UNL     1      -2.540   2.293  -2.664  0.00  0.00    +0.012 A 
ATOM     27  C   UNL     1      -2.997   3.406  -1.983  0.00  0.00    +0.055 A 
ATOM     28  C   UNL     1      -3.301   3.317  -0.638  0.00  0.00    +0.012 A 
ATOM     29  C   UNL     1      -3.151   2.114   0.026  0.00  0.00    +0.005 A 
BRANCH  27  30
ATOM     30  C   UNL     1      -3.164   4.717  -2.708  0.00  0.00    +0.417 C 
ATOM     31  F   UNL     1      -4.458   4.798  -3.235  0.00  0.00    -0.166 F 
ATOM     32  F   UNL     1      -2.958   5.774  -1.814  0.00  0.00    -0.166 F 
ATOM     33  F   UNL     1      -2.232   4.797  -3.748  0.00  0.00    -0.166 F 
ENDBRANCH  27  30
ENDBRANCH   4  24
TORSDOF 2
