REMARK  Name = ZINC55066013
REMARK  4 active torsions:
REMARK  status: ('A' for Active; 'I' for Inactive)
REMARK    1  A    between atoms: C_4  and  C_7
REMARK    2  A    between atoms: C_7  and  C_8
REMARK    3  A    between atoms: N_10  and  C_22
REMARK    4  A    between atoms: C_13  and  N_21
REMARK                            x       y       z     vdW  Elec       q    Type
REMARK                         _______ _______ _______ _____ _____    ______ ____
ROOT
ATOM      1  C   UNL     1       4.171  -0.963   1.399  0.00  0.00    +0.060 C 
ATOM      2  C   UNL     1       3.225  -1.893   2.182  0.00  0.00    +0.124 C 
ATOM      3  N   UNL     1       4.082  -2.682   3.072  0.00  0.00    -0.295 N 
ATOM      4  C   UNL     1       5.369  -2.620   2.696  0.00  0.00    +0.255 C 
ATOM      5  O   UNL     1       6.278  -3.204   3.245  0.00  0.00    -0.272 OA
ATOM      6  C   UNL     1       5.526  -1.721   1.490  0.00  0.00    +0.171 C 
ATOM      7  N   UNL     1       6.483  -0.650   1.815  0.00  0.00    -0.318 N 
ATOM      8  C   UNL     1       5.788   0.398   2.430  0.00  0.00    +0.033 A 
ATOM      9  C   UNL     1       4.430   0.307   2.175  0.00  0.00    -0.015 A 
ATOM     10  C   UNL     1       3.571   1.282   2.643  0.00  0.00    +0.006 A 
ATOM     11  C   UNL     1       4.063   2.349   3.372  0.00  0.00    +0.000 A 
ATOM     12  C   UNL     1       5.418   2.439   3.633  0.00  0.00    +0.002 A 
ATOM     13  C   UNL     1       6.269   1.458   3.197  0.00  0.00    +0.023 A 
ATOM     14  H   UNL     1       7.436  -0.668   1.634  0.00  0.00    +0.148 HD
ENDROOT
BRANCH   3  15
ATOM     15  C   UNL     1       3.596  -3.441   4.228  0.00  0.00    +0.076 C 
ATOM     16  C   UNL     1       4.266  -2.918   5.500  0.00  0.00    +0.022 C 
ATOM     17  C   UNL     1       3.758  -3.711   6.706  0.00  0.00    +0.002 C 
ATOM     18  C   UNL     1       4.097  -5.191   6.523  0.00  0.00    +0.000 C 
ATOM     19  C   UNL     1       3.426  -5.714   5.250  0.00  0.00    +0.002 C 
ATOM     20  C   UNL     1       3.934  -4.921   4.044  0.00  0.00    +0.022 C 
ENDBRANCH   3  15
BRANCH   6  21
ATOM     21  N   UNL     1       5.861  -2.458   0.264  0.00  0.00    -0.302 NA
ATOM     22  H   UNL     1       6.745  -2.936   0.359  0.00  0.00    +0.121 HD
ATOM     23  H   UNL     1       5.126  -3.103   0.017  0.00  0.00    +0.121 HD
ENDBRANCH   6  21
BRANCH   1  24
ATOM     24  C   UNL     1       3.711  -0.707  -0.038  0.00  0.00    +0.052 C 
BRANCH  24  28
ATOM     25  C   UNL     1      -0.017   1.378   0.010  0.00  0.00    +0.000 A 
ATOM     26  C   UNL     1       1.171   2.086   0.002  0.00  0.00    +0.000 A 
ATOM     27  C   UNL     1       2.377   1.411  -0.013  0.00  0.00    +0.003 A 
ATOM     28  C   UNL     1       2.396   0.029  -0.020  0.00  0.00    -0.046 A 
ATOM     29  C   UNL     1       1.208  -0.679  -0.012  0.00  0.00    +0.003 A 
ATOM     30  C   UNL     1       0.002  -0.004   0.002  0.00  0.00    +0.000 A 
ENDBRANCH  24  28
ENDBRANCH   1  24
TORSDOF 4
