REMARK  Name = ZINC39029634
REMARK  11 active torsions:
REMARK  status: ('A' for Active; 'I' for Inactive)
REMARK    1  A    between atoms: CB_1  and  CA_2
REMARK    2  A    between atoms: CA_2  and  C_4
REMARK    3  A    between atoms: CA_2  and  N_15
REMARK    4  A    between atoms: N_6  and  CA_7
REMARK    5  A    between atoms: CA_7  and  CB_9
REMARK    6  A    between atoms: CA_7  and  C_12
REMARK    7  A    between atoms: CB_9  and  CG1_10
REMARK    8  A    between atoms: CB_9  and  CG2_11
REMARK    9  A    between atoms: C_16  and  C_18
REMARK   10  A    between atoms: C_20  and  C_33
REMARK   11  A    between atoms: C_20  and  C_34
REMARK                            x       y       z     vdW  Elec       q    Type
REMARK                         _______ _______ _______ _____ _____    ______ ____
ROOT
ATOM      1  N   VAL A   1       0.711  -0.489   1.189  0.00  0.00    -0.303 N 
ATOM      2  C   UNK A   0       0.051  -0.633   2.355  0.00  0.00    +0.236 C 
ATOM      3  O   UNK A   0      -1.129  -0.361   2.423  0.00  0.00    -0.274 OA
ATOM      4  H   VAL A   1       1.654  -0.707   1.135  0.00  0.00    +0.149 HD
ENDROOT
BRANCH   2   5
ATOM      5  C   UNK A   0       0.780  -1.133   3.576  0.00  0.00    +0.179 C 
ATOM      6  C   UNK A   0       0.960  -2.664   3.454  0.00  0.00    +0.040 C 
ATOM      7  S   UNK A   0      -0.108  -3.273   4.832  0.00  0.00    -0.125 S 
ATOM      8  C   UNK A   0      -1.042  -1.706   5.097  0.00  0.00    +0.167 C 
ATOM      9  N   UNK A   0       0.032  -0.728   4.767  0.00  0.00    -0.269 N 
ATOM     10  C   UNK A   0      -0.038   0.225   5.722  0.00  0.00    +0.249 C 
ATOM     11  O   UNK A   0       0.387   1.358   5.613  0.00  0.00    -0.270 OA
ATOM     12  C   UNK A   0      -0.710  -0.320   6.918  0.00  0.00    +0.043 A 
ATOM     13  C   UNK A   0      -1.345  -1.522   6.556  0.00  0.00    -0.005 A 
ATOM     14  C   UNK A   0      -2.052  -2.256   7.480  0.00  0.00    +0.007 A 
ATOM     15  C   UNK A   0      -2.168  -1.802   8.784  0.00  0.00    +0.000 A 
ATOM     16  C   UNK A   0      -1.577  -0.610   9.160  0.00  0.00    +0.001 A 
ATOM     17  C   UNK A   0      -0.833   0.146   8.227  0.00  0.00    +0.013 A 
ATOM     18  C   UNK A   0       0.452  -3.170   2.102  0.00  0.00    +0.025 C 
ATOM     19  C   UNK A   0       2.420  -3.064   3.674  0.00  0.00    +0.025 C 
ENDBRANCH   2   5
BRANCH   1  21
ATOM     20  CB  VAL A   1      -0.019   1.526   0.010  0.00  0.00    +0.038 C 
ATOM     21  CA  VAL A   1       0.002  -0.004   0.002  0.00  0.00    +0.156 C 
BRANCH  21  22
ATOM     22  C   VAL A   1       0.707  -0.490  -1.238  0.00  0.00    +0.234 C 
ATOM     23  O   VAL A   1       1.704  -1.174  -1.140  0.00  0.00    -0.274 OA
ATOM     24  N   VAL A   1       0.231  -0.164  -2.456  0.00  0.00    -0.301 N 
ATOM     25  H   VAL A   1      -0.566   0.383  -2.534  0.00  0.00    +0.150 HD
BRANCH  24  26
ATOM     26  CA  VAL A   1       0.917  -0.637  -3.661  0.00  0.00    +0.189 C 
BRANCH  26  27
ATOM     27  CB  VAL A   1      -0.077  -0.695  -4.823  0.00  0.00    +0.014 C 
ATOM     28  CG1 VAL A   1      -0.555   0.719  -5.157  0.00  0.00    +0.009 C 
ATOM     29  CG2 VAL A   1       0.607  -1.306  -6.048  0.00  0.00    +0.009 C 
ENDBRANCH  26  27
BRANCH  26  30
ATOM     30  C   VAL A   1       2.037   0.310  -4.005  0.00  0.00    +0.376 C 
ATOM     31  O   VAL A   1       2.244   1.289  -3.308  0.00  0.00    -0.244 OA
ATOM     32  OXT VAL A   1       2.737   0.098  -4.981  0.00  0.00    -0.244 OA
ENDBRANCH  26  30
ENDBRANCH  24  26
ENDBRANCH  21  22
ENDBRANCH   1  21
TORSDOF 6
