REMARK  Name = ZINC37368265
REMARK  4 active torsions:
REMARK  status: ('A' for Active; 'I' for Inactive)
REMARK    1  A    between atoms: C_4  and  C_14
REMARK    2  A    between atoms: C_6  and  N_7
REMARK    3  A    between atoms: C_8  and  C_10
REMARK    4  A    between atoms: N_12  and  N_13
REMARK                            x       y       z     vdW  Elec       q    Type
REMARK                         _______ _______ _______ _____ _____    ______ ____
ROOT
ATOM      1  C   UNL     1      -0.013   1.374   0.194  0.00  0.00    +0.025 A 
ATOM      2  C   UNL     1       1.174   2.082   0.191  0.00  0.00    +0.022 A 
ATOM      3  C   UNL     1       2.375   1.421   0.002  0.00  0.00    +0.053 A 
ATOM      4  C   UNL     1       2.391   0.049  -0.184  0.00  0.00    +0.075 A 
ATOM      5  C   UNL     1       1.208  -0.663  -0.183  0.00  0.00    +0.037 A 
ATOM      6  C   UNL     1       0.001  -0.002   0.007  0.00  0.00    +0.034 A 
ATOM      7 CL   UNL     1       3.864   2.313  -0.001  0.00  0.00    -0.083 Cl
ENDROOT
BRANCH   6   8
ATOM      8  N   UNL     1      -1.198  -0.721   0.010  0.00  0.00    -0.278 N 
ATOM      9  C   UNL     1      -2.324  -0.155  -0.469  0.00  0.00    +0.304 C 
ATOM     10  O   UNL     1      -2.278   0.940  -0.990  0.00  0.00    -0.265 OA
ATOM     11  H   UNL     1      -1.220  -1.626   0.357  0.00  0.00    +0.155 HD
BRANCH   9  12
ATOM     12  C   UNL     1      -3.627  -0.876  -0.359  0.00  0.00    +0.313 C 
ATOM     13  O   UNL     1      -3.672  -1.972   0.162  0.00  0.00    -0.264 OA
ATOM     14  N   UNL     1      -4.753  -0.311  -0.838  0.00  0.00    -0.246 N 
ATOM     15  H   UNL     1      -4.716   0.564  -1.254  0.00  0.00    +0.169 HD
BRANCH  14  16
ATOM     16  N   UNL     1      -5.944  -0.971  -0.737  0.00  0.00    -0.254 NA
ATOM     17  H   UNL     1      -6.694  -0.426  -1.137  0.00  0.00    +0.140 HD
ATOM     18  H   UNL     1      -5.891  -1.882  -1.166  0.00  0.00    +0.140 HD
ENDBRANCH  14  16
ENDBRANCH   9  12
ENDBRANCH   6   8
BRANCH   4  19
ATOM     19  C   UNL     1       3.701  -0.667  -0.390  0.00  0.00    +0.419 C 
ATOM     20  F   UNL     1       3.463  -2.035  -0.555  0.00  0.00    -0.166 F 
ATOM     21  F   UNL     1       4.334  -0.162  -1.531  0.00  0.00    -0.166 F 
ATOM     22  F   UNL     1       4.522  -0.467   0.725  0.00  0.00    -0.166 F 
ENDBRANCH   4  19
TORSDOF 4
