REMARK  Name = ZINC19893358
REMARK  5 active torsions:
REMARK  status: ('A' for Active; 'I' for Inactive)
REMARK    1  A    between atoms: C_3  and  O_25
REMARK    2  A    between atoms: C_6  and  C_7
REMARK    3  A    between atoms: N_9  and  N_10
REMARK    4  A    between atoms: N_13  and  C_14
REMARK    5  A    between atoms: C_19  and  C_20
REMARK                            x       y       z     vdW  Elec       q    Type
REMARK                         _______ _______ _______ _____ _____    ______ ____
ROOT
ATOM      1  N   UNL     1       2.449  -4.215  -0.026  0.00  0.00    -0.218 N 
ATOM      2  C   UNL     1       3.627  -4.869  -0.054  0.00  0.00    +0.320 C 
ATOM      3  O   UNL     1       3.647  -6.085  -0.069  0.00  0.00    -0.251 OA
ATOM      4  N   UNL     1       4.783  -4.176  -0.065  0.00  0.00    -0.268 N 
ATOM      5  H   UNL     1       1.506  -4.780  -0.017  0.00  0.00    +0.174 HD
ATOM      6  H   UNL     1       4.766  -3.079  -0.146  0.00  0.00    +0.156 HD
ENDROOT
BRANCH   4   7
ATOM      7  C   UNL     1       6.005  -4.852   0.025  0.00  0.00    +0.047 A 
ATOM      8  C   UNL     1       6.065  -6.104   0.624  0.00  0.00    +0.025 A 
ATOM      9  C   UNL     1       7.272  -6.769   0.712  0.00  0.00    +0.017 A 
ATOM     10  C   UNL     1       8.421  -6.189   0.203  0.00  0.00    +0.019 A 
ATOM     11  C   UNL     1       8.364  -4.943  -0.394  0.00  0.00    +0.029 A 
ATOM     12  C   UNL     1       7.159  -4.276  -0.489  0.00  0.00    +0.077 A 
ATOM     13 BR   UNL     1      10.073  -7.103   0.325  0.00  0.00    -0.050 Br
BRANCH  12  14
ATOM     14  C   UNL     1       7.096  -2.921  -1.146  0.00  0.00    +0.419 C 
ATOM     15  F   UNL     1       8.374  -2.554  -1.581  0.00  0.00    -0.166 F 
ATOM     16  F   UNL     1       6.227  -2.973  -2.241  0.00  0.00    -0.166 F 
ATOM     17  F   UNL     1       6.629  -1.977  -0.225  0.00  0.00    -0.166 F 
ENDBRANCH  12  14
ENDBRANCH   4   7
BRANCH   1  20
ATOM     18  C   UNL     1       1.248  -2.159   0.018  0.00  0.00    +0.260 C 
ATOM     19  O   UNL     1       0.205  -2.785   0.029  0.00  0.00    -0.269 OA
ATOM     20  N   UNL     1       2.426  -2.814  -0.009  0.00  0.00    -0.229 N 
ATOM     21  H   UNL     1       3.369  -2.248  -0.019  0.00  0.00    +0.173 HD
BRANCH  18  27
ATOM     22  C   UNL     1       0.004  -0.003   0.065  0.00  0.00    +0.016 A 
ATOM     23  C   UNL     1      -0.014   1.373   0.082  0.00  0.00    +0.046 A 
ATOM     24  C   UNL     1       1.179   2.086   0.070  0.00  0.00    +0.117 A 
ATOM     25  C   UNL     1       2.395   1.413   0.042  0.00  0.00    +0.046 A 
ATOM     26  C   UNL     1       2.421   0.036   0.025  0.00  0.00    +0.016 A 
ATOM     27  C   UNL     1       1.224  -0.684   0.036  0.00  0.00    +0.038 A 
BRANCH  24  28
ATOM     28  O   UNL     1       1.157   3.443   0.087  0.00  0.00    -0.507 OA
ATOM     29  H   UNL     1       2.100   4.009   0.078  0.00  0.00    +0.292 HD
ENDBRANCH  24  28
ENDBRANCH  18  27
ENDBRANCH   1  20
TORSDOF 5
