REMARK  Name = ZINC40533126
REMARK  7 active torsions:
REMARK  status: ('A' for Active; 'I' for Inactive)
REMARK    1  A    between atoms: C_1  and  S_2
REMARK    2  A    between atoms: S_2  and  C_5
REMARK    3  A    between atoms: C_8  and  N_15
REMARK    4  A    between atoms: C_9  and  S_11
REMARK    5  A    between atoms: S_11  and  C_14
REMARK    6  A    between atoms: N_15  and  C_16
REMARK    7  A    between atoms: C_19  and  N_21
REMARK                            x       y       z     vdW  Elec       q    Type
REMARK                         _______ _______ _______ _____ _____    ______ ____
ROOT
ATOM      1  C   UNL     1       0.845  -0.437  -1.483  0.00  0.00    +0.090 A 
ATOM      2  C   UNL     1       0.133  -0.612  -2.655  0.00  0.00    +0.029 A 
ATOM      3  C   UNL     1       0.790  -0.952  -3.821  0.00  0.00    +0.027 A 
ATOM      4  C   UNL     1       2.170  -1.118  -3.815  0.00  0.00    +0.053 A 
ATOM      5  C   UNL     1       2.882  -0.941  -2.636  0.00  0.00    +0.110 A 
ATOM      6  C   UNL     1       2.219  -0.596  -1.475  0.00  0.00    +0.055 A 
ENDROOT
BRANCH   1   8
ATOM      7  C   UNL     1      -0.022   1.810   0.012  0.00  0.00    +0.200 C 
ATOM      8  S   UNL     1       0.002  -0.004   0.002  0.00  0.00    -0.006 S 
ATOM      9  O   UNL     1       0.835  -0.488   1.046  0.00  0.00    -0.170 OA
ATOM     10  O   UNL     1      -1.315  -0.510  -0.168  0.00  0.00    -0.170 OA
ENDBRANCH   1   8
BRANCH   5  11
ATOM     11  S   UNL     1       4.632  -1.151  -2.624  0.00  0.00    -0.004 S 
ATOM     12  O   UNL     1       5.102  -0.345  -3.696  0.00  0.00    -0.170 OA
ATOM     13  O   UNL     1       5.021  -0.874  -1.285  0.00  0.00    -0.170 OA
ATOM     14  C   UNL     1       4.894  -2.906  -3.000  0.00  0.00    +0.200 C 
ENDBRANCH   5  11
BRANCH   4  15
ATOM     15  N   UNL     1       2.838  -1.462  -4.993  0.00  0.00    -0.341 N 
ATOM     16  H   UNL     1       3.801  -1.577  -4.987  0.00  0.00    +0.146 HD
BRANCH  15  17
ATOM     17  C   UNL     1       2.085  -1.648  -6.235  0.00  0.00    +0.055 C 
ATOM     18  C   UNL     1       2.444  -2.854  -7.105  0.00  0.00    +0.006 C 
ATOM     19  C   UNL     1       2.834  -1.443  -7.553  0.00  0.00    -0.053 C 
BRANCH  19  20
ATOM     20  N   UNL     1       4.254  -1.075  -7.476  0.00  0.00    +0.381 N 
ATOM     21  H   UNL     1       4.763  -1.798  -6.989  0.00  0.00    -0.090 HD
ATOM     22  H   UNL     1       4.626  -0.971  -8.408  0.00  0.00    -0.090 HD
ATOM     23  H   UNL     1       4.349  -0.203  -6.977  0.00  0.00    -0.090 HD
ENDBRANCH  19  20
ENDBRANCH  15  17
ENDBRANCH   4  15
TORSDOF 5
