REMARK  Name = ZINC53734991
REMARK  8 active torsions:
REMARK  status: ('A' for Active; 'I' for Inactive)
REMARK    1  A    between atoms: C_1  and  C_2
REMARK    2  A    between atoms: C_5  and  N_16
REMARK    3  A    between atoms: C_7  and  N_8
REMARK    4  A    between atoms: N_8  and  C_9
REMARK    5  A    between atoms: C_9  and  C_10
REMARK    6  A    between atoms: C_10  and  N_11
REMARK    7  A    between atoms: N_11  and  S_12
REMARK    8  A    between atoms: S_12  and  C_15
REMARK                            x       y       z     vdW  Elec       q    Type
REMARK                         _______ _______ _______ _____ _____    ______ ____
ROOT
ATOM      1  C   UNL     1      -0.018   1.503   0.010  0.00  0.00    +0.045 C 
ATOM      2  C   UNL     1       0.002  -0.004   0.002  0.00  0.00    -0.030 A 
ATOM      3  C   UNL     1       0.006  -0.688  -1.199  0.00  0.00    +0.007 A 
ATOM      4  C   UNL     1       0.024  -2.069  -1.211  0.00  0.00    +0.023 A 
ATOM      5  C   UNL     1       0.040  -2.776  -0.014  0.00  0.00    +0.026 A 
ATOM      6  C   UNL     1       0.036  -2.092   1.193  0.00  0.00    +0.046 A 
ATOM      7  C   UNL     1       0.023  -0.704   1.202  0.00  0.00    +0.032 A 
ENDROOT
BRANCH   5   8
ATOM      8  N   UNL     1       0.058  -4.172  -0.027  0.00  0.00    -0.358 N 
ATOM      9  H   UNL     1       0.060  -4.649  -0.872  0.00  0.00    +0.142 HD
ATOM     10  H   UNL     1       0.069  -4.665   0.808  0.00  0.00    +0.142 HD
ENDBRANCH   5   8
BRANCH   7  11
ATOM     11  N   UNL     1       0.025  -0.013   2.415  0.00  0.00    -0.342 N 
ATOM     12  H   UNL     1       0.013   0.957   2.421  0.00  0.00    +0.146 HD
BRANCH  11  13
ATOM     13  C   UNL     1       0.048  -0.752   3.680  0.00  0.00    +0.118 C 
BRANCH  13  14
ATOM     14  C   UNL     1       0.046   0.236   4.848  0.00  0.00    +0.124 C 
BRANCH  14  15
ATOM     15  N   UNL     1       0.068  -0.503   6.113  0.00  0.00    -0.193 NA
ATOM     16  H   UNL     1      -0.137  -1.451   6.124  0.00  0.00    +0.148 HD
BRANCH  15  17
ATOM     17  S   UNL     1       0.442   0.280   7.523  0.00  0.00    +0.027 S 
ATOM     18  O   UNL     1       0.392  -0.730   8.522  0.00  0.00    -0.158 OA
ATOM     19  O   UNL     1       1.655   0.966   7.246  0.00  0.00    -0.158 OA
ATOM     20  C   UNL     1      -0.906   1.469   7.768  0.00  0.00    +0.214 C 
ENDBRANCH  15  17
ENDBRANCH  14  15
ENDBRANCH  13  14
ENDBRANCH  11  13
ENDBRANCH   7  11
TORSDOF 6
