REMARK  Name = ZINC27662454
REMARK  7 active torsions:
REMARK  status: ('A' for Active; 'I' for Inactive)
REMARK    1  A    between atoms: C_1  and  C_2
REMARK    2  A    between atoms: C_5  and  C_8
REMARK    3  A    between atoms: C_8  and  C_10
REMARK    4  A    between atoms: C_8  and  N_25
REMARK    5  A    between atoms: C_10  and  N_11
REMARK    6  A    between atoms: C_12  and  C_14
REMARK    7  A    between atoms: C_15  and  C_24
REMARK                            x       y       z     vdW  Elec       q    Type
REMARK                         _______ _______ _______ _____ _____    ______ ____
ROOT
ATOM      1  C   UNL     1       1.849   2.176  -1.337  0.00  0.00    -0.020 C 
ENDROOT
BRANCH   1   2
ATOM      2  N   UNL     1       0.909   1.827  -0.264  0.00  0.00    +0.385 N 
ATOM      3  C   UNL     1      -0.082   2.906  -0.054  0.00  0.00    -0.078 C 
ATOM      4  C   UNL     1      -1.257   2.809  -0.989  0.00  0.00    -0.019 C 
ATOM      5  C   UNL     1      -2.380   2.022  -0.283  0.00  0.00    -0.002 C 
ATOM      6  C   UNL     1      -2.142   0.583  -0.305  0.00  0.00    -0.002 C 
ATOM      7  C   UNL     1      -0.838   0.197   0.424  0.00  0.00    -0.019 C 
ATOM      8  C   UNL     1       0.323   0.486  -0.489  0.00  0.00    -0.078 C 
ATOM      9  H   UNL     1       1.463   1.749   0.683  0.00  0.00    -0.081 HD
ENDBRANCH   1   2
BRANCH   1  14
ATOM     10  C   UNL     1       3.316  -2.597  -4.246  0.00  0.00    +0.044 C 
ATOM     11  C   UNL     1       2.933  -1.352  -3.487  0.00  0.00    -0.050 A 
ATOM     12  C   UNL     1       2.270  -0.325  -4.133  0.00  0.00    +0.003 A 
ATOM     13  C   UNL     1       1.919   0.817  -3.437  0.00  0.00    +0.002 A 
ATOM     14  C   UNL     1       2.232   0.932  -2.096  0.00  0.00    -0.059 A 
ATOM     15  C   UNL     1       2.900  -0.093  -1.451  0.00  0.00    +0.002 A 
ATOM     16  C   UNL     1       3.246  -1.237  -2.146  0.00  0.00    +0.003 A 
ENDBRANCH   1  14
BRANCH   1  17
ATOM     17  C   UNL     1       3.103   2.809  -0.730  0.00  0.00    +0.094 C 
BRANCH  17  18
ATOM     18  N   UNL     1       2.737   4.039  -0.024  0.00  0.00    -0.310 N 
ATOM     19  C   UNL     1       3.659   4.698   0.705  0.00  0.00    +0.280 C 
ATOM     20  O   UNL     1       4.796   4.271   0.777  0.00  0.00    -0.267 OA
ATOM     21  H   UNL     1       1.709   4.425  -0.088  0.00  0.00    +0.149 HD
BRANCH  19  22
ATOM     22  C   UNL     1       3.292   5.932   1.414  0.00  0.00    +0.193 A 
ATOM     23  C   UNL     1       4.133   6.674   2.180  0.00  0.00    +0.008 A 
ATOM     24  C   UNL     1       3.342   7.799   2.676  0.00  0.00    +0.024 A 
ATOM     25  C   UNL     1       3.619   8.896   3.496  0.00  0.00    +0.013 A 
ATOM     26  C   UNL     1       2.629   9.792   3.785  0.00  0.00    +0.016 A 
ATOM     27  C   UNL     1       1.350   9.619   3.269  0.00  0.00    +0.021 A 
ATOM     28  C   UNL     1       1.058   8.543   2.458  0.00  0.00    +0.062 A 
ATOM     29  C   UNL     1       2.049   7.618   2.151  0.00  0.00    +0.137 A 
ATOM     30  O   UNL     1       2.065   6.495   1.406  0.00  0.00    -0.450 OA
ATOM     31 BR   UNL     1      -0.004  10.872   3.684  0.00  0.00    -0.050 Br
ATOM     32  C   UNL     1       5.588   6.395   2.458  0.00  0.00    +0.048 C 
ENDBRANCH  19  22
ENDBRANCH  17  18
ENDBRANCH   1  17
TORSDOF 5
