REMARK  Name = ZINC66582146
REMARK  4 active torsions:
REMARK  status: ('A' for Active; 'I' for Inactive)
REMARK    1  A    between atoms: C_1  and  C_2
REMARK    2  A    between atoms: C_5  and  C_23
REMARK    3  A    between atoms: N_13  and  S_14
REMARK    4  A    between atoms: S_14  and  C_17
REMARK                            x       y       z     vdW  Elec       q    Type
REMARK                         _______ _______ _______ _____ _____    ______ ____
ROOT
ATOM      1  C   UNL     1      -0.100   1.445  -0.111  0.00  0.00    +0.030 C 
ATOM      2  C   UNL     1      -0.003  -0.081  -0.065  0.00  0.00    +0.096 C 
ATOM      3  C   UNL     1       0.810  -0.587  -1.264  0.00  0.00    +0.041 C 
ATOM      4  C   UNL     1       2.181   0.089  -1.250  0.00  0.00    +0.108 C 
ATOM      5  C   UNL     1       2.829  -0.060   0.102  0.00  0.00    -0.013 A 
ATOM      6  C   UNL     1       4.202   0.085   0.207  0.00  0.00    +0.006 A 
ATOM      7  C   UNL     1       4.824  -0.043   1.433  0.00  0.00    +0.000 A 
ATOM      8  C   UNL     1       4.079  -0.317   2.566  0.00  0.00    +0.002 A 
ATOM      9  C   UNL     1       2.710  -0.465   2.470  0.00  0.00    +0.025 A 
ATOM     10  C   UNL     1       2.081  -0.337   1.236  0.00  0.00    +0.055 A 
ATOM     11  N   UNL     1       0.692  -0.499   1.160  0.00  0.00    -0.204 N 
ENDROOT
BRANCH   4  12
ATOM     12  C   UNL     1       3.062  -0.550  -2.292  0.00  0.00    +0.218 C 
ATOM     13  O   UNL     1       2.983  -1.742  -2.505  0.00  0.00    -0.275 OA
ATOM     14  N   UNL     1       3.937   0.202  -2.989  0.00  0.00    -0.329 N 
ATOM     15  H   UNL     1       4.053   1.140  -2.769  0.00  0.00    +0.145 HD
ATOM     16  H   UNL     1       4.451  -0.194  -3.709  0.00  0.00    +0.145 HD
ENDBRANCH   4  12
BRANCH  11  17
ATOM     17  S   UNL     1      -0.152  -1.150   2.427  0.00  0.00    +0.049 S 
ATOM     18  O   UNL     1      -1.310  -1.723   1.835  0.00  0.00    -0.155 OA
ATOM     19  O   UNL     1       0.791  -1.964   3.111  0.00  0.00    -0.155 OA
BRANCH  17  20
ATOM     20  C   UNL     1      -0.615   0.270   3.457  0.00  0.00    +0.151 C 
ATOM     21  C   UNL     1       0.641   1.062   3.827  0.00  0.00    +0.028 C 
ATOM     22  C   UNL     1       0.250   2.260   4.696  0.00  0.00    +0.002 C 
ATOM     23  C   UNL     1      -0.434   1.763   5.971  0.00  0.00    +0.000 C 
ATOM     24  C   UNL     1      -1.689   0.970   5.601  0.00  0.00    +0.002 C 
ATOM     25  C   UNL     1      -1.299  -0.227   4.732  0.00  0.00    +0.028 C 
ENDBRANCH  17  20
ENDBRANCH  11  17
TORSDOF 3
