REMARK  Name = ZINC13041663
REMARK  5 active torsions:
REMARK  status: ('A' for Active; 'I' for Inactive)
REMARK    1  A    between atoms: C_4  and  S_7
REMARK    2  A    between atoms: S_7  and  N_10
REMARK    3  A    between atoms: N_10  and  C_11
REMARK    4  A    between atoms: C_15  and  S_17
REMARK    5  A    between atoms: S_17  and  N_20
REMARK                            x       y       z     vdW  Elec       q    Type
REMARK                         _______ _______ _______ _____ _____    ______ ____
ROOT
ATOM      1  C   UNL     1       3.438  -1.982   2.291  0.00  0.00    +0.050 A 
ATOM      2  C   UNL     1       2.064  -1.996   2.088  0.00  0.00    +0.024 A 
ATOM      3  C   UNL     1       1.270  -2.865   2.809  0.00  0.00    +0.004 A 
ATOM      4  C   UNL     1       1.841  -3.721   3.734  0.00  0.00    +0.029 A 
ATOM      5  C   UNL     1       3.209  -3.709   3.939  0.00  0.00    +0.114 A 
ATOM      6  C   UNL     1       4.010  -2.846   3.217  0.00  0.00    +0.053 A 
ENDROOT
BRANCH   5   7
ATOM      7  S   UNL     1       3.931  -4.800   5.119  0.00  0.00    +0.100 S 
ATOM      8  O   UNL     1       5.162  -4.212   5.516  0.00  0.00    -0.146 OA
ATOM      9  O   UNL     1       2.908  -5.126   6.050  0.00  0.00    -0.146 OA
BRANCH   7  10
ATOM     10  N   UNL     1       4.310  -6.201   4.323  0.00  0.00    -0.118 NA
ATOM     11  C   UNL     1       4.859  -7.181   4.963  0.00  0.00    +0.117 C 
ATOM     12  C   UNL     1       5.154  -7.050   6.456  0.00  0.00    +0.073 C 
ATOM     13  C   UNL     1       4.207  -7.981   7.184  0.00  0.00    +0.008 C 
ATOM     14  C   UNL     1       4.753  -9.401   7.345  0.00  0.00    +0.002 C 
ATOM     15  C   UNL     1       5.432  -9.929   6.080  0.00  0.00    +0.019 C 
ATOM     16  C   UNL     1       4.669  -9.605   4.814  0.00  0.00    +0.102 C 
ATOM     17  N   UNL     1       5.162  -8.297   4.331  0.00  0.00    -0.331 N 
ATOM     18  H   UNL     1       5.718  -8.263   3.537  0.00  0.00    +0.147 HD
ENDBRANCH   7  10
ENDBRANCH   5   7
BRANCH   1  19
ATOM     19  N   UNL     1       4.245  -1.104   1.563  0.00  0.00    -0.216 N 
ATOM     20  H   UNL     1       4.609  -0.313   1.990  0.00  0.00    +0.174 HD
BRANCH  19  21
ATOM     21  S   UNL     1       4.578  -1.414  -0.029  0.00  0.00    +0.072 S 
ATOM     22  O   UNL     1       5.474  -0.400  -0.462  0.00  0.00    -0.150 OA
ATOM     23  O   UNL     1       3.331  -1.651  -0.667  0.00  0.00    -0.150 OA
BRANCH  21  27
ATOM     24  C   UNL     1       6.870  -5.315  -0.184  0.00  0.00    +0.000 A 
ATOM     25  C   UNL     1       5.500  -5.310  -0.370  0.00  0.00    +0.002 A 
ATOM     26  C   UNL     1       4.801  -4.119  -0.322  0.00  0.00    +0.029 A 
ATOM     27  C   UNL     1       5.470  -2.933  -0.088  0.00  0.00    +0.108 A 
ATOM     28  C   UNL     1       6.840  -2.937   0.098  0.00  0.00    +0.029 A 
ATOM     29  C   UNL     1       7.540  -4.128   0.050  0.00  0.00    +0.002 A 
ENDBRANCH  21  27
ENDBRANCH  19  21
ENDBRANCH   1  19
TORSDOF 5
