REMARK  Name = ZINC51168264
REMARK  3 active torsions:
REMARK  status: ('A' for Active; 'I' for Inactive)
REMARK    1  A    between atoms: C_5  and  C_6
REMARK    2  A    between atoms: C_10  and  N_12
REMARK    3  A    between atoms: N_12  and  N_13
REMARK                            x       y       z     vdW  Elec       q    Type
REMARK                         _______ _______ _______ _____ _____    ______ ____
ROOT
ATOM      1  C   UNL     1      -1.180  -0.886   0.009  0.00  0.00    +0.198 A 
ATOM      2  N   UNL     1      -1.006  -2.203   0.005  0.00  0.00    -0.229 NA
ATOM      3  C   UNL     1      -2.044  -3.027   0.011  0.00  0.00    +0.050 A 
ATOM      4  C   UNL     1      -3.321  -2.502   0.020  0.00  0.00    +0.015 A 
ATOM      5  C   UNL     1      -3.476  -1.113   0.023  0.00  0.00    +0.139 A 
ATOM      6  N   UNL     1      -2.393  -0.344   0.023  0.00  0.00    -0.208 NA
ATOM      7  C   UNL     1      -4.338  -3.619   0.025  0.00  0.00    +0.041 C 
ATOM      8  C   UNL     1      -3.557  -4.876  -0.418  0.00  0.00    +0.011 C 
ATOM      9  C   UNL     1      -2.113  -4.538   0.010  0.00  0.00    +0.056 C 
ENDROOT
BRANCH   1  14
ATOM     10  C   UNL     1      -0.016   1.357   0.009  0.00  0.00    +0.054 A 
ATOM     11  C   UNL     1       1.325   1.781  -0.001  0.00  0.00    +0.057 A 
ATOM     12  C   UNL     1       2.091   0.669  -0.014  0.00  0.00    +0.171 A 
ATOM     13  O   UNL     1       1.289  -0.406  -0.012  0.00  0.00    -0.445 OA
ATOM     14  C   UNL     1       0.002  -0.004   0.002  0.00  0.00    +0.173 A 
ATOM     15 BR   UNL     1       3.982   0.633  -0.033  0.00  0.00    -0.008 Br
ENDBRANCH   1  14
BRANCH   5  16
ATOM     16  N   UNL     1      -4.740  -0.547   0.033  0.00  0.00    -0.267 N 
ATOM     17  H   UNL     1      -5.526  -1.115   0.037  0.00  0.00    +0.167 HD
BRANCH  16  18
ATOM     18  N   UNL     1      -4.880   0.812   0.035  0.00  0.00    -0.255 NA
ATOM     19  H   UNL     1      -4.399   1.227  -0.749  0.00  0.00    +0.140 HD
ATOM     20  H   UNL     1      -5.854   1.075   0.042  0.00  0.00    +0.140 HD
ENDBRANCH  16  18
ENDBRANCH   5  16
TORSDOF 3
