REMARK  Name = ZINC00357698
REMARK  1 active torsions:
REMARK  status: ('A' for Active; 'I' for Inactive)
REMARK    1  A    between atoms: C_10  and  N_11
REMARK                            x       y       z     vdW  Elec       q    Type
REMARK                         _______ _______ _______ _____ _____    ______ ____
ROOT
ATOM      1  N   UNL     1      -1.220   1.999   0.034  0.00  0.00    -0.269 N 
ATOM      2  C   UNL     1      -0.207   1.331  -0.553  0.00  0.00    +0.309 C 
ATOM      3  O   UNL     1       0.693   1.944  -1.093  0.00  0.00    -0.252 OA
ATOM      4  N   UNL     1      -0.194  -0.017  -0.545  0.00  0.00    -0.254 N 
ATOM      5  C   UNL     1       0.792  -0.709  -1.246  0.00  0.00    +0.126 A 
ATOM      6  C   UNL     1       0.739  -2.096  -1.323  0.00  0.00    +0.045 A 
ATOM      7  C   UNL     1       1.721  -2.770  -2.026  0.00  0.00    +0.020 A 
ATOM      8  C   UNL     1       2.734  -2.030  -2.623  0.00  0.00    +0.036 A 
ATOM      9  C   UNL     1       2.728  -0.654  -2.502  0.00  0.00    +0.128 A 
ATOM     10  N   UNL     1       1.774  -0.039  -1.829  0.00  0.00    -0.239 NA
ATOM     11 BR   UNL     1       4.107  -2.898  -3.592  0.00  0.00    -0.049 Br
ATOM     12  H   UNL     1      -1.905   1.512   0.518  0.00  0.00    +0.156 HD
ATOM     13  H   UNL     1      -0.871  -0.505  -0.052  0.00  0.00    +0.158 HD
ENDROOT
BRANCH   1  23
ATOM     14  C   UNL     1      -4.959   5.370  -0.321  0.00  0.00    +0.001 A 
ATOM     15  C   UNL     1      -4.919   3.980  -0.233  0.00  0.00    +0.001 A 
ATOM     16  C   UNL     1      -3.732   3.318  -0.146  0.00  0.00    +0.010 A 
ATOM     17  C   UNL     1      -2.530   4.042  -0.149  0.00  0.00    +0.003 A 
ATOM     18  C   UNL     1      -2.570   5.456  -0.233  0.00  0.00    -0.016 A 
ATOM     19  C   UNL     1      -3.814   6.105  -0.322  0.00  0.00    +0.008 A 
ATOM     20  C   UNL     1      -1.368   6.183  -0.232  0.00  0.00    +0.008 A 
ATOM     21  C   UNL     1      -0.177   5.528  -0.145  0.00  0.00    +0.002 A 
ATOM     22  C   UNL     1      -0.126   4.140  -0.057  0.00  0.00    +0.024 A 
ATOM     23  C   UNL     1      -1.282   3.391  -0.054  0.00  0.00    +0.042 A 
ENDBRANCH   1  23
TORSDOF 1
