REMARK  Name = ZINC02269705
REMARK  4 active torsions:
REMARK  status: ('A' for Active; 'I' for Inactive)
REMARK    1  A    between atoms: C_4  and  C_7
REMARK    2  A    between atoms: C_4  and  O_23
REMARK    3  A    between atoms: C_13  and  C_14
REMARK    4  A    between atoms: C_13  and  O_22
REMARK                            x       y       z     vdW  Elec       q    Type
REMARK                         _______ _______ _______ _____ _____    ______ ____
ROOT
ATOM      1  C   UNL     1       1.744   3.310  -0.330  0.00  0.00    +0.053 C 
ATOM      2  C   UNL     1       3.088   3.995  -0.588  0.00  0.00    +0.009 C 
ATOM      3  C   UNL     1       3.738   3.390  -1.834  0.00  0.00    +0.001 C 
ATOM      4  C   UNL     1       3.963   1.893  -1.617  0.00  0.00    +0.003 C 
ATOM      5  C   UNL     1       2.619   1.208  -1.359  0.00  0.00    +0.036 C 
ATOM      6  C   UNL     1       1.969   1.812  -0.113  0.00  0.00    +0.081 C 
ENDROOT
BRANCH   6   7
ATOM      7  C   UNL     1       2.888   1.604   1.093  0.00  0.00    +0.087 C 
ATOM      8  C   UNL     1       3.407   0.163   1.102  0.00  0.00    +0.014 C 
ATOM      9  C   UNL     1       4.209  -0.081   2.382  0.00  0.00    +0.001 C 
ATOM     10  C   UNL     1       3.294   0.056   3.601  0.00  0.00    +0.008 C 
ATOM     11  C   UNL     1       2.771   1.493   3.686  0.00  0.00    +0.075 C 
ATOM     12  C   UNL     1       2.112   1.844   2.370  0.00  0.00    +0.139 C 
ATOM     13  O   UNL     1       0.996   2.303   2.339  0.00  0.00    -0.297 OA
ENDBRANCH   6   7
BRANCH   1  17
ATOM     14  C   UNL     1      -1.052   5.458   2.179  0.00  0.00    +0.000 C 
ATOM     15  C   UNL     1       0.353   6.038   2.004  0.00  0.00    +0.003 C 
ATOM     16  C   UNL     1       1.003   5.433   0.758  0.00  0.00    +0.035 C 
ATOM     17  C   UNL     1       1.094   3.914   0.916  0.00  0.00    +0.072 C 
ATOM     18  C   UNL     1      -0.311   3.334   1.091  0.00  0.00    +0.035 C 
ATOM     19  C   UNL     1      -0.961   3.939   2.337  0.00  0.00    +0.003 C 
BRANCH  17  20
ATOM     20  O   UNL     1       1.885   3.602   2.065  0.00  0.00    -0.388 OA
ATOM     21  H   UNL     1       1.597   4.047   2.873  0.00  0.00    +0.210 HD
ENDBRANCH  17  20
ENDBRANCH   1  17
BRANCH   6  22
ATOM     22  O   UNL     1       0.715   1.172   0.128  0.00  0.00    -0.388 OA
ATOM     23  H   UNL     1       0.781   0.218   0.275  0.00  0.00    +0.210 HD
ENDBRANCH   6  22
TORSDOF 4
