REMARK  Name = ZINC09092907
REMARK  7 active torsions:
REMARK  status: ('A' for Active; 'I' for Inactive)
REMARK    1  A    between atoms: C_1  and  C_2
REMARK    2  A    between atoms: C_2  and  C_26
REMARK    3  A    between atoms: N_5  and  C_9
REMARK    4  A    between atoms: C_9  and  C_10
REMARK    5  A    between atoms: N_12  and  C_13
REMARK    6  A    between atoms: C_13  and  C_14
REMARK    7  A    between atoms: N_16  and  C_17
REMARK                            x       y       z     vdW  Elec       q    Type
REMARK                         _______ _______ _______ _____ _____    ______ ____
ROOT
ATOM      1  C   UNL     1       4.286  -4.747   0.459  0.00  0.00    +0.213 C 
ENDROOT
BRANCH   1   6
ATOM      2  C   UNL     1       8.690  -5.689   1.794  0.00  0.00    +0.047 C 
ATOM      3  C   UNL     1       7.460  -6.469   1.326  0.00  0.00    +0.135 C 
ATOM      4  C   UNL     1       6.188  -5.742   1.713  0.00  0.00    +0.251 C 
ATOM      5  O   UNL     1       5.809  -5.474   2.833  0.00  0.00    -0.272 OA
ATOM      6  N   UNL     1       5.566  -5.454   0.553  0.00  0.00    -0.215 N 
ATOM      7  C   UNL     1       6.258  -5.898  -0.502  0.00  0.00    +0.310 C 
ATOM      8  O   UNL     1       5.897  -5.761  -1.654  0.00  0.00    -0.252 OA
ATOM      9  N   UNL     1       7.402  -6.511  -0.145  0.00  0.00    -0.281 N 
ATOM     10  H   UNL     1       8.058  -6.907  -0.740  0.00  0.00    +0.152 HD
BRANCH   3  11
ATOM     11  C   UNL     1       7.469  -7.863   1.899  0.00  0.00    -0.012 A 
ATOM     12  C   UNL     1       6.813  -8.124   3.088  0.00  0.00    +0.010 A 
ATOM     13  C   UNL     1       6.818  -9.402   3.617  0.00  0.00    +0.050 A 
ATOM     14  C   UNL     1       7.481 -10.423   2.957  0.00  0.00    +0.166 A 
ATOM     15  C   UNL     1       8.142 -10.160   1.760  0.00  0.00    +0.167 A 
ATOM     16  C   UNL     1       8.129  -8.879   1.233  0.00  0.00    +0.055 A 
ATOM     17  O   UNL     1       8.710 -11.317   1.312  0.00  0.00    -0.453 OA
ATOM     18  C   UNL     1       8.737 -12.198   2.450  0.00  0.00    +0.466 C 
ATOM     19  O   UNL     1       7.635 -11.745   3.259  0.00  0.00    -0.453 OA
ENDBRANCH   3  11
ENDBRANCH   1   6
BRANCH   1  20
ATOM     20  C   UNL     1       4.537  -3.264   0.364  0.00  0.00    +0.231 C 
ATOM     21  O   UNL     1       5.673  -2.840   0.375  0.00  0.00    -0.274 OA
ATOM     22  N   UNL     1       3.499  -2.410   0.268  0.00  0.00    -0.305 N 
ATOM     23  H   UNL     1       2.590  -2.750   0.260  0.00  0.00    +0.149 HD
BRANCH  22  24
ATOM     24  C   UNL     1       3.742  -0.969   0.176  0.00  0.00    +0.200 C 
BRANCH  24  25
ATOM     25  C   UNL     1       2.426  -0.242   0.079  0.00  0.00    +0.234 C 
ATOM     26  O   UNL     1       1.386  -0.866   0.086  0.00  0.00    -0.274 OA
ATOM     27  N   UNL     1       2.404   1.103  -0.015  0.00  0.00    -0.282 N 
ATOM     28  H   UNL     1       3.234   1.597  -0.101  0.00  0.00    +0.155 HD
BRANCH  27  29
ATOM     29  C   UNL     1       1.181   1.787   0.012  0.00  0.00    +0.072 A 
ATOM     30  C   UNL     1       0.077   1.213   0.627  0.00  0.00    +0.029 A 
ATOM     31  C   UNL     1      -1.130   1.885   0.648  0.00  0.00    +0.043 A 
ATOM     32  C   UNL     1      -1.238   3.137   0.065  0.00  0.00    +0.161 A 
ATOM     33  C   UNL     1      -0.138   3.714  -0.551  0.00  0.00    +0.195 A 
ATOM     34  C   UNL     1       1.072   3.041  -0.579  0.00  0.00    +0.182 A 
ATOM     35  F   UNL     1       2.145   3.602  -1.178  0.00  0.00    -0.200 F 
ATOM     36  F   UNL     1      -0.246   4.932  -1.124  0.00  0.00    -0.199 F 
ATOM     37  F   UNL     1      -2.418   3.794   0.091  0.00  0.00    -0.202 F 
ENDBRANCH  27  29
ENDBRANCH  24  25
ENDBRANCH  22  24
ENDBRANCH   1  20
TORSDOF 6
