REMARK  Name = ZINC02569158
REMARK  2 active torsions:
REMARK  status: ('A' for Active; 'I' for Inactive)
REMARK    1  A    between atoms: C_1  and  N_2
REMARK    2  A    between atoms: C_3  and  C_9
REMARK                            x       y       z     vdW  Elec       q    Type
REMARK                         _______ _______ _______ _____ _____    ______ ____
ROOT
ATOM      1  C   UNL     1      -2.514  -0.381   0.013  0.00  0.00    +0.034 A 
ATOM      2  C   UNL     1      -2.818   0.940   0.017  0.00  0.00    +0.058 A 
ATOM      3  S   UNL     1      -4.601   0.956   0.029  0.00  0.00    -0.096 S 
ATOM      4  C   UNL     1      -4.897  -0.793   0.028  0.00  0.00    +0.020 A 
ATOM      5  C   UNL     1      -3.605  -1.356   0.012  0.00  0.00    -0.000 A 
ATOM      6  C   UNL     1      -3.526  -2.766   0.004  0.00  0.00    +0.010 A 
ATOM      7  C   UNL     1      -4.665  -3.530   0.005  0.00  0.00    +0.001 A 
ATOM      8  C   UNL     1      -5.924  -2.947   0.015  0.00  0.00    +0.001 A 
ATOM      9  C   UNL     1      -6.036  -1.571   0.035  0.00  0.00    +0.015 A 
ENDROOT
BRANCH   1  12
ATOM     10  C   UNL     1      -0.018   1.461   0.010  0.00  0.00    +0.153 C 
ATOM     11  N   UNL     1       0.002  -0.004   0.002  0.00  0.00    -0.306 N 
ATOM     12  C   UNL     1      -1.106  -0.828   0.003  0.00  0.00    +0.163 A 
ATOM     13  N   UNL     1      -0.700  -2.068  -0.007  0.00  0.00    -0.153 NA
ATOM     14  N   UNL     1       0.702  -2.066  -0.014  0.00  0.00    -0.254 N 
ATOM     15  H   UNL     1       1.276  -2.847  -0.021  0.00  0.00    +0.191 HD
ATOM     16  C   UNL     1       1.105  -0.779  -0.013  0.00  0.00    +0.176 A 
ATOM     17  S   UNL     1       2.726  -0.228  -0.025  0.00  0.00    -0.011 S 
ENDBRANCH   1  12
TORSDOF 1
