REMARK  Name = ZINC44483614
REMARK  8 active torsions:
REMARK  status: ('A' for Active; 'I' for Inactive)
REMARK    1  A    between atoms: C_1  and  S_2
REMARK    2  A    between atoms: S_2  and  C_5
REMARK    3  A    between atoms: C_5  and  C_6
REMARK    4  A    between atoms: C_6  and  CA_7
REMARK    5  A    between atoms: CA_7  and  C_9
REMARK    6  A    between atoms: CA_7  and  N_12
REMARK    7  A    between atoms: C_13  and  C_15
REMARK    8  A    between atoms: C_20  and  O_21
REMARK                            x       y       z     vdW  Elec       q    Type
REMARK                         _______ _______ _______ _____ _____    ______ ____
ROOT
ATOM      1  N   UNL     1       0.925  -1.766  -4.146  0.00  0.00    -0.298 N 
ATOM      2  C   UNL     1       1.528  -1.468  -5.314  0.00  0.00    +0.248 C 
ATOM      3  O   UNL     1       2.734  -1.580  -5.423  0.00  0.00    -0.270 OA
ATOM      4  H   UNL     1      -0.037  -1.677  -4.060  0.00  0.00    +0.150 HD
ENDROOT
BRANCH   2   5
ATOM      5  C   UNL     1       0.724  -1.008  -6.462  0.00  0.00    +0.078 A 
ATOM      6  C   UNL     1      -0.662  -0.874  -6.340  0.00  0.00    +0.018 A 
ATOM      7  C   UNL     1      -1.408  -0.444  -7.415  0.00  0.00    +0.016 A 
ATOM      8  C   UNL     1      -0.789  -0.143  -8.620  0.00  0.00    +0.021 A 
ATOM      9  C   UNL     1       0.580  -0.272  -8.754  0.00  0.00    +0.061 A 
ATOM     10  C   UNL     1       1.346  -0.698  -7.679  0.00  0.00    +0.130 A 
ATOM     11 BR   UNL     1      -1.826   0.447 -10.087  0.00  0.00    -0.050 Br
BRANCH  10  12
ATOM     12  O   UNL     1       2.691  -0.820  -7.807  0.00  0.00    -0.506 OA
ATOM     13  H   UNL     1       2.979  -1.692  -8.109  0.00  0.00    +0.292 HD
ENDBRANCH  10  12
ENDBRANCH   2   5
BRANCH   1  14
ATOM     14  CA  UNL     1       1.724  -2.223  -3.006  0.00  0.00    +0.188 C 
BRANCH  14  15
ATOM     15  C   UNL     1       1.939  -3.711  -3.107  0.00  0.00    +0.376 C 
ATOM     16  O   UNL     1       1.324  -4.361  -3.936  0.00  0.00    -0.244 OA
ATOM     17  OXT UNL     1       2.729  -4.265  -2.361  0.00  0.00    -0.244 OA
ENDBRANCH  14  15
BRANCH  14  18
ATOM     18  C   UNL     1       0.986  -1.902  -1.705  0.00  0.00    +0.056 C 
BRANCH  18  19
ATOM     19  C   UNL     1       0.877  -0.385  -1.541  0.00  0.00    +0.168 C 
BRANCH  19  21
ATOM     20  C   UNL     1      -0.022   1.810   0.012  0.00  0.00    +0.194 C 
ATOM     21  S   UNL     1       0.002  -0.004   0.002  0.00  0.00    -0.034 S 
ATOM     22  O   UNL     1       0.798  -0.449   1.092  0.00  0.00    -0.175 OA
ATOM     23  O   UNL     1      -1.335  -0.471  -0.113  0.00  0.00    -0.175 OA
ENDBRANCH  19  21
ENDBRANCH  18  19
ENDBRANCH  14  18
ENDBRANCH   1  14
TORSDOF 7
