REMARK  Name = ZINC60381443
REMARK  7 active torsions:
REMARK  status: ('A' for Active; 'I' for Inactive)
REMARK    1  A    between atoms: C_8  and  C_13
REMARK    2  A    between atoms: C_13  and  N_14
REMARK    3  A    between atoms: N_14  and  C_15
REMARK    4  A    between atoms: N_14  and  C_18
REMARK    5  A    between atoms: C_15  and  C_16
REMARK    6  A    between atoms: C_16  and  O_17
REMARK    7  A    between atoms: C_18  and  C_19
REMARK                            x       y       z     vdW  Elec       q    Type
REMARK                         _______ _______ _______ _____ _____    ______ ____
ROOT
ATOM      1  C   UNL     1       2.242  -4.202   1.061  0.00  0.00    +0.158 C 
ENDROOT
BRANCH   1   9
ATOM      2  C   UNL     1       0.718   1.652   1.132  0.00  0.00    +0.002 A 
ATOM      3  C   UNL     1       1.957   2.235   1.329  0.00  0.00    +0.002 A 
ATOM      4  C   UNL     1       3.101   1.457   1.304  0.00  0.00    +0.031 A 
ATOM      5  C   UNL     1       3.001   0.102   1.081  0.00  0.00    +0.134 A 
ATOM      6  C   UNL     1       1.760  -0.493   0.880  0.00  0.00    +0.059 A 
ATOM      7  C   UNL     1       0.615   0.293   0.908  0.00  0.00    +0.025 A 
ATOM      8  N   UNL     1       1.674  -1.863   0.647  0.00  0.00    -0.299 N 
ATOM      9  C   UNL     1       2.649  -2.756   0.947  0.00  0.00    +0.135 C 
ATOM     10  N   UNL     1       3.887  -2.481   1.142  0.00  0.00    -0.117 NA
ATOM     11  S   UNL     1       4.439  -0.920   1.045  0.00  0.00    +0.102 S 
ATOM     12  O   UNL     1       5.019  -0.767  -0.243  0.00  0.00    -0.146 OA
ATOM     13  O   UNL     1       5.156  -0.663   2.245  0.00  0.00    -0.146 OA
ATOM     14  H   UNL     1       0.860  -2.202   0.243  0.00  0.00    +0.153 HD
ENDBRANCH   1   9
BRANCH   1  15
ATOM     15  N   UNL     1       3.419  -5.018   1.389  0.00  0.00    -0.289 NA
BRANCH  15  16
ATOM     16  C   UNL     1       4.371  -5.040   0.270  0.00  0.00    +0.113 C 
BRANCH  16  17
ATOM     17  C   UNL     1       3.751  -5.787  -0.913  0.00  0.00    +0.171 C 
BRANCH  17  18
ATOM     18  O   UNL     1       2.681  -5.012  -1.457  0.00  0.00    -0.394 OA
ATOM     19  H   UNL     1       2.193  -5.457  -2.163  0.00  0.00    +0.209 HD
ENDBRANCH  17  18
ENDBRANCH  16  17
ENDBRANCH  15  16
BRANCH  15  20
ATOM     20  C   UNL     1       3.026  -6.380   1.772  0.00  0.00    +0.123 C 
BRANCH  20  21
ATOM     21  C   UNL     1       4.209  -7.093   2.375  0.00  0.00    +0.003 A 
ATOM     22  C   UNL     1       4.854  -8.086   1.661  0.00  0.00    +0.023 A 
ATOM     23  C   UNL     1       5.940  -8.741   2.214  0.00  0.00    +0.018 A 
ATOM     24  C   UNL     1       6.381  -8.403   3.481  0.00  0.00    +0.018 A 
ATOM     25  C   UNL     1       5.737  -7.411   4.196  0.00  0.00    +0.040 A 
ATOM     26  C   UNL     1       4.653  -6.751   3.640  0.00  0.00    +0.128 A 
ATOM     27  F   UNL     1       4.026  -5.777   4.336  0.00  0.00    -0.205 F 
ATOM     28 BR   UNL     1       6.822 -10.099   1.237  0.00  0.00    -0.050 Br
ENDBRANCH  20  21
ENDBRANCH  15  20
ENDBRANCH   1  15
TORSDOF 7
