REMARK  Name = ZINC06062933
REMARK  5 active torsions:
REMARK  status: ('A' for Active; 'I' for Inactive)
REMARK    1  A    between atoms: C_1  and  C_2
REMARK    2  A    between atoms: C_8  and  C_10
REMARK    3  A    between atoms: C_10  and  S_11
REMARK    4  A    between atoms: S_11  and  C_12
REMARK    5  A    between atoms: C_15  and  C_18
REMARK                            x       y       z     vdW  Elec       q    Type
REMARK                         _______ _______ _______ _____ _____    ______ ____
ROOT
ATOM      1  C   UNL     1       1.912  -4.242  -0.037  0.00  0.00    +0.185 A 
ATOM      2  N   UNL     1       2.373  -2.957  -0.036  0.00  0.00    -0.201 NA
ATOM      3  H   UNL     1      -0.143  -4.998  -0.022  0.00  0.00    +0.191 HD
ATOM      4  C   UNL     1       1.251  -2.160  -0.021  0.00  0.00    +0.183 A 
ATOM      5  N   UNL     1       0.210  -2.960  -0.008  0.00  0.00    -0.152 NA
ATOM      6  N   UNL     1       0.599  -4.185  -0.023  0.00  0.00    -0.253 N 
ENDROOT
BRANCH   4   7
ATOM      7  C   UNL     1       1.223  -0.682  -0.020  0.00  0.00    +0.035 A 
ATOM      8  C   UNL     1       2.416   0.042  -0.026  0.00  0.00    +0.013 A 
ATOM      9  C   UNL     1       2.383   1.421  -0.025  0.00  0.00    +0.001 A 
ATOM     10  C   UNL     1       1.170   2.087  -0.016  0.00  0.00    +0.001 A 
ATOM     11  C   UNL     1      -0.017   1.377  -0.010  0.00  0.00    +0.016 A 
ATOM     12  C   UNL     1       0.002  -0.004  -0.011  0.00  0.00    +0.029 A 
ATOM     13 BR   UNL     1      -1.621  -0.974  -0.003  0.00  0.00    -0.050 Br
ENDBRANCH   4   7
BRANCH   1  14
ATOM     14  S   UNL     1       2.895  -5.705  -0.054  0.00  0.00    -0.077 S 
BRANCH  14  15
ATOM     15  C   UNL     1       1.591  -6.960  -0.046  0.00  0.00    +0.173 C 
BRANCH  15  23
ATOM     16  C   UNL     1       4.660 -13.225  -0.106  0.00  0.00    +0.089 C 
ATOM     17  C   UNL     1       3.428 -12.357  -0.090  0.00  0.00    +0.136 A 
ATOM     18  C   UNL     1       3.393 -11.005  -0.084  0.00  0.00    +0.091 A 
ATOM     19  C   UNL     1       2.006 -10.698  -0.068  0.00  0.00    +0.168 A 
ATOM     20  N   UNL     1       1.379 -11.845  -0.061  0.00  0.00    -0.063 NA
ATOM     21  O   UNL     1       2.154 -12.773  -0.078  0.00  0.00    -0.358 OA
ATOM     22  N   UNL     1       1.430  -9.428  -0.056  0.00  0.00    -0.267 N 
ATOM     23  C   UNL     1       2.214  -8.332  -0.059  0.00  0.00    +0.229 C 
ATOM     24  O   UNL     1       3.421  -8.450  -0.072  0.00  0.00    -0.275 OA
ATOM     25  H   UNL     1       0.335  -9.321  -0.044  0.00  0.00    +0.156 HD
ENDBRANCH  15  23
ENDBRANCH  14  15
ENDBRANCH   1  14
TORSDOF 4
