REMARK  Name = ZINC18196973
REMARK  4 active torsions:
REMARK  status: ('A' for Active; 'I' for Inactive)
REMARK    1  A    between atoms: C_4  and  O_30
REMARK    2  A    between atoms: C_5  and  C_7
REMARK    3  A    between atoms: C_14  and  O_15
REMARK    4  A    between atoms: C_22  and  C_25
REMARK                            x       y       z     vdW  Elec       q    Type
REMARK                         _______ _______ _______ _____ _____    ______ ____
ROOT
ATOM      1  C   UNL     1      -2.063   3.293   2.495  0.00  0.00    +0.096 C 
ATOM      2  C   UNL     1      -2.203   2.198   3.514  0.00  0.00    +0.067 A 
ATOM      3  C   UNL     1      -1.521   1.013   3.417  0.00  0.00    +0.126 A 
ATOM      4  N   UNL     1      -1.861   0.256   4.477  0.00  0.00    -0.260 N 
ATOM      5  H   UNL     1      -1.521  -0.663   4.679  0.00  0.00    +0.190 HD
ATOM      6  N   UNL     1      -2.778   0.987   5.249  0.00  0.00    -0.134 NA
ATOM      7  C   UNL     1      -2.979   2.149   4.668  0.00  0.00    +0.237 A 
ATOM      8  N   UNL     1      -0.660   0.758   2.357  0.00  0.00    -0.303 N 
ATOM      9  C   UNL     1      -0.719   1.573   1.253  0.00  0.00    +0.017 C 
ATOM     10  C   UNL     1      -1.370   2.755   1.261  0.00  0.00    +0.024 C 
ATOM     11  C   UNL     1      -1.428   3.554   0.105  0.00  0.00    +0.162 C 
ATOM     12  O   UNL     1      -2.013   4.618   0.148  0.00  0.00    -0.292 OA
ATOM     13  C   UNL     1      -0.783   3.123  -1.182  0.00  0.00    +0.088 C 
ATOM     14  C   UNL     1      -0.751   1.592  -1.233  0.00  0.00    +0.039 C 
ATOM     15  C   UNL     1      -0.013   1.086   0.008  0.00  0.00    +0.060 C 
ATOM     16  H   UNL     1      -0.033   0.019   2.395  0.00  0.00    +0.153 HD
ENDROOT
BRANCH   1  21
ATOM     17  C   UNL     1       0.798   5.218   4.031  0.00  0.00    +0.001 A 
ATOM     18  C   UNL     1       0.253   6.484   4.148  0.00  0.00    +0.004 A 
ATOM     19  C   UNL     1      -1.043   6.720   3.731  0.00  0.00    +0.046 A 
ATOM     20  C   UNL     1      -1.795   5.687   3.189  0.00  0.00    +0.121 A 
ATOM     21  C   UNL     1      -1.247   4.418   3.078  0.00  0.00    +0.006 A 
ATOM     22  C   UNL     1       0.049   4.187   3.496  0.00  0.00    +0.008 A 
BRANCH  20  23
ATOM     23  O   UNL     1      -3.068   5.918   2.773  0.00  0.00    -0.506 OA
ATOM     24  H   UNL     1      -3.736   5.785   3.459  0.00  0.00    +0.292 HD
ENDBRANCH  20  23
ENDBRANCH   1  21
BRANCH  14  25
ATOM     25  C   UNL     1      -0.027   1.139  -2.474  0.00  0.00    -0.006 A 
ATOM     26  C   UNL     1      -0.475   0.357  -3.486  0.00  0.00    +0.011 A 
ATOM     27  C   UNL     1       0.374   0.071  -4.539  0.00  0.00    +0.008 A 
ATOM     28  C   UNL     1       1.633   0.572  -4.523  0.00  0.00    +0.045 A 
ATOM     29  S   UNL     1       1.647   1.486  -2.990  0.00  0.00    -0.101 S 
ENDBRANCH  14  25
BRANCH   7  30
ATOM     30  O   UNL     1      -3.803   3.134   5.116  0.00  0.00    -0.491 OA
ATOM     31  H   UNL     1      -4.241   2.840   5.966  0.00  0.00    +0.294 HD
ENDBRANCH   7  30
TORSDOF 4
