REMARK  Name = ZINC66194451
REMARK  7 active torsions:
REMARK  status: ('A' for Active; 'I' for Inactive)
REMARK    1  A    between atoms: C_1  and  N_2
REMARK    2  A    between atoms: N_2  and  C_3
REMARK    3  A    between atoms: N_17  and  C_18
REMARK    4  A    between atoms: C_18  and  C_19
REMARK    5  A    between atoms: C_19  and  N_20
REMARK    6  A    between atoms: C_21  and  C_23
REMARK    7  A    between atoms: C_23  and  C_24
REMARK                            x       y       z     vdW  Elec       q    Type
REMARK                         _______ _______ _______ _____ _____    ______ ____
ROOT
ATOM      1  C   UNL     1      -0.096   1.459   0.011  0.00  0.00    +0.134 C 
ATOM      2  N   UNL     1      -0.046  -0.005   0.003  0.00  0.00    -0.286 N 
ATOM      3  C   UNL     1      -0.042  -0.673  -1.168  0.00  0.00    +0.302 C 
ATOM      4  O   UNL     1       0.000  -1.888  -1.175  0.00  0.00    -0.253 OA
ATOM      5  N   UNL     1      -0.084   0.007  -2.331  0.00  0.00    -0.298 N 
ATOM      6  H   UNL     1      -0.118   0.976  -2.326  0.00  0.00    +0.150 HD
ENDROOT
BRANCH   2   7
ATOM      7  C   UNL     1       0.001  -0.744   1.267  0.00  0.00    +0.080 C 
ATOM      8  C   UNL     1       1.251  -0.336   2.050  0.00  0.00    +0.041 C 
ATOM      9  C   UNL     1       1.314  -1.136   3.355  0.00  0.00    +0.108 C 
ATOM     10  N   UNL     1       0.054  -0.946   4.088  0.00  0.00    -0.317 N 
ATOM     11  C   UNL     1      -1.213  -1.222   3.397  0.00  0.00    +0.108 C 
ATOM     12  C   UNL     1      -1.248  -0.422   2.092  0.00  0.00    +0.041 C 
ATOM     13  C   UNL     1       0.062  -0.513   5.409  0.00  0.00    +0.099 A 
ATOM     14  C   UNL     1       1.271  -0.378   6.083  0.00  0.00    +0.042 A 
ATOM     15  C   UNL     1       1.264   0.053   7.397  0.00  0.00    +0.005 A 
ATOM     16  C   UNL     1       0.042   0.336   7.995  0.00  0.00    +0.018 A 
ATOM     17  C   UNL     1      -1.119   0.179   7.267  0.00  0.00    +0.084 A 
ATOM     18  N   UNL     1      -1.082  -0.229   6.012  0.00  0.00    -0.350 N 
ATOM     19  H   UNL     1      -1.913  -0.327   5.521  0.00  0.00    +0.166 HD
ENDBRANCH   2   7
BRANCH   5  20
ATOM     20  C   UNL     1      -0.080  -0.719  -3.604  0.00  0.00    +0.124 C 
BRANCH  20  21
ATOM     21  C   UNL     1      -0.133   0.281  -4.761  0.00  0.00    +0.123 C 
BRANCH  21  22
ATOM     22  N   UNL     1      -0.129  -0.444  -6.034  0.00  0.00    -0.314 N 
ATOM     23  C   UNL     1      -0.172   0.235  -7.197  0.00  0.00    +0.213 C 
ATOM     24  O   UNL     1      -0.213   1.447  -7.190  0.00  0.00    -0.276 OA
ATOM     25  H   UNL     1      -0.096  -1.414  -6.040  0.00  0.00    +0.149 HD
BRANCH  23  26
ATOM     26  C   UNL     1      -0.167  -0.511  -8.506  0.00  0.00    +0.099 C 
BRANCH  26  27
ATOM     27  C   UNL     1      -0.221   0.489  -9.663  0.00  0.00    -0.002 C 
ATOM     28  C   UNL     1      -1.589   1.201  -9.683  0.00  0.00    +0.004 C 
ATOM     29  C   UNL     1      -1.912   1.362 -11.190  0.00  0.00    +0.000 C 
ATOM     30  C   UNL     1      -1.385   0.037 -11.795  0.00  0.00    +0.000 C 
ATOM     31  C   UNL     1      -0.091  -0.252 -11.006  0.00  0.00    +0.004 C 
ENDBRANCH  26  27
ENDBRANCH  23  26
ENDBRANCH  21  22
ENDBRANCH  20  21
ENDBRANCH   5  20
TORSDOF 6
