REMARK  Name = ZINC13568706
REMARK  5 active torsions:
REMARK  status: ('A' for Active; 'I' for Inactive)
REMARK    1  A    between atoms: C_10  and  S_12
REMARK    2  A    between atoms: S_12  and  C_13
REMARK    3  A    between atoms: C_13  and  C_14
REMARK    4  A    between atoms: N_16  and  C_17
REMARK    5  A    between atoms: C_18  and  C_26
REMARK                            x       y       z     vdW  Elec       q    Type
REMARK                         _______ _______ _______ _____ _____    ______ ____
ROOT
ATOM      1  C   UNL     1       8.795   0.859  -0.078  0.00  0.00    +0.228 C 
ATOM      2  O   UNL     1       9.168  -0.295  -0.087  0.00  0.00    -0.275 OA
ATOM      3  N   UNL     1       9.698   1.859  -0.082  0.00  0.00    -0.278 N 
ATOM      4  H   UNL     1       9.400   2.782  -0.075  0.00  0.00    +0.155 HD
ENDROOT
BRANCH   3   5
ATOM      5  C   UNL     1      11.055   1.569  -0.096  0.00  0.00    +0.090 A 
ATOM      6  C   UNL     1      12.117   2.458  -0.097  0.00  0.00    +0.084 A 
ATOM      7  C   UNL     1      13.455   1.896  -0.113  0.00  0.00    -0.018 A 
ATOM      8  C   UNL     1      13.487   0.546  -0.126  0.00  0.00    -0.004 A 
ATOM      9  S   UNL     1      11.787   0.057  -0.110  0.00  0.00    -0.077 S 
ATOM     10  C   UNL     1      14.705  -0.325  -0.146  0.00  0.00    +0.043 C 
ATOM     11  C   UNL     1      15.912   0.543  -0.530  0.00  0.00    +0.005 C 
ATOM     12  C   UNL     1      15.896   1.818   0.319  0.00  0.00    +0.005 C 
ATOM     13  C   UNL     1      14.736   2.718  -0.114  0.00  0.00    +0.037 C 
BRANCH   6  14
ATOM     14  C   UNL     1      11.902   3.874  -0.082  0.00  0.00    +0.102 C 
ATOM     15  N   UNL     1      11.733   4.997  -0.070  0.00  0.00    -0.191 NA
ENDBRANCH   6  14
ENDBRANCH   3   5
BRANCH   1  16
ATOM     16  C   UNL     1       7.321   1.174  -0.063  0.00  0.00    +0.172 C 
BRANCH  16  17
ATOM     17  S   UNL     1       6.372  -0.371  -0.061  0.00  0.00    -0.089 S 
BRANCH  17  27
ATOM     18  C   UNL     1      -0.017   1.392   0.010  0.00  0.00    +0.122 A 
ATOM     19  C   UNL     1       1.192   2.078   0.002  0.00  0.00    +0.201 A 
ATOM     20  C   UNL     1       2.372   1.346  -0.013  0.00  0.00    +0.104 A 
ATOM     21  C   UNL     1       2.384  -0.054  -0.021  0.00  0.00    +0.153 A 
ATOM     22  N   UNL     1       1.151  -0.695  -0.013  0.00  0.00    -0.306 N 
ATOM     23  H   UNL     1       1.121  -1.664  -0.017  0.00  0.00    +0.170 HD
ATOM     24  C   UNL     1       0.002  -0.004   0.002  0.00  0.00    +0.254 A 
ATOM     25  O   UNL     1      -1.057  -0.613   0.009  0.00  0.00    -0.268 OA
ATOM     26  N   UNL     1       3.605  -0.583  -0.036  0.00  0.00    -0.215 NA
ATOM     27  C   UNL     1       4.692   0.160  -0.043  0.00  0.00    +0.138 A 
ATOM     28  S   UNL     1       4.102   1.737  -0.028  0.00  0.00    -0.056 S 
ATOM     29  O   UNL     1       1.219   3.432   0.008  0.00  0.00    -0.286 OA
ENDBRANCH  17  27
ENDBRANCH  16  17
ENDBRANCH   1  16
TORSDOF 5
