REMARK  Name = ZINC04993054
REMARK  9 active torsions:
REMARK  status: ('A' for Active; 'I' for Inactive)
REMARK    1  A    between atoms: C_1  and  C_2
REMARK    2  A    between atoms: C_2  and  N_3
REMARK    3  A    between atoms: N_3  and  C_4
REMARK    4  A    between atoms: N_3  and  C_6
REMARK    5  A    between atoms: C_4  and  C_5
REMARK    6  A    between atoms: C_9  and  C_12
REMARK    7  A    between atoms: C_15  and  C_26
REMARK    8  A    between atoms: C_21  and  N_25
REMARK    9  A    between atoms: C_22  and  C_23
REMARK                            x       y       z     vdW  Elec       q    Type
REMARK                         _______ _______ _______ _____ _____    ______ ____
ROOT
ATOM      1  C   UNL     1      -1.273  -6.168   0.986  0.00  0.00    +0.101 C 
ATOM      2  C   UNL     1      -0.649  -6.435   2.331  0.00  0.00    +0.049 A 
ATOM      3  C   UNL     1       0.634  -6.343   2.713  0.00  0.00    +0.041 A 
ATOM      4  N   UNL     1       0.698  -6.683   4.021  0.00  0.00    -0.278 N 
ATOM      5  N   UNL     1      -0.600  -6.996   4.455  0.00  0.00    -0.135 NA
ATOM      6  H   UNL     1       1.501  -6.707   4.565  0.00  0.00    +0.189 HD
ATOM      7  C   UNL     1      -1.410  -6.849   3.446  0.00  0.00    +0.245 A 
ATOM      8  O   UNL     1      -2.755  -7.037   3.372  0.00  0.00    -0.421 OA
ATOM      9  C   UNL     1      -3.309  -7.078   2.144  0.00  0.00    +0.201 C 
ATOM     10  C   UNL     1      -2.685  -6.697   1.008  0.00  0.00    +0.098 C 
ATOM     11  C   UNL     1       1.794  -5.936   1.842  0.00  0.00    +0.065 C 
ENDROOT
BRANCH   1  15
ATOM     12  C   UNL     1      -1.323  -1.965   0.226  0.00  0.00    +0.013 A 
ATOM     13  C   UNL     1      -0.653  -2.814  -0.634  0.00  0.00    +0.022 A 
ATOM     14  C   UNL     1      -0.637  -4.175  -0.388  0.00  0.00    +0.006 A 
ATOM     15  C   UNL     1      -1.290  -4.685   0.718  0.00  0.00    -0.034 A 
ATOM     16  C   UNL     1      -1.959  -3.835   1.579  0.00  0.00    +0.006 A 
ATOM     17  C   UNL     1      -1.972  -2.475   1.335  0.00  0.00    +0.022 A 
BRANCH  12  18
ATOM     18  N   UNL     1      -1.340  -0.589  -0.022  0.00  0.00    -0.394 NA
ATOM     19  H   UNL     1      -1.866  -0.123   0.702  0.00  0.00    +0.126 HD
BRANCH  18  21
ATOM     20  C   UNL     1       0.642  -0.208   1.365  0.00  0.00    +0.022 C 
ATOM     21  C   UNL     1       0.037  -0.077  -0.034  0.00  0.00    +0.081 C 
ENDBRANCH  18  21
BRANCH  18  22
ATOM     22  C   UNL     1      -1.968  -0.335  -1.325  0.00  0.00    +0.081 C 
ATOM     23  C   UNL     1      -3.440  -0.751  -1.272  0.00  0.00    +0.022 C 
ENDBRANCH  18  22
ENDBRANCH  12  18
ENDBRANCH   1  15
BRANCH   9  24
ATOM     24  N   UNL     1      -4.597  -7.540   2.039  0.00  0.00    -0.328 N 
ATOM     25  H   UNL     1      -5.077  -7.822   2.834  0.00  0.00    +0.145 HD
ATOM     26  H   UNL     1      -5.028  -7.584   1.171  0.00  0.00    +0.145 HD
ENDBRANCH   9  24
BRANCH  10  27
ATOM     27  C   UNL     1      -3.395  -6.801  -0.231  0.00  0.00    +0.101 C 
ATOM     28  N   UNL     1      -3.959  -6.883  -1.214  0.00  0.00    -0.191 NA
ENDBRANCH  10  27
TORSDOF 6
