REMARK  Name = ZINC02231529
REMARK  2 active torsions:
REMARK  status: ('A' for Active; 'I' for Inactive)
REMARK    1  A    between atoms: C_4  and  C_8
REMARK    2  A    between atoms: C_11  and  C_18
REMARK                            x       y       z     vdW  Elec       q    Type
REMARK                         _______ _______ _______ _____ _____    ______ ____
ROOT
ATOM      1  C   UNL     1       3.713  -0.710  -0.038  0.00  0.00    +0.152 C 
ATOM      2  C   UNL     1       3.817  -1.613   1.198  0.00  0.00    +0.088 C 
ATOM      3  C   UNL     1       4.873  -2.666   1.011  0.00  0.00    +0.055 C 
ATOM      4  N   UNL     1       5.134  -3.205  -0.149  0.00  0.00    -0.214 NA
ATOM      5  C   UNL     1       4.477  -2.743  -1.246  0.00  0.00    +0.270 A 
ATOM      6  N   UNL     1       3.789  -1.557  -1.225  0.00  0.00    -0.202 N 
ATOM      7  N   UNL     1       3.253  -1.409  -2.499  0.00  0.00    -0.042 NA
ATOM      8  N   UNL     1       3.639  -2.438  -3.183  0.00  0.00    -0.021 NA
ATOM      9  N   UNL     1       4.361  -3.223  -2.456  0.00  0.00    -0.088 NA
ENDROOT
BRANCH   1  13
ATOM     10  C   UNL     1      -0.017   1.378   0.010  0.00  0.00    +0.004 A 
ATOM     11  C   UNL     1       1.170   2.086   0.002  0.00  0.00    +0.039 A 
ATOM     12  C   UNL     1       2.379   1.411  -0.013  0.00  0.00    +0.130 A 
ATOM     13  C   UNL     1       2.398   0.026  -0.021  0.00  0.00    +0.031 A 
ATOM     14  C   UNL     1       1.209  -0.680  -0.013  0.00  0.00    +0.049 A 
ATOM     15  C   UNL     1       0.002  -0.004   0.002  0.00  0.00    +0.020 A 
ATOM     16 CL   UNL     1       1.232  -2.416  -0.022  0.00  0.00    -0.083 Cl
ATOM     17  F   UNL     1       3.539   2.103  -0.021  0.00  0.00    -0.205 F 
ENDBRANCH   1  13
BRANCH   3  18
ATOM     18  C   UNL     1       5.643  -3.108   2.184  0.00  0.00    -0.003 A 
ATOM     19  C   UNL     1       5.386  -2.556   3.443  0.00  0.00    +0.011 A 
ATOM     20  C   UNL     1       6.111  -2.975   4.537  0.00  0.00    +0.016 A 
ATOM     21  C   UNL     1       7.094  -3.941   4.392  0.00  0.00    +0.018 A 
ATOM     22  C   UNL     1       7.354  -4.492   3.149  0.00  0.00    +0.016 A 
ATOM     23  C   UNL     1       6.633  -4.087   2.046  0.00  0.00    +0.011 A 
ATOM     24 BR   UNL     1       8.085  -4.508   5.900  0.00  0.00    -0.050 Br
ENDBRANCH   3  18
TORSDOF 2
