REMARK  Name = ZINC46645462
REMARK  5 active torsions:
REMARK  status: ('A' for Active; 'I' for Inactive)
REMARK    1  A    between atoms: C_1  and  C_2
REMARK    2  A    between atoms: C_2  and  C_4
REMARK    3  A    between atoms: C_2  and  N_25
REMARK    4  A    between atoms: N_6  and  C_7
REMARK    5  A    between atoms: C_7  and  C_8
REMARK                            x       y       z     vdW  Elec       q    Type
REMARK                         _______ _______ _______ _____ _____    ______ ____
ROOT
ATOM      1  C   UNL     1       4.163  -0.117   2.602  0.00  0.00    +0.019 C 
ATOM      2  C   UNL     1       4.134   1.405   2.713  0.00  0.00    +0.018 C 
ATOM      3  C   UNL     1       4.895   1.891   3.967  0.00  0.00    +0.050 C 
ATOM      4  C   UNL     1       4.251   1.162   5.136  0.00  0.00    -0.036 A 
ATOM      5  C   UNL     1       3.682   1.772   6.217  0.00  0.00    +0.004 A 
ATOM      6  C   UNL     1       3.127   0.983   7.216  0.00  0.00    +0.000 A 
ATOM      7  C   UNL     1       3.154  -0.396   7.115  0.00  0.00    +0.000 A 
ATOM      8  C   UNL     1       3.736  -1.010   6.013  0.00  0.00    +0.004 A 
ATOM      9  C   UNL     1       4.278  -0.227   5.034  0.00  0.00    -0.036 A 
ATOM     10  C   UNL     1       4.944  -0.751   3.773  0.00  0.00    +0.054 C 
ATOM     11  C   UNL     1       6.315  -0.093   3.746  0.00  0.00    -0.036 A 
ATOM     12  C   UNL     1       6.289   1.295   3.848  0.00  0.00    -0.036 A 
ATOM     13  C   UNL     1       7.448   2.018   3.838  0.00  0.00    +0.004 A 
ATOM     14  C   UNL     1       8.656   1.344   3.723  0.00  0.00    +0.000 A 
ATOM     15  C   UNL     1       8.682  -0.035   3.621  0.00  0.00    +0.000 A 
ATOM     16  C   UNL     1       7.500  -0.763   3.634  0.00  0.00    +0.004 A 
ENDROOT
BRANCH   1  17
ATOM     17  C   UNL     1       2.727  -0.647   2.613  0.00  0.00    +0.108 C 
BRANCH  17  20
ATOM     18  C   UNL     1       0.731  -0.503   1.223  0.00  0.00    +0.233 C 
ATOM     19  O   UNL     1       0.159  -1.213   2.023  0.00  0.00    -0.274 OA
ATOM     20  N   UNL     1       2.019  -0.161   1.426  0.00  0.00    -0.313 N 
ATOM     21  H   UNL     1       2.476   0.406   0.786  0.00  0.00    +0.149 HD
BRANCH  18  23
ATOM     22  C   UNL     1      -0.019   1.526   0.010  0.00  0.00    +0.038 C 
ATOM     23  C   UNL     1       0.002  -0.004   0.002  0.00  0.00    +0.157 C 
BRANCH  23  24
ATOM     24  N   UNL     1      -1.372  -0.511   0.012  0.00  0.00    -0.289 N 
ATOM     25  C   UNL     1      -2.051  -0.643  -1.145  0.00  0.00    +0.298 C 
ATOM     26  O   UNL     1      -1.522  -0.341  -2.197  0.00  0.00    -0.253 OA
ATOM     27  N   UNL     1      -3.315  -1.109  -1.135  0.00  0.00    -0.313 N 
ATOM     28  H   UNL     1      -1.794  -0.752   0.852  0.00  0.00    +0.151 HD
ATOM     29  H   UNL     1      -3.737  -1.350  -0.295  0.00  0.00    +0.146 HD
ATOM     30  H   UNL     1      -3.804  -1.204  -1.968  0.00  0.00    +0.146 HD
ENDBRANCH  23  24
ENDBRANCH  18  23
ENDBRANCH  17  20
ENDBRANCH   1  17
TORSDOF 4
