REMARK  Name = ZINC12743163
REMARK  6 active torsions:
REMARK  status: ('A' for Active; 'I' for Inactive)
REMARK    1  A    between atoms: C_1  and  C_2
REMARK    2  A    between atoms: C_2  and  C_4
REMARK    3  A    between atoms: C_2  and  N_12
REMARK    4  A    between atoms: N_12  and  C_13
REMARK    5  A    between atoms: C_13  and  C_14
REMARK    6  A    between atoms: C_18  and  C_27
REMARK                            x       y       z     vdW  Elec       q    Type
REMARK                         _______ _______ _______ _____ _____    ______ ____
ROOT
ATOM      1  C   UNL     1       2.813  -1.012  -2.260  0.00  0.00    +0.234 C 
ATOM      2  O   UNL     1       2.142  -1.368  -3.205  0.00  0.00    -0.274 OA
ATOM      3  N   UNL     1       4.159  -1.038  -2.341  0.00  0.00    -0.263 N 
ATOM      4  C   UNL     1       4.999  -0.705  -1.178  0.00  0.00    +0.168 C 
ATOM      5  C   UNL     1       6.159   0.167  -1.679  0.00  0.00    +0.276 C 
ATOM      6  O   UNL     1       6.882  -0.558  -2.677  0.00  0.00    -0.476 OA
ATOM      7  C   UNL     1       6.170  -1.132  -3.683  0.00  0.00    +0.143 A 
ATOM      8  C   UNL     1       4.808  -1.391  -3.536  0.00  0.00    +0.078 A 
ATOM      9  C   UNL     1       4.096  -1.986  -4.564  0.00  0.00    +0.027 A 
ATOM     10  C   UNL     1       4.740  -2.329  -5.740  0.00  0.00    +0.002 A 
ATOM     11  C   UNL     1       6.091  -2.076  -5.888  0.00  0.00    +0.004 A 
ATOM     12  C   UNL     1       6.807  -1.472  -4.867  0.00  0.00    +0.047 A 
ENDROOT
BRANCH   5  13
ATOM     13  C   UNL     1       7.075   0.498  -0.529  0.00  0.00    +0.253 C 
ATOM     14  O   UNL     1       8.214   0.081  -0.521  0.00  0.00    -0.272 OA
ATOM     15  N   UNL     1       6.629   1.258   0.491  0.00  0.00    -0.326 N 
ATOM     16  H   UNL     1       5.718   1.591   0.484  0.00  0.00    +0.145 HD
ATOM     17  H   UNL     1       7.219   1.471   1.231  0.00  0.00    +0.145 HD
ENDBRANCH   5  13
BRANCH   1  18
ATOM     18  C   UNL     1       2.144  -0.538  -0.996  0.00  0.00    +0.178 C 
BRANCH  18  19
ATOM     19  N   UNL     1       0.690  -0.491  -1.200  0.00  0.00    -0.302 NA
ATOM     20  H   UNL     1       0.337  -1.388  -1.498  0.00  0.00    +0.123 HD
BRANCH  19  22
ATOM     21  C   UNL     1      -0.018   1.496   0.043  0.00  0.00    +0.029 C 
ATOM     22  C   UNL     1       0.002  -0.033   0.015  0.00  0.00    +0.081 C 
BRANCH  22  23
ATOM     23  C   UNL     1      -1.412  -0.554   0.019  0.00  0.00    -0.029 A 
ATOM     24  C   UNL     1      -2.141  -0.582  -1.156  0.00  0.00    +0.006 A 
ATOM     25  C   UNL     1      -3.438  -1.059  -1.153  0.00  0.00    +0.022 A 
ATOM     26  C   UNL     1      -4.007  -1.510   0.024  0.00  0.00    +0.059 A 
ATOM     27  C   UNL     1      -3.277  -1.484   1.200  0.00  0.00    +0.060 A 
ATOM     28  C   UNL     1      -1.977  -1.010   1.195  0.00  0.00    +0.026 A 
ATOM     29 CL   UNL     1      -3.989  -2.049   2.678  0.00  0.00    -0.082 Cl
ATOM     30 CL   UNL     1      -5.636  -2.110   0.027  0.00  0.00    -0.082 Cl
ENDBRANCH  22  23
ENDBRANCH  19  22
ENDBRANCH  18  19
ENDBRANCH   1  18
TORSDOF 5
