REMARK  Name = ZINC33039781
REMARK  10 active torsions:
REMARK  status: ('A' for Active; 'I' for Inactive)
REMARK    1  A    between atoms: C_1  and  C_2
REMARK    2  A    between atoms: C_5  and  N_9
REMARK    3  A    between atoms: C_7  and  C_8
REMARK    4  A    between atoms: C_14  and  S_16
REMARK    5  A    between atoms: S_16  and  C_17
REMARK    6  A    between atoms: C_17  and  C_19
REMARK    7  A    between atoms: C_17  and  C_20
REMARK    8  A    between atoms: N_22  and  C_23
REMARK    9  A    between atoms: C_26  and  S_29
REMARK   10  A    between atoms: S_29  and  N_32
REMARK                            x       y       z     vdW  Elec       q    Type
REMARK                         _______ _______ _______ _____ _____    ______ ____
ROOT
ATOM      1  C   UNL     1      -2.718  -3.683   0.390  0.00  0.00    +0.136 C 
ATOM      2  C   UNL     1      -2.747  -2.924  -0.938  0.00  0.00    +0.029 C 
ENDROOT
BRANCH   1   3
ATOM      3  C   UNL     1      -4.066  -4.306   0.642  0.00  0.00    +0.230 C 
ATOM      4  O   UNL     1      -4.244  -5.483   0.405  0.00  0.00    -0.274 OA
ATOM      5  N   UNL     1      -5.074  -3.557   1.131  0.00  0.00    -0.285 N 
ATOM      6  H   UNL     1      -4.938  -2.475   1.270  0.00  0.00    +0.155 HD
BRANCH   5   7
ATOM      7  C   UNL     1      -6.294  -4.157   1.464  0.00  0.00    +0.034 A 
ATOM      8  C   UNL     1      -7.481  -3.453   1.306  0.00  0.00    +0.025 A 
ATOM      9  C   UNL     1      -8.684  -4.050   1.628  0.00  0.00    +0.030 A 
ATOM     10  C   UNL     1      -8.706  -5.343   2.119  0.00  0.00    +0.105 A 
ATOM     11  C   UNL     1      -7.526  -6.044   2.284  0.00  0.00    +0.030 A 
ATOM     12  C   UNL     1      -6.320  -5.455   1.957  0.00  0.00    +0.025 A 
BRANCH  10  13
ATOM     13  S   UNL     1     -10.243  -6.098   2.537  0.00  0.00    +0.056 S 
ATOM     14  O   UNL     1     -11.242  -5.430   1.779  0.00  0.00    -0.153 OA
ATOM     15  O   UNL     1     -10.039  -7.502   2.460  0.00  0.00    -0.153 OA
BRANCH  13  16
ATOM     16  N   UNL     1     -10.543  -5.750   4.128  0.00  0.00    -0.204 NA
ATOM     17  H   UNL     1     -11.498  -6.205   4.429  0.00  0.00    +0.144 HD
ATOM     18  H   UNL     1     -10.600  -4.659   4.260  0.00  0.00    +0.144 HD
ENDBRANCH  13  16
ENDBRANCH  10  13
ENDBRANCH   5   7
ENDBRANCH   1   3
BRANCH   1  19
ATOM     19  S   UNL     1      -1.455  -4.983   0.315  0.00  0.00    -0.092 S 
BRANCH  19  25
ATOM     20  N   UNL     1       1.241  -2.062   0.019  0.00  0.00    -0.196 N 
ATOM     21  C   UNL     1       2.422  -2.708  -0.064  0.00  0.00    +0.272 A 
ATOM     22  O   UNL     1       3.462  -2.076  -0.166  0.00  0.00    -0.266 OA
ATOM     23  C   UNL     1       2.447  -4.116  -0.032  0.00  0.00    +0.075 A 
ATOM     24  C   UNL     1       1.278  -4.801   0.082  0.00  0.00    +0.042 A 
ATOM     25  C   UNL     1       0.061  -4.097   0.167  0.00  0.00    +0.119 A 
ATOM     26  N   UNL     1       0.049  -2.785   0.142  0.00  0.00    -0.157 NA
BRANCH  20  31
ATOM     27  C   UNL     1       1.105   3.608  -0.107  0.00  0.00    +0.044 C 
ATOM     28  C   UNL     1       1.141   2.102  -0.073  0.00  0.00    -0.047 A 
ATOM     29  C   UNL     1       1.873   1.408  -1.020  0.00  0.00    +0.006 A 
ATOM     30  C   UNL     1       1.909   0.028  -0.992  0.00  0.00    +0.028 A 
ATOM     31  C   UNL     1       1.208  -0.664  -0.012  0.00  0.00    +0.070 A 
ATOM     32  C   UNL     1       0.474   0.036   0.938  0.00  0.00    +0.031 A 
ATOM     33  C   UNL     1       0.443   1.416   0.904  0.00  0.00    -0.046 A 
ATOM     34  C   UNL     1      -0.358   2.176   1.929  0.00  0.00    +0.044 C 
ENDBRANCH  20  31
ENDBRANCH  19  25
ENDBRANCH   1  19
TORSDOF 7
