REMARK  Name = ZINC40796817
REMARK  5 active torsions:
REMARK  status: ('A' for Active; 'I' for Inactive)
REMARK    1  A    between atoms: C_7  and  O_11
REMARK    2  A    between atoms: O_11  and  C_12
REMARK    3  A    between atoms: C_13  and  N_27
REMARK    4  A    between atoms: C_14  and  N_18
REMARK    5  A    between atoms: N_18  and  C_19
REMARK                            x       y       z     vdW  Elec       q    Type
REMARK                         _______ _______ _______ _____ _____    ______ ____
ROOT
ATOM      1  C   UNL     1       4.672  -2.808  -0.126  0.00  0.00    +0.246 A 
ATOM      2  C   UNL     1       4.699  -4.196  -0.257  0.00  0.00    +0.128 A 
ATOM      3  C   UNL     1       5.941  -4.821  -0.398  0.00  0.00    +0.151 A 
ATOM      4  N   UNL     1       7.042  -4.073  -0.402  0.00  0.00    -0.218 NA
ATOM      5  C   UNL     1       6.970  -2.763  -0.275  0.00  0.00    +0.227 A 
ATOM      6  N   UNL     1       5.819  -2.136  -0.144  0.00  0.00    -0.199 NA
ENDROOT
BRANCH   2   7
ATOM      7  N   UNL     1       3.513  -4.944  -0.247  0.00  0.00    -0.351 N 
ATOM      8  H   UNL     1       2.658  -4.497  -0.148  0.00  0.00    +0.143 HD
ATOM      9  H   UNL     1       3.547  -5.909  -0.340  0.00  0.00    +0.143 HD
ENDBRANCH   2   7
BRANCH   3  10
ATOM     10  N   UNL     1       6.026  -6.201  -0.533  0.00  0.00    -0.295 N 
ATOM     11  H   UNL     1       5.217  -6.731  -0.616  0.00  0.00    +0.154 HD
BRANCH  10  12
ATOM     12  C   UNL     1       7.276  -6.828  -0.547  0.00  0.00    +0.071 A 
ATOM     13  C   UNL     1       8.367  -6.218   0.058  0.00  0.00    +0.064 A 
ATOM     14  C   UNL     1       9.602  -6.840   0.042  0.00  0.00    +0.125 A 
ATOM     15  C   UNL     1       9.752  -8.069  -0.577  0.00  0.00    +0.041 A 
ATOM     16  C   UNL     1       8.668  -8.679  -1.181  0.00  0.00    +0.043 A 
ATOM     17  C   UNL     1       7.429  -8.065  -1.163  0.00  0.00    +0.145 A 
ATOM     18  F   UNL     1       6.369  -8.665  -1.748  0.00  0.00    -0.204 F 
ATOM     19  F   UNL     1      10.664  -6.247   0.630  0.00  0.00    -0.205 F 
ENDBRANCH  10  12
ENDBRANCH   3  10
BRANCH   1  20
ATOM     20  O   UNL     1       3.492  -2.153   0.014  0.00  0.00    -0.434 OA
BRANCH  20  27
ATOM     21  C   UNL     1       3.772   1.355  -3.510  0.00  0.00    +0.020 A 
ATOM     22  C   UNL     1       3.712   2.062  -2.342  0.00  0.00    +0.013 A 
ATOM     23  C   UNL     1       3.625   1.343  -1.135  0.00  0.00    +0.018 A 
ATOM     24  C   UNL     1       3.560   2.001   0.105  0.00  0.00    +0.027 A 
ATOM     25  C   UNL     1       3.475   1.271   1.253  0.00  0.00    +0.019 A 
ATOM     26  C   UNL     1       3.453  -0.121   1.216  0.00  0.00    +0.049 A 
ATOM     27  C   UNL     1       3.515  -0.795   0.030  0.00  0.00    +0.156 A 
ATOM     28  C   UNL     1       3.603  -0.073  -1.179  0.00  0.00    +0.114 A 
ATOM     29  N   UNL     1       3.663  -0.703  -2.356  0.00  0.00    -0.251 NA
ATOM     30  C   UNL     1       3.745  -0.037  -3.482  0.00  0.00    +0.111 A 
ATOM     31 BR   UNL     1       3.589   3.890   0.181  0.00  0.00    -0.050 Br
ENDBRANCH  20  27
ENDBRANCH   1  20
TORSDOF 5
