REMARK  Name = ZINC40793379
REMARK  5 active torsions:
REMARK  status: ('A' for Active; 'I' for Inactive)
REMARK    1  A    between atoms: C_10  and  C_11
REMARK    2  A    between atoms: N_13  and  N_14
REMARK    3  A    between atoms: C_16  and  N_28
REMARK    4  A    between atoms: C_17  and  O_21
REMARK    5  A    between atoms: O_21  and  C_22
REMARK                            x       y       z     vdW  Elec       q    Type
REMARK                         _______ _______ _______ _____ _____    ______ ____
ROOT
ATOM      1  N   UNL     1       7.323   0.192   0.035  0.00  0.00    -0.246 N 
ATOM      2  C   UNL     1       8.534  -0.484   0.125  0.00  0.00    +0.163 A 
ATOM      3  C   UNL     1       9.741   0.219   0.124  0.00  0.00    +0.129 A 
ATOM      4  C   UNL     1      10.926  -0.508   0.217  0.00  0.00    +0.241 A 
ATOM      5  N   UNL     1      10.865  -1.833   0.303  0.00  0.00    -0.200 NA
ATOM      6  C   UNL     1       9.705  -2.460   0.301  0.00  0.00    +0.227 A 
ATOM      7  N   UNL     1       8.561  -1.811   0.220  0.00  0.00    -0.217 NA
ATOM      8  H   UNL     1       7.312   1.159  -0.034  0.00  0.00    +0.172 HD
ENDROOT
BRANCH   1  11
ATOM      9  C   UNL     1       4.945   0.132  -0.044  0.00  0.00    +0.261 C 
ATOM     10  O   UNL     1       4.931   1.345  -0.130  0.00  0.00    -0.269 OA
ATOM     11  N   UNL     1       6.119  -0.524   0.043  0.00  0.00    -0.231 N 
ATOM     12  H   UNL     1       6.130  -1.491   0.112  0.00  0.00    +0.173 HD
BRANCH   9  22
ATOM     13  C   UNL     1      -0.015   1.356   0.074  0.00  0.00    +0.001 A 
ATOM     14  C   UNL     1       1.169   2.089   0.067  0.00  0.00    +0.001 A 
ATOM     15  C   UNL     1       2.379   1.464   0.032  0.00  0.00    +0.009 A 
ATOM     16  C   UNL     1       2.436   0.064   0.001  0.00  0.00    -0.006 A 
ATOM     17  C   UNL     1       1.233  -0.683   0.008  0.00  0.00    -0.017 A 
ATOM     18  C   UNL     1       0.003  -0.005   0.045  0.00  0.00    +0.008 A 
ATOM     19  C   UNL     1       1.289  -2.087  -0.021  0.00  0.00    +0.008 A 
ATOM     20  C   UNL     1       2.494  -2.723  -0.056  0.00  0.00    +0.001 A 
ATOM     21  C   UNL     1       3.685  -2.008  -0.064  0.00  0.00    +0.014 A 
ATOM     22  C   UNL     1       3.677  -0.621  -0.036  0.00  0.00    +0.046 A 
ENDBRANCH   9  22
ENDBRANCH   1  11
BRANCH   3  23
ATOM     23  N   UNL     1       9.760   1.620   0.031  0.00  0.00    -0.351 N 
ATOM     24  H   UNL     1       8.927   2.113  -0.034  0.00  0.00    +0.143 HD
ATOM     25  H   UNL     1      10.606   2.095   0.031  0.00  0.00    +0.143 HD
ENDBRANCH   3  23
BRANCH   4  26
ATOM     26  O   UNL     1      12.125   0.127   0.220  0.00  0.00    -0.472 OA
BRANCH  26  27
ATOM     27  C   UNL     1      13.293  -0.691   0.318  0.00  0.00    +0.175 C 
ATOM     28  C   UNL     1      13.655  -0.887   1.792  0.00  0.00    +0.044 C 
ATOM     29  C   UNL     1      14.905  -1.763   1.897  0.00  0.00    +0.004 C 
ATOM     30  C   UNL     1      16.068  -1.082   1.172  0.00  0.00    +0.000 C 
ATOM     31  C   UNL     1      15.705  -0.886  -0.302  0.00  0.00    +0.004 C 
ATOM     32  C   UNL     1      14.455  -0.010  -0.407  0.00  0.00    +0.044 C 
ENDBRANCH  26  27
ENDBRANCH   4  26
TORSDOF 5
