REMARK  Name = ZINC63056042
REMARK  4 active torsions:
REMARK  status: ('A' for Active; 'I' for Inactive)
REMARK    1  A    between atoms: C_1  and  C_2
REMARK    2  A    between atoms: C_4  and  C_9
REMARK    3  A    between atoms: C_9  and  C_11
REMARK    4  A    between atoms: C_9  and  N_24
REMARK                            x       y       z     vdW  Elec       q    Type
REMARK                         _______ _______ _______ _____ _____    ______ ____
ROOT
ATOM      1  C   UNL     1       0.028  -2.816  -2.516  0.00  0.00    -0.012 C 
ENDROOT
BRANCH   1   2
ATOM      2  C   UNL     1      -1.366  -3.298  -2.824  0.00  0.00    -0.042 A 
ATOM      3  C   UNL     1      -1.746  -4.578  -2.467  0.00  0.00    +0.031 A 
ATOM      4  C   UNL     1      -3.029  -5.021  -2.750  0.00  0.00    +0.067 A 
ATOM      5  C   UNL     1      -3.932  -4.173  -3.394  0.00  0.00    +0.068 A 
ATOM      6  C   UNL     1      -3.542  -2.890  -3.748  0.00  0.00    +0.043 A 
ATOM      7  C   UNL     1      -2.263  -2.455  -3.457  0.00  0.00    +0.022 A 
ATOM      8 BR   UNL     1      -1.734  -0.703  -3.932  0.00  0.00    -0.050 Br
ATOM      9  N   UNL     1      -5.120  -4.885  -3.540  0.00  0.00    -0.306 N 
ATOM     10  H   UNL     1      -5.933  -4.555  -3.954  0.00  0.00    +0.170 HD
ATOM     11  C   UNL     1      -4.947  -6.111  -3.010  0.00  0.00    +0.325 A 
ATOM     12  O   UNL     1      -5.793  -6.984  -2.974  0.00  0.00    -0.247 OA
ATOM     13  N   UNL     1      -3.696  -6.223  -2.525  0.00  0.00    -0.306 N 
ATOM     14  H   UNL     1      -3.323  -7.007  -2.093  0.00  0.00    +0.170 HD
ENDBRANCH   1   2
BRANCH   1  18
ATOM     15  C   UNL     1      -0.018   1.503   0.010  0.00  0.00    +0.047 C 
ATOM     16  C   UNL     1       0.002  -0.004   0.002  0.00  0.00    -0.015 A 
ATOM     17  C   UNL     1       0.006  -0.689  -1.199  0.00  0.00    +0.008 A 
ATOM     18  C   UNL     1       0.025  -2.071  -1.206  0.00  0.00    -0.057 A 
ATOM     19  C   UNL     1       0.040  -2.770  -0.014  0.00  0.00    +0.005 A 
ATOM     20  C   UNL     1       0.036  -2.088   1.188  0.00  0.00    +0.039 A 
ATOM     21  C   UNL     1       0.023  -0.703   1.197  0.00  0.00    +0.126 A 
ATOM     22  F   UNL     1       0.025  -0.035   2.371  0.00  0.00    -0.205 F 
ENDBRANCH   1  18
BRANCH   1  23
ATOM     23  N   UNL     1       0.935  -3.968  -2.421  0.00  0.00    +0.385 N 
ATOM     24  H   UNL     1       1.868  -3.646  -2.216  0.00  0.00    -0.089 HD
ATOM     25  H   UNL     1       0.621  -4.583  -1.685  0.00  0.00    -0.089 HD
ATOM     26  H   UNL     1       0.937  -4.468  -3.298  0.00  0.00    -0.089 HD
ENDBRANCH   1  23
TORSDOF 3
