REMARK  Name = ZINC00669314
REMARK  2 active torsions:
REMARK  status: ('A' for Active; 'I' for Inactive)
REMARK    1  A    between atoms: C_7  and  C_11
REMARK    2  A    between atoms: N_16  and  C_19
REMARK                            x       y       z     vdW  Elec       q    Type
REMARK                         _______ _______ _______ _____ _____    ______ ____
ROOT
ATOM      1  C   UNL     1      -6.050   4.178   0.084  0.00  0.00    +0.028 C 
ATOM      2  C   UNL     1      -4.673   4.317   0.007  0.00  0.00    +0.102 C 
ATOM      3  C   UNL     1      -3.883   5.539   0.233  0.00  0.00    +0.266 C 
ATOM      4  O   UNL     1      -4.316   6.638   0.529  0.00  0.00    -0.268 OA
ATOM      5  N   UNL     1      -2.591   5.209   0.051  0.00  0.00    -0.223 N 
ATOM      6  N   UNL     1      -2.473   3.858  -0.279  0.00  0.00    -0.184 N 
ATOM      7  C   UNL     1      -3.686   3.276  -0.325  0.00  0.00    +0.272 C 
ATOM      8  O   UNL     1      -3.921   2.111  -0.589  0.00  0.00    -0.268 OA
ATOM      9  H   UNL     1      -1.691   5.837   0.128  0.00  0.00    +0.174 HD
ENDROOT
BRANCH   1  16
ATOM     10  C   UNL     1      -9.932   2.653  -1.973  0.00  0.00    +0.001 A 
ATOM     11  C   UNL     1     -10.098   1.286  -1.808  0.00  0.00    +0.002 A 
ATOM     12  C   UNL     1      -9.172   0.546  -1.105  0.00  0.00    +0.026 A 
ATOM     13  C   UNL     1      -8.059   1.171  -0.551  0.00  0.00    +0.047 A 
ATOM     14  C   UNL     1      -7.894   2.555  -0.719  0.00  0.00    +0.007 A 
ATOM     15  C   UNL     1      -8.836   3.290  -1.432  0.00  0.00    +0.010 A 
ATOM     16  C   UNL     1      -6.637   2.899  -0.024  0.00  0.00    +0.001 A 
ATOM     17  C   UNL     1      -6.148   1.713   0.494  0.00  0.00    +0.091 A 
ATOM     18  N   UNL     1      -6.988   0.707   0.187  0.00  0.00    -0.360 N 
ATOM     19  H   UNL     1      -6.918  -0.360   0.442  0.00  0.00    +0.165 HD
ENDBRANCH   1  16
BRANCH   6  20
ATOM     20  C   UNL     1      -1.263   3.202  -0.531  0.00  0.00    +0.058 A 
ATOM     21  C   UNL     1      -1.259   1.852  -0.858  0.00  0.00    +0.028 A 
ATOM     22  C   UNL     1      -0.064   1.204  -1.101  0.00  0.00    +0.042 A 
ATOM     23  C   UNL     1       1.130   1.902  -1.030  0.00  0.00    +0.142 A 
ATOM     24  C   UNL     1       1.129   3.250  -0.711  0.00  0.00    +0.078 A 
ATOM     25  C   UNL     1      -0.065   3.901  -0.461  0.00  0.00    +0.048 A 
ATOM     26 CL   UNL     1       2.627   4.123  -0.624  0.00  0.00    -0.081 Cl
ATOM     27  F   UNL     1       2.298   1.268  -1.274  0.00  0.00    -0.204 F 
ENDBRANCH   6  20
TORSDOF 2
