REMARK  Name = ZINC33957386
REMARK  14 active torsions:
REMARK  status: ('A' for Active; 'I' for Inactive)
REMARK    1  A    between atoms: C_1  and  C_2
REMARK    2  A    between atoms: C_3  and  C_32
REMARK    3  A    between atoms: C_3  and  C_33
REMARK    4  A    between atoms: C_4  and  C_11
REMARK    5  A    between atoms: N_7  and  O_8
REMARK    6  A    between atoms: N_13  and  C_14
REMARK    7  A    between atoms: C_14  and  C_15
REMARK    8  A    between atoms: C_15  and  C_16
REMARK    9  A    between atoms: C_16  and  N_17
REMARK   10  A    between atoms: C_18  and  C_20
REMARK   11  A    between atoms: C_21  and  C_30
REMARK   12  A    between atoms: C_21  and  C_31
REMARK   13  A    between atoms: C_22  and  C_29
REMARK   14  A    between atoms: N_24  and  O_25
REMARK                            x       y       z     vdW  Elec       q    Type
REMARK                         _______ _______ _______ _____ _____    ______ ____
ROOT
ATOM      1  C   UNL     1      -1.705  -7.007   0.043  0.00  0.00    +0.037 C 
ENDROOT
BRANCH   1   2
ATOM      2  C   UNL     1      -2.425  -5.658   0.078  0.00  0.00    +0.105 C 
BRANCH   2   5
ATOM      3  C   UNL     1      -1.845  -3.292   0.053  0.00  0.00    +0.220 C 
ATOM      4  O   UNL     1      -3.028  -3.031   0.108  0.00  0.00    -0.275 OA
ATOM      5  N   UNL     1      -1.438  -4.576   0.033  0.00  0.00    -0.315 N 
ATOM      6  H   UNL     1      -0.492  -4.785  -0.011  0.00  0.00    +0.149 HD
BRANCH   3  10
ATOM      7  C   UNL     1      -0.019   1.526   0.010  0.00  0.00    +0.018 C 
ATOM      8  C   UNL     1       0.002  -0.004   0.002  0.00  0.00    +0.015 C 
ATOM      9  C   UNL     1      -1.397  -0.715   0.034  0.00  0.00    -0.010 C 
ATOM     10  C   UNL     1      -0.830  -2.179   0.007  0.00  0.00    +0.058 C 
ATOM     11  C   UNL     1       0.169  -2.111   1.202  0.00  0.00    +0.071 C 
ATOM     12  C   UNL     1       0.692  -0.670   1.200  0.00  0.00    +0.065 C 
ATOM     13  N   UNL     1       1.534  -0.140   2.005  0.00  0.00    -0.096 NA
ATOM     14  C   UNL     1       0.079  -2.111  -1.259  0.00  0.00    +0.018 C 
ATOM     15  C   UNL     1       0.658  -0.668  -1.247  0.00  0.00    +0.014 C 
ATOM     16  C   UNL     1      -2.232  -0.398  -1.208  0.00  0.00    +0.013 C 
ATOM     17  C   UNL     1      -2.163  -0.419   1.325  0.00  0.00    +0.013 C 
BRANCH  13  18
ATOM     18  O   UNL     1       2.078  -0.904   3.066  0.00  0.00    -0.409 OA
ATOM     19  H   UNL     1       2.704  -0.418   3.620  0.00  0.00    +0.328 HD
ENDBRANCH  13  18
ENDBRANCH   3  10
ENDBRANCH   2   5
ENDBRANCH   1   2
BRANCH   1  20
ATOM     20  C   UNL     1      -2.735  -8.137   0.090  0.00  0.00    +0.105 C 
BRANCH  20  21
ATOM     21  N   UNL     1      -2.045  -9.429   0.057  0.00  0.00    -0.315 N 
ATOM     22  C   UNL     1      -2.756 -10.574   0.089  0.00  0.00    +0.220 C 
ATOM     23  O   UNL     1      -3.967 -10.534   0.145  0.00  0.00    -0.275 OA
ATOM     24  H   UNL     1      -1.077  -9.461   0.012  0.00  0.00    +0.149 HD
BRANCH  22  25
ATOM     25  C   UNL     1      -2.047 -11.903   0.055  0.00  0.00    +0.058 C 
ATOM     26  C   UNL     1      -2.955 -13.181   0.129  0.00  0.00    -0.010 C 
ATOM     27  C   UNL     1      -1.775 -14.215   0.092  0.00  0.00    +0.015 C 
ATOM     28  C   UNL     1      -0.906 -13.702   1.250  0.00  0.00    +0.065 C 
ATOM     29  N   UNL     1      -0.196 -14.398   2.055  0.00  0.00    -0.096 NA
ATOM     30  C   UNL     1      -1.069 -12.189   1.236  0.00  0.00    +0.071 C 
ATOM     31  C   UNL     1      -1.025 -13.753  -1.194  0.00  0.00    +0.014 C 
ATOM     32  C   UNL     1      -1.204 -12.197  -1.224  0.00  0.00    +0.018 C 
ATOM     33  C   UNL     1      -2.169 -15.691   0.158  0.00  0.00    +0.018 C 
ATOM     34  C   UNL     1      -3.742 -13.253   1.439  0.00  0.00    +0.013 C 
ATOM     35  C   UNL     1      -3.869 -13.309  -1.091  0.00  0.00    +0.013 C 
BRANCH  29  36
ATOM     36  O   UNL     1       0.550 -13.760   3.075  0.00  0.00    -0.409 OA
ATOM     37  H   UNL     1       1.054 -14.367   3.632  0.00  0.00    +0.328 HD
ENDBRANCH  29  36
ENDBRANCH  22  25
ENDBRANCH  20  21
ENDBRANCH   1  20
TORSDOF 8
