REMARK  Name = ZINC37144693
REMARK  10 active torsions:
REMARK  status: ('A' for Active; 'I' for Inactive)
REMARK    1  A    between atoms: C_1  and  C_2
REMARK    2  A    between atoms: C_2  and  C_3
REMARK    3  A    between atoms: C_3  and  C_20
REMARK    4  A    between atoms: N_6  and  C_10
REMARK    5  A    between atoms: C_10  and  C_11
REMARK    6  A    between atoms: N_13  and  C_14
REMARK    7  A    between atoms: N_13  and  C_15
REMARK    8  A    between atoms: C_15  and  C_16
REMARK    9  A    between atoms: C_16  and  C_17
REMARK   10  A    between atoms: C_17  and  N_19
REMARK                            x       y       z     vdW  Elec       q    Type
REMARK                         _______ _______ _______ _____ _____    ______ ____
ROOT
ATOM      1  C   UNL     1      -0.245  -3.667   2.932  0.00  0.00    +0.213 C 
ENDROOT
BRANCH   1   5
ATOM      2  C   UNL     1       0.742  -0.511   1.242  0.00  0.00    +0.110 C 
ATOM      3  C   UNL     1       0.685  -2.024   1.315  0.00  0.00    +0.247 C 
ATOM      4  O   UNL     1       1.132  -2.813   0.511  0.00  0.00    -0.273 OA
ATOM      5  N   UNL     1       0.035  -2.309   2.461  0.00  0.00    -0.215 N 
ATOM      6  C   UNL     1      -0.323  -1.198   3.115  0.00  0.00    +0.310 C 
ATOM      7  O   UNL     1      -0.920  -1.199   4.173  0.00  0.00    -0.252 OA
ATOM      8  N   UNL     1       0.053  -0.079   2.470  0.00  0.00    -0.285 N 
ATOM      9  C   UNL     1       2.192  -0.023   1.238  0.00  0.00    +0.041 C 
ATOM     10  H   UNL     1      -0.100   0.835   2.757  0.00  0.00    +0.151 HD
BRANCH   2  12
ATOM     11  C   UNL     1      -0.019   1.526   0.010  0.00  0.00    +0.006 C 
ATOM     12  C   UNL     1       0.002  -0.004   0.002  0.00  0.00    +0.031 C 
ENDBRANCH   2  12
ENDBRANCH   1   5
BRANCH   1  13
ATOM     13  C   UNL     1       0.896  -4.146   3.792  0.00  0.00    +0.233 C 
ATOM     14  O   UNL     1       1.849  -3.424   3.992  0.00  0.00    -0.274 OA
ATOM     15  N   UNL     1       0.856  -5.378   4.339  0.00  0.00    -0.303 N 
ATOM     16  C   UNL     1      -0.296  -6.250   4.098  0.00  0.00    +0.132 C 
BRANCH  15  17
ATOM     17  C   UNL     1       1.965  -5.843   5.175  0.00  0.00    +0.114 C 
BRANCH  17  18
ATOM     18  C   UNL     1       1.698  -5.466   6.633  0.00  0.00    +0.077 C 
BRANCH  18  19
ATOM     19  C   UNL     1       2.839  -5.945   7.494  0.00  0.00    +0.048 C 
ATOM     20  S   UNL     1       4.072  -6.717   6.829  0.00  0.00    -0.041 S 
BRANCH  19  21
ATOM     21  N   UNL     1       2.821  -5.723   8.823  0.00  0.00    -0.355 N 
ATOM     22  H   UNL     1       2.073  -5.254   9.226  0.00  0.00    +0.143 HD
ATOM     23  H   UNL     1       3.555  -6.031   9.376  0.00  0.00    +0.143 HD
ENDBRANCH  19  21
ENDBRANCH  18  19
ENDBRANCH  17  18
ENDBRANCH  15  17
ENDBRANCH   1  13
TORSDOF 7
