REMARK  Name = ZINC00149924
REMARK  7 active torsions:
REMARK  status: ('A' for Active; 'I' for Inactive)
REMARK    1  A    between atoms: C_1  and  C_2
REMARK    2  A    between atoms: C_2  and  N_3
REMARK    3  A    between atoms: N_3  and  C_4
REMARK    4  A    between atoms: C_10  and  C_12
REMARK    5  A    between atoms: C_13  and  N_23
REMARK    6  A    between atoms: C_15  and  C_22
REMARK    7  A    between atoms: C_17  and  C_21
REMARK                            x       y       z     vdW  Elec       q    Type
REMARK                         _______ _______ _______ _____ _____    ______ ____
ROOT
ATOM      1  C   UNL     1      -2.463  -1.343   2.050  0.00  0.00    +0.098 A 
ATOM      2  C   UNL     1      -3.490  -2.261   2.021  0.00  0.00    +0.054 A 
ATOM      3  C   UNL     1      -3.558  -3.187   0.901  0.00  0.00    +0.032 A 
ATOM      4  C   UNL     1      -4.511  -4.205   0.651  0.00  0.00    -0.037 A 
ATOM      5  C   UNL     1      -4.381  -4.978  -0.479  0.00  0.00    +0.027 A 
ATOM      6  C   UNL     1      -3.331  -4.761  -1.359  0.00  0.00    +0.040 A 
ATOM      7  N   UNL     1      -2.446  -3.813  -1.123  0.00  0.00    -0.245 NA
ATOM      8  C   UNL     1      -2.527  -3.048  -0.056  0.00  0.00    +0.111 A 
ATOM      9  S   UNL     1      -1.542  -1.709   0.568  0.00  0.00    -0.062 S 
ATOM     10  C   UNL     1      -3.201  -5.616  -2.594  0.00  0.00    +0.065 C 
ATOM     11  C   UNL     1      -5.651  -4.438   1.609  0.00  0.00    +0.044 C 
ENDROOT
BRANCH   1  13
ATOM     12  N   UNL     1      -1.042   0.339   2.989  0.00  0.00    -0.267 N 
ATOM     13  C   UNL     1      -2.199  -0.351   3.026  0.00  0.00    +0.259 C 
ATOM     14  O   UNL     1      -3.017  -0.121   3.898  0.00  0.00    -0.269 OA
BRANCH  12  15
ATOM     15  C   UNL     1      -0.735   1.244   4.010  0.00  0.00    +0.037 A 
ATOM     16  C   UNL     1       0.357   2.093   3.882  0.00  0.00    +0.023 A 
ATOM     17  C   UNL     1       0.654   2.990   4.889  0.00  0.00    +0.002 A 
ATOM     18  C   UNL     1      -0.128   3.036   6.029  0.00  0.00    +0.000 A 
ATOM     19  C   UNL     1      -1.213   2.189   6.162  0.00  0.00    +0.002 A 
ATOM     20  C   UNL     1      -1.518   1.293   5.155  0.00  0.00    +0.023 A 
ENDBRANCH  12  15
BRANCH  12  22
ATOM     21  C   UNL     1      -0.536   0.999   0.689  0.00  0.00    +0.025 C 
ATOM     22  C   UNL     1      -0.105   0.140   1.880  0.00  0.00    +0.110 C 
ENDBRANCH  12  22
ENDBRANCH   1  13
BRANCH   2  23
ATOM     23  N   UNL     1      -4.439  -2.298   3.033  0.00  0.00    -0.356 N 
ATOM     24  H   UNL     1      -4.420  -1.635   3.740  0.00  0.00    +0.142 HD
ATOM     25  H   UNL     1      -5.122  -2.988   3.033  0.00  0.00    +0.142 HD
ENDBRANCH   2  23
TORSDOF 4
