REMARK  Name = ZINC05516945
REMARK  9 active torsions:
REMARK  status: ('A' for Active; 'I' for Inactive)
REMARK    1  A    between atoms: C_1  and  C_2
REMARK    2  A    between atoms: C_2  and  C_3
REMARK    3  A    between atoms: C_2  and  C_4
REMARK    4  A    between atoms: C_2  and  C_5
REMARK    5  A    between atoms: C_8  and  C_11
REMARK    6  A    between atoms: C_24  and  C_25
REMARK    7  A    between atoms: C_25  and  O_27
REMARK    8  A    between atoms: O_27  and  C_28
REMARK    9  A    between atoms: C_28  and  C_29
REMARK                            x       y       z     vdW  Elec       q    Type
REMARK                         _______ _______ _______ _____ _____    ______ ____
ROOT
ATOM      1  C   UNL     1       6.188  -2.290  -0.067  0.00  0.00    +0.013 C 
ATOM      2  C   UNL     1       4.947  -2.739  -0.321  0.00  0.00    -0.021 C 
ATOM      3  C   UNL     1       4.575  -4.159  -0.668  0.00  0.00    +0.042 C 
ATOM      4  C   UNL     1       3.053  -4.150  -0.861  0.00  0.00    +0.043 C 
ATOM      5  C   UNL     1       2.603  -2.731  -0.618  0.00  0.00    -0.007 A 
ATOM      6  C   UNL     1       3.713  -1.928  -0.307  0.00  0.00    +0.072 A 
ATOM      7  N   UNL     1       3.573  -0.631  -0.051  0.00  0.00    -0.247 NA
ATOM      8  C   UNL     1       2.395  -0.014  -0.070  0.00  0.00    +0.072 A 
ATOM      9  C   UNL     1       2.291   1.363   0.208  0.00  0.00    +0.028 A 
ATOM     10  C   UNL     1       1.072   1.967   0.181  0.00  0.00    +0.002 A 
ATOM     11  C   UNL     1      -0.082   1.246  -0.118  0.00  0.00    +0.001 A 
ATOM     12  C   UNL     1      -0.020  -0.088  -0.393  0.00  0.00    +0.011 A 
ATOM     13  C   UNL     1       1.216  -0.741  -0.374  0.00  0.00    +0.015 A 
ATOM     14  C   UNL     1       1.334  -2.171  -0.661  0.00  0.00    +0.073 A 
ENDROOT
BRANCH   1  18
ATOM     15  C   UNL     1       9.419  -5.026   0.212  0.00  0.00    -0.042 A 
ATOM     16  C   UNL     1       9.610  -3.794  -0.389  0.00  0.00    +0.005 A 
ATOM     17  C   UNL     1       8.564  -2.899  -0.483  0.00  0.00    +0.008 A 
ATOM     18  C   UNL     1       7.310  -3.240   0.030  0.00  0.00    -0.025 A 
ATOM     19  C   UNL     1       7.126  -4.484   0.640  0.00  0.00    +0.008 A 
ATOM     20  C   UNL     1       8.179  -5.370   0.722  0.00  0.00    +0.005 A 
BRANCH  15  22
ATOM     21  C   UNL     1      11.704  -5.364   1.115  0.00  0.00    +0.015 C 
ATOM     22  C   UNL     1      10.567  -5.997   0.311  0.00  0.00    -0.013 C 
ATOM     23  C   UNL     1      10.096  -7.273   1.012  0.00  0.00    +0.015 C 
ATOM     24  C   UNL     1      11.066  -6.342  -1.094  0.00  0.00    +0.015 C 
ENDBRANCH  15  22
ENDBRANCH   1  18
BRANCH  14  25
ATOM     25  C   UNL     1       0.147  -2.988  -0.986  0.00  0.00    +0.341 C 
ATOM     26  O   UNL     1      -0.211  -3.108  -2.141  0.00  0.00    -0.245 OA
BRANCH  25  27
ATOM     27  O   UNL     1      -0.539  -3.600  -0.002  0.00  0.00    -0.452 OA
BRANCH  27  28
ATOM     28  C   UNL     1      -1.695  -4.386  -0.394  0.00  0.00    +0.327 C 
BRANCH  28  29
ATOM     29  C   UNL     1      -2.331  -4.990   0.831  0.00  0.00    +0.248 C 
ATOM     30  O   UNL     1      -1.857  -4.779   1.927  0.00  0.00    -0.272 OA
ATOM     31  N   UNL     1      -3.427  -5.766   0.709  0.00  0.00    -0.327 N 
ATOM     32  H   UNL     1      -3.806  -5.934  -0.168  0.00  0.00    +0.145 HD
ATOM     33  H   UNL     1      -3.836  -6.155   1.498  0.00  0.00    +0.145 HD
ENDBRANCH  28  29
ENDBRANCH  27  28
ENDBRANCH  25  27
ENDBRANCH  14  25
TORSDOF 6
