REMARK  Name = ZINC39657016
REMARK  6 active torsions:
REMARK  status: ('A' for Active; 'I' for Inactive)
REMARK    1  A    between atoms: C_1  and  C_2
REMARK    2  A    between atoms: C_2  and  C_4
REMARK    3  A    between atoms: C_2  and  N_11
REMARK    4  A    between atoms: C_12  and  C_14
REMARK    5  A    between atoms: C_25  and  C_27
REMARK    6  A    between atoms: C_33  and  C_35
REMARK                            x       y       z     vdW  Elec       q    Type
REMARK                         _______ _______ _______ _____ _____    ______ ____
ROOT
ATOM      1  C   UNL     1       2.875  -1.151   2.425  0.00  0.00    +0.100 C 
ATOM      2  C   UNL     1       2.351  -2.553   2.809  0.00  0.00    +0.121 C 
ATOM      3  N   UNL     1       3.283  -3.496   2.147  0.00  0.00    -0.300 N 
ATOM      4  C   UNL     1       4.617  -2.868   2.305  0.00  0.00    +0.115 C 
ATOM      5  C   UNL     1       4.363  -1.361   2.098  0.00  0.00    -0.004 C 
ATOM      6  C   UNL     1       5.233  -0.544   3.047  0.00  0.00    -0.010 C 
ATOM      7  C   UNL     1       6.705  -0.723   2.666  0.00  0.00    -0.082 C 
ATOM      8  N   UNL     1       6.911  -0.283   1.281  0.00  0.00    +0.379 N 
ATOM      9  C   UNL     1       6.142  -1.135   0.365  0.00  0.00    -0.082 C 
ATOM     10  C   UNL     1       4.646  -0.973   0.650  0.00  0.00    -0.010 C 
ATOM     11  C   UNL     1       2.985  -4.661   1.538  0.00  0.00    +0.219 C 
ATOM     12  O   UNL     1       3.867  -5.326   1.038  0.00  0.00    -0.275 OA
ATOM     13  H   UNL     1       6.605   0.673   1.184  0.00  0.00    -0.086 HD
ATOM     14  H   UNL     1       7.891  -0.345   1.051  0.00  0.00    -0.086 HD
ENDROOT
BRANCH  11  15
ATOM     15  C   UNL     1       1.556  -5.136   1.478  0.00  0.00    +0.078 C 
ATOM     16  C   UNL     1       1.018  -5.312   2.900  0.00  0.00    +0.032 C 
ATOM     17  C   UNL     1      -0.445  -5.762   2.836  0.00  0.00    +0.108 C 
ATOM     18  N   UNL     1      -0.532  -6.970   2.004  0.00  0.00    -0.302 N 
ATOM     19  C   UNL     1       0.037  -6.938   0.650  0.00  0.00    +0.108 C 
ATOM     20  C   UNL     1       1.495  -6.474   0.739  0.00  0.00    +0.032 C 
ATOM     21  C   UNL     1      -1.122  -8.087   2.474  0.00  0.00    +0.212 C 
ATOM     22  O   UNL     1      -1.097  -9.107   1.820  0.00  0.00    -0.276 OA
ATOM     23  C   UNL     1      -1.813  -8.067   3.813  0.00  0.00    +0.109 C 
ENDBRANCH  11  15
BRANCH   1  25
ATOM     24  N   UNL     1       1.955   0.696   1.060  0.00  0.00    -0.308 N 
ATOM     25  C   UNL     1       2.141  -0.630   1.216  0.00  0.00    +0.219 C 
ATOM     26  O   UNL     1       1.717  -1.404   0.384  0.00  0.00    -0.275 OA
ATOM     27  H   UNL     1       2.294   1.315   1.726  0.00  0.00    +0.149 HD
BRANCH  24  29
ATOM     28  C   UNL     1       2.220   1.351  -1.281  0.00  0.00    +0.033 C 
ATOM     29  C   UNL     1       1.241   1.202  -0.115  0.00  0.00    +0.100 C 
BRANCH  29  30
ATOM     30  C   UNL     1       0.635   2.544   0.206  0.00  0.00    -0.027 A 
ATOM     31  C   UNL     1       1.345   3.462   0.957  0.00  0.00    +0.006 A 
ATOM     32  C   UNL     1       0.789   4.693   1.251  0.00  0.00    +0.015 A 
ATOM     33  C   UNL     1      -0.478   5.006   0.794  0.00  0.00    +0.018 A 
ATOM     34  C   UNL     1      -1.189   4.087   0.042  0.00  0.00    +0.015 A 
ATOM     35  C   UNL     1      -0.630   2.859  -0.256  0.00  0.00    +0.006 A 
ATOM     36 BR   UNL     1      -1.240   6.689   1.196  0.00  0.00    -0.050 Br
ENDBRANCH  29  30
ENDBRANCH  24  29
ENDBRANCH   1  25
TORSDOF 4
