REMARK  Name = ZINC08613853
REMARK  5 active torsions:
REMARK  status: ('A' for Active; 'I' for Inactive)
REMARK    1  A    between atoms: C_1  and  C_2
REMARK    2  A    between atoms: C_2  and  C_4
REMARK    3  A    between atoms: C_2  and  N_17
REMARK    4  A    between atoms: N_6  and  C_7
REMARK    5  A    between atoms: C_12  and  C_13
REMARK                            x       y       z     vdW  Elec       q    Type
REMARK                         _______ _______ _______ _____ _____    ______ ____
ROOT
ATOM      1  C   UNL     1      -0.001   1.539   0.003  0.00  0.00    +0.043 C 
ATOM      2  C   UNL     1       0.010   0.009   0.002  0.00  0.00    +0.195 C 
ENDROOT
BRANCH   2   3
ATOM      3  N   UNL     1       0.720  -0.475   1.189  0.00  0.00    -0.199 N 
ATOM      4  C   UNL     1       0.076  -1.259   2.075  0.00  0.00    +0.279 A 
ATOM      5  O   UNL     1      -1.089  -1.569   1.898  0.00  0.00    -0.265 OA
ATOM      6  C   UNL     1       0.789  -1.723   3.232  0.00  0.00    +0.079 A 
ATOM      7  C   UNL     1       0.296  -2.572   4.314  0.00  0.00    -0.023 A 
ATOM      8  C   UNL     1       1.168  -2.874   5.301  0.00  0.00    -0.004 A 
ATOM      9  S   UNL     1       2.673  -2.054   4.851  0.00  0.00    -0.071 S 
ATOM     10  C   UNL     1       2.125  -1.306   3.336  0.00  0.00    +0.138 A 
ATOM     11  N   UNL     1       2.703  -0.530   2.425  0.00  0.00    -0.123 NA
ATOM     12  N   UNL     1       2.059  -0.122   1.386  0.00  0.00    -0.061 NA
ATOM     13  C   UNL     1       0.910  -3.718   6.512  0.00  0.00    +0.043 C 
ATOM     14  C   UNL     1      -0.607  -3.894   6.665  0.00  0.00    +0.005 C 
ATOM     15  C   UNL     1      -1.195  -4.293   5.308  0.00  0.00    +0.005 C 
ATOM     16  C   UNL     1      -1.133  -3.106   4.346  0.00  0.00    +0.037 C 
ENDBRANCH   2   3
BRANCH   2  17
ATOM     17  C   UNL     1       0.709  -0.487  -1.238  0.00  0.00    +0.242 C 
ATOM     18  O   UNL     1       1.702  -1.177  -1.139  0.00  0.00    -0.273 OA
ATOM     19  N   UNL     1       0.231  -0.164  -2.456  0.00  0.00    -0.283 N 
ATOM     20  H   UNL     1      -0.606   0.319  -2.536  0.00  0.00    +0.155 HD
BRANCH  19  21
ATOM     21  C   UNL     1       0.942  -0.526  -3.605  0.00  0.00    +0.045 A 
ATOM     22  C   UNL     1       2.314  -0.733  -3.538  0.00  0.00    +0.024 A 
ATOM     23  C   UNL     1       3.013  -1.090  -4.674  0.00  0.00    +0.002 A 
ATOM     24  C   UNL     1       2.349  -1.241  -5.878  0.00  0.00    +0.001 A 
ATOM     25  C   UNL     1       0.984  -1.035  -5.948  0.00  0.00    +0.014 A 
ATOM     26  C   UNL     1       0.277  -0.684  -4.814  0.00  0.00    +0.076 A 
BRANCH  26  27
ATOM     27  C   UNL     1      -1.212  -0.468  -4.889  0.00  0.00    +0.419 C 
ATOM     28  F   UNL     1      -1.649  -0.684  -6.201  0.00  0.00    -0.166 F 
ATOM     29  F   UNL     1      -1.858  -1.362  -4.029  0.00  0.00    -0.166 F 
ATOM     30  F   UNL     1      -1.512   0.845  -4.509  0.00  0.00    -0.166 F 
ENDBRANCH  26  27
ENDBRANCH  19  21
ENDBRANCH   2  17
TORSDOF 4
