REMARK  Name = ZINC38964182
REMARK  6 active torsions:
REMARK  status: ('A' for Active; 'I' for Inactive)
REMARK    1  A    between atoms: C_6  and  N_7
REMARK    2  A    between atoms: C_10  and  N_28
REMARK    3  A    between atoms: C_13  and  C_15
REMARK    4  A    between atoms: C_15  and  S_16
REMARK    5  A    between atoms: S_16  and  C_17
REMARK    6  A    between atoms: C_20  and  C_22
REMARK                            x       y       z     vdW  Elec       q    Type
REMARK                         _______ _______ _______ _____ _____    ______ ____
ROOT
ATOM      1  N   UNL     1      -1.174  -0.708   0.009  0.00  0.00    -0.219 NA
ATOM      2  C   UNL     1      -1.370  -1.667  -0.864  0.00  0.00    +0.188 C 
ATOM      3  N   UNL     1      -0.386  -2.087  -1.750  0.00  0.00    -0.285 N 
ATOM      4  C   UNL     1      -0.792  -2.211  -3.159  0.00  0.00    +0.239 C 
ATOM      5  N   UNL     1      -2.150  -2.747  -3.230  0.00  0.00    -0.346 N 
ATOM      6  C   UNL     1      -2.948  -2.786  -2.226  0.00  0.00    +0.087 C 
ATOM      7  N   UNL     1      -2.578  -2.347  -0.973  0.00  0.00    -0.277 N 
ATOM      8  H   UNL     1       0.517  -2.286  -1.457  0.00  0.00    +0.152 HD
ATOM      9  H   UNL     1      -2.464  -3.091  -4.081  0.00  0.00    +0.164 HD
ATOM     10  H   UNL     1      -3.138  -2.503  -0.197  0.00  0.00    +0.156 HD
ENDROOT
BRANCH   1  16
ATOM     11  C   UNL     1       0.423   0.632  -1.174  0.00  0.00    +0.030 A 
ATOM     12  C   UNL     1       1.604   1.345  -1.181  0.00  0.00    +0.040 A 
ATOM     13  C   UNL     1       2.369   1.435  -0.029  0.00  0.00    +0.124 A 
ATOM     14  C   UNL     1       1.953   0.810   1.135  0.00  0.00    +0.040 A 
ATOM     15  C   UNL     1       0.774   0.095   1.154  0.00  0.00    +0.030 A 
ATOM     16  C   UNL     1      -0.001   0.001  -0.003  0.00  0.00    +0.067 A 
ATOM     17  F   UNL     1       3.525   2.135  -0.042  0.00  0.00    -0.205 F 
ENDBRANCH   1  16
BRANCH   4  18
ATOM     18  N   UNL     1      -0.755  -0.888  -3.797  0.00  0.00    -0.296 NA
ATOM     19  H   UNL     1       0.174  -0.496  -3.762  0.00  0.00    +0.122 HD
ATOM     20  H   UNL     1      -1.092  -0.936  -4.747  0.00  0.00    +0.122 HD
ENDBRANCH   4  18
BRANCH   6  21
ATOM     21  C   UNL     1      -4.337  -3.337  -2.423  0.00  0.00    +0.148 C 
BRANCH  21  22
ATOM     22  S   UNL     1      -5.240  -3.273  -0.851  0.00  0.00    -0.058 S 
BRANCH  22  23
ATOM     23  C   UNL     1      -6.823  -3.941  -1.241  0.00  0.00    +0.278 A 
ATOM     24  N   UNL     1      -7.214  -4.380  -2.417  0.00  0.00    -0.101 NA
ATOM     25  N   UNL     1      -8.428  -4.797  -2.336  0.00  0.00    -0.106 NA
ATOM     26  C   UNL     1      -8.861  -4.641  -1.109  0.00  0.00    +0.249 A 
ATOM     27  O   UNL     1      -7.853  -4.101  -0.389  0.00  0.00    -0.411 OA
BRANCH  26  28
ATOM     28  C   UNL     1     -10.203  -4.995  -0.604  0.00  0.00    +0.041 A 
ATOM     29  C   UNL     1     -10.551  -4.774   0.735  0.00  0.00    +0.033 A 
ATOM     30  C   UNL     1     -11.815  -5.120   1.163  0.00  0.00    +0.111 A 
ATOM     31  N   UNL     1     -12.690  -5.652   0.332  0.00  0.00    -0.263 NA
ATOM     32  C   UNL     1     -12.405  -5.878  -0.936  0.00  0.00    +0.111 A 
ATOM     33  C   UNL     1     -11.167  -5.557  -1.452  0.00  0.00    +0.033 A 
ENDBRANCH  26  28
ENDBRANCH  22  23
ENDBRANCH  21  22
ENDBRANCH   6  21
TORSDOF 6
