REMARK  Name = ZINC51577302
REMARK  6 active torsions:
REMARK  status: ('A' for Active; 'I' for Inactive)
REMARK    1  A    between atoms: C_1  and  C_2
REMARK    2  A    between atoms: C_6  and  C_8
REMARK    3  A    between atoms: C_8  and  N_9
REMARK    4  A    between atoms: N_9  and  S_10
REMARK    5  A    between atoms: S_10  and  C_13
REMARK    6  A    between atoms: N_19  and  N_20
REMARK                            x       y       z     vdW  Elec       q    Type
REMARK                         _______ _______ _______ _____ _____    ______ ____
ROOT
ATOM      1  S   UNL     1       1.728  -3.169   4.583  0.00  0.00    +0.062 S 
ATOM      2  O   UNL     1       3.141  -3.217   4.731  0.00  0.00    -0.153 OA
ATOM      3  O   UNL     1       0.910  -2.313   5.369  0.00  0.00    -0.153 OA
ENDROOT
BRANCH   1   4
ATOM      4  C   UNL     1       1.138  -4.809   4.843  0.00  0.00    +0.141 A 
ATOM      5  C   UNL     1      -0.168  -5.035   5.247  0.00  0.00    +0.144 A 
ATOM      6  N   UNL     1      -0.580  -6.279   5.433  0.00  0.00    -0.220 NA
ATOM      7  C   UNL     1       0.241  -7.300   5.237  0.00  0.00    +0.229 A 
ATOM      8  N   UNL     1       1.496  -7.118   4.851  0.00  0.00    -0.220 NA
ATOM      9  C   UNL     1       1.968  -5.900   4.642  0.00  0.00    +0.144 A 
ATOM     10  N   UNL     1      -0.222  -8.588   5.441  0.00  0.00    -0.252 N 
ATOM     11  H   UNL     1      -1.138  -8.735   5.724  0.00  0.00    +0.169 HD
BRANCH  10  12
ATOM     12  N   UNL     1       0.610  -9.653   5.244  0.00  0.00    -0.254 NA
ATOM     13  H   UNL     1       1.444  -9.569   5.806  0.00  0.00    +0.140 HD
ATOM     14  H   UNL     1       0.135 -10.523   5.431  0.00  0.00    +0.140 HD
ENDBRANCH  10  12
ENDBRANCH   1   4
BRANCH   1  15
ATOM     15  N   UNL     1       1.430  -2.786   3.000  0.00  0.00    -0.184 NA
ATOM     16  H   UNL     1       2.169  -2.630   2.392  0.00  0.00    +0.148 HD
BRANCH  15  17
ATOM     17  C   UNL     1       0.050  -2.683   2.519  0.00  0.00    +0.161 C 
BRANCH  17  23
ATOM     18  C   UNL     1      -0.018   1.503   0.010  0.00  0.00    +0.065 C 
ATOM     19  C   UNL     1       0.002  -0.004   0.002  0.00  0.00    +0.039 A 
ATOM     20  C   UNL     1       0.005  -0.681  -1.203  0.00  0.00    +0.023 A 
ATOM     21  C   UNL     1       0.024  -2.067  -1.200  0.00  0.00    +0.004 A 
ATOM     22  C   UNL     1       0.039  -2.724   0.021  0.00  0.00    +0.025 A 
ATOM     23  C   UNL     1       0.035  -1.980   1.186  0.00  0.00    +0.057 A 
ATOM     24  N   UNL     1       0.022  -0.662   1.145  0.00  0.00    -0.255 NA
ENDBRANCH  17  23
ENDBRANCH  15  17
ENDBRANCH   1  15
TORSDOF 5
