REMARK  Name = ZINC50603464
REMARK  5 active torsions:
REMARK  status: ('A' for Active; 'I' for Inactive)
REMARK    1  A    between atoms: C_1  and  C_2
REMARK    2  A    between atoms: C_4  and  C_21
REMARK    3  A    between atoms: C_7  and  C_8
REMARK    4  A    between atoms: N_11  and  C_12
REMARK    5  A    between atoms: C_12  and  C_13
REMARK                            x       y       z     vdW  Elec       q    Type
REMARK                         _______ _______ _______ _____ _____    ______ ____
ROOT
ATOM      1  C   UNL     1      -0.014   1.502   0.031  0.00  0.00    +0.045 C 
ATOM      2  C   UNL     1       0.004  -0.004   0.012  0.00  0.00    -0.031 A 
ATOM      3  C   UNL     1      -0.101  -0.699  -1.179  0.00  0.00    +0.025 A 
ATOM      4  C   UNL     1      -0.081  -2.083  -1.166  0.00  0.00    +0.015 A 
ATOM      5  N   UNL     1       0.037  -2.755  -0.037  0.00  0.00    -0.347 N 
ATOM      6  C   UNL     1       0.141  -2.142   1.132  0.00  0.00    +0.111 A 
ATOM      7  C   UNL     1       0.134  -0.736   1.200  0.00  0.00    +0.104 A 
ATOM      8  N   UNL     1       0.262  -2.885   2.290  0.00  0.00    -0.330 N 
ATOM      9  C   UNL     1      -0.195  -2.836  -2.466  0.00  0.00    +0.063 C 
ATOM     10  H   UNL     1       0.261  -2.443   3.153  0.00  0.00    +0.147 HD
ATOM     11  H   UNL     1       0.047  -3.724  -0.064  0.00  0.00    +0.167 HD
ENDROOT
BRANCH   7  12
ATOM     12  C   UNL     1       0.255  -0.048   2.494  0.00  0.00    +0.390 C 
ATOM     13  O   UNL     1      -0.740   0.145   3.180  0.00  0.00    -0.240 OA
ATOM     14  O   UNL     1       1.350   0.331   2.885  0.00  0.00    -0.240 OA
ENDBRANCH   7  12
BRANCH   8  15
ATOM     15  C   UNL     1       0.390  -4.343   2.214  0.00  0.00    +0.108 C 
BRANCH  15  16
ATOM     16  C   UNL     1       0.508  -4.919   3.627  0.00  0.00    +0.029 C 
ATOM     17  C   UNL     1       1.828  -4.459   4.266  0.00  0.00    +0.029 C 
ATOM     18  C   UNL     1       2.108  -5.281   5.548  0.00  0.00    +0.166 C 
ATOM     19  S   UNL     1       1.259  -6.875   5.199  0.00  0.00    -0.031 S 
ATOM     20  O   UNL     1       0.217  -7.061   6.146  0.00  0.00    -0.174 OA
ATOM     21  O   UNL     1       2.237  -7.891   5.027  0.00  0.00    -0.174 OA
ATOM     22  C   UNL     1       0.516  -6.473   3.561  0.00  0.00    +0.171 C 
ENDBRANCH  15  16
ENDBRANCH   8  15
TORSDOF 3
