REMARK  Name = ZINC00125899
REMARK  4 active torsions:
REMARK  status: ('A' for Active; 'I' for Inactive)
REMARK    1  A    between atoms: C_1  and  N_2
REMARK    2  A    between atoms: N_5  and  N_6
REMARK    3  A    between atoms: C_7  and  C_9
REMARK    4  A    between atoms: C_9  and  C_10
REMARK                            x       y       z     vdW  Elec       q    Type
REMARK                         _______ _______ _______ _____ _____    ______ ____
ROOT
ATOM      1  C   UNL     1       2.346   1.937   1.385  0.00  0.00    +0.121 C 
ENDROOT
BRANCH   1   2
ATOM      2  C   UNL     1       1.749   2.179  -0.003  0.00  0.00    +0.146 C 
ATOM      3  C   UNL     1       2.438   1.297  -1.011  0.00  0.00    +0.231 C 
ATOM      4  O   UNL     1       3.326   1.776  -1.685  0.00  0.00    -0.274 OA
ATOM      5  N   UNL     1       2.121   0.020  -1.199  0.00  0.00    -0.284 N 
ATOM      6  C   UNL     1       1.064  -0.668  -0.612  0.00  0.00    +0.047 A 
ATOM      7  C   UNL     1       1.069  -2.060  -0.624  0.00  0.00    +0.024 A 
ATOM      8  C   UNL     1       0.042  -2.765  -0.030  0.00  0.00    +0.002 A 
ATOM      9  C   UNL     1      -1.004  -2.099   0.583  0.00  0.00    +0.001 A 
ATOM     10  C   UNL     1      -1.025  -0.717   0.598  0.00  0.00    +0.016 A 
ATOM     11  C   UNL     1       0.002  -0.004   0.002  0.00  0.00    +0.030 A 
ATOM     12  S   UNL     1      -0.022   1.762   0.012  0.00  0.00    -0.110 S 
ATOM     13  H   UNL     1       2.684  -0.484  -1.807  0.00  0.00    +0.155 HD
ENDBRANCH   1   2
BRANCH   1  15
ATOM     14  N   UNL     1       2.097   2.858   3.667  0.00  0.00    -0.233 N 
ATOM     15  C   UNL     1       1.722   2.889   2.373  0.00  0.00    +0.231 C 
ATOM     16  O   UNL     1       0.883   3.682   2.003  0.00  0.00    -0.274 OA
ATOM     17  H   UNL     1       2.768   2.223   3.963  0.00  0.00    +0.173 HD
BRANCH  14  22
ATOM     18  C   UNL     1       3.232   2.796   7.697  0.00  0.00    +0.129 C 
ATOM     19  N   UNL     1       2.824   2.830   6.290  0.00  0.00    -0.301 N 
ATOM     20  C   UNL     1       1.892   3.712   5.880  0.00  0.00    +0.316 C 
ATOM     21  O   UNL     1       1.389   4.480   6.677  0.00  0.00    -0.251 OA
ATOM     22  N   UNL     1       1.517   3.743   4.586  0.00  0.00    -0.218 N 
ATOM     23  H   UNL     1       3.226   2.217   5.654  0.00  0.00    +0.150 HD
ATOM     24  H   UNL     1       0.846   4.378   4.290  0.00  0.00    +0.174 HD
ENDBRANCH  14  22
ENDBRANCH   1  15
TORSDOF 3
