REMARK  Name = ZINC37418805
REMARK  4 active torsions:
REMARK  status: ('A' for Active; 'I' for Inactive)
REMARK    1  A    between atoms: C_1  and  C_2
REMARK    2  A    between atoms: C_2  and  C_4
REMARK    3  A    between atoms: C_2  and  N_11
REMARK    4  A    between atoms: N_9  and  C_10
REMARK                            x       y       z     vdW  Elec       q    Type
REMARK                         _______ _______ _______ _____ _____    ______ ____
ROOT
ATOM      1  C   UNL     1      -0.019   1.526   0.010  0.00  0.00    +0.042 C 
ATOM      2  C   UNL     1       0.002  -0.004   0.002  0.00  0.00    +0.190 C 
ENDROOT
BRANCH   2   3
ATOM      3  C   UNL     1       0.707  -0.490  -1.238  0.00  0.00    +0.245 C 
ATOM      4  O   UNL     1       0.120  -1.191  -2.034  0.00  0.00    -0.273 OA
ATOM      5  N   UNL     1       1.991  -0.146  -1.462  0.00  0.00    -0.238 N 
ATOM      6  C   UNL     1       2.622  -0.580  -2.570  0.00  0.00    +0.306 C 
ATOM      7  O   UNL     1       2.033  -1.283  -3.369  0.00  0.00    -0.252 OA
ATOM      8  N   UNL     1       3.906  -0.236  -2.794  0.00  0.00    -0.302 N 
ATOM      9  C   UNL     1       4.591  -0.709  -3.999  0.00  0.00    +0.129 C 
ATOM     10  H   UNL     1       2.461   0.415  -0.825  0.00  0.00    +0.159 HD
ATOM     11  H   UNL     1       4.376   0.324  -2.157  0.00  0.00    +0.150 HD
ENDBRANCH   2   3
BRANCH   2  12
ATOM     12  N   UNL     1      -1.372  -0.511   0.012  0.00  0.00    -0.258 N 
ATOM     13  C   UNL     1      -2.431   0.054  -0.605  0.00  0.00    +0.111 A 
ATOM     14  C   UNL     1      -3.515  -0.714  -0.357  0.00  0.00    +0.064 A 
ATOM     15  C   UNL     1      -3.105  -1.792   0.444  0.00  0.00    +0.138 A 
ATOM     16  N   UNL     1      -1.817  -1.671   0.660  0.00  0.00    -0.156 NA
ATOM     17  N   UNL     1      -3.926  -2.820   0.924  0.00  0.00    -0.342 N 
ATOM     18  H   UNL     1      -4.872  -2.826   0.706  0.00  0.00    +0.144 HD
ATOM     19  H   UNL     1      -3.550  -3.525   1.473  0.00  0.00    +0.144 HD
ENDBRANCH   2  12
TORSDOF 2
