REMARK  Name = ZINC03839053
REMARK  10 active torsions:
REMARK  status: ('A' for Active; 'I' for Inactive)
REMARK    1  A    between atoms: C_1  and  C_2
REMARK    2  A    between atoms: C_2  and  C_28
REMARK    3  A    between atoms: C_3  and  C_4
REMARK    4  A    between atoms: C_8  and  N_21
REMARK    5  A    between atoms: C_11  and  C_13
REMARK    6  A    between atoms: N_15  and  C_16
REMARK    7  A    between atoms: N_15  and  C_17
REMARK    8  A    between atoms: C_17  and  C_18
REMARK    9  A    between atoms: N_24  and  C_25
REMARK   10  A    between atoms: C_25  and  C_26
REMARK                            x       y       z     vdW  Elec       q    Type
REMARK                         _______ _______ _______ _____ _____    ______ ____
ROOT
ATOM      1  C   UNL     1      -3.719   0.523   3.889  0.00  0.00    +0.240 C 
ATOM      2  O   UNL     1      -4.882   0.213   4.061  0.00  0.00    -0.271 OA
ATOM      3  N   UNL     1      -2.895  -0.302   3.213  0.00  0.00    -0.285 N 
ATOM      4  C   UNL     1      -1.473  -0.053   2.935  0.00  0.00    +0.131 C 
ATOM      5  C   UNL     1      -0.936  -1.278   2.164  0.00  0.00    +0.094 C 
ATOM      6  C   UNL     1      -1.941  -2.396   2.545  0.00  0.00    +0.056 C 
ATOM      7  C   UNL     1      -3.269  -1.604   2.633  0.00  0.00    +0.164 C 
ENDROOT
BRANCH   5   8
ATOM      8  N   UNL     1       0.416  -1.620   2.612  0.00  0.00    -0.295 N 
ATOM      9  C   UNL     1       1.485  -1.020   2.051  0.00  0.00    +0.300 C 
ATOM     10  O   UNL     1       1.326  -0.191   1.176  0.00  0.00    -0.253 OA
ATOM     11  N   UNL     1       2.729  -1.340   2.460  0.00  0.00    -0.296 N 
ATOM     12  H   UNL     1       0.542  -2.282   3.310  0.00  0.00    +0.151 HD
ATOM     13  H   UNL     1       2.855  -2.002   3.158  0.00  0.00    +0.151 HD
BRANCH  11  14
ATOM     14  C   UNL     1       3.890  -0.688   1.850  0.00  0.00    +0.132 C 
BRANCH  14  15
ATOM     15  C   UNL     1       5.152  -1.218   2.480  0.00  0.00    -0.016 C 
ATOM     16  C   UNL     1       6.094  -1.731   1.728  0.00  0.00    +0.005 C 
ENDBRANCH  14  15
ENDBRANCH  11  14
ENDBRANCH   5   8
BRANCH   1  19
ATOM     17  C   UNL     1      -5.535   2.421   4.925  0.00  0.00    +0.039 C 
ATOM     18  C   UNL     1      -4.049   2.667   4.976  0.00  0.00    -0.071 C 
ATOM     19  C   UNL     1      -3.211   1.798   4.418  0.00  0.00    +0.066 C 
ATOM     20  C   UNL     1      -3.513   3.898   5.660  0.00  0.00    +0.039 C 
ENDBRANCH   1  19
BRANCH   7  21
ATOM     21  C   UNL     1      -4.247  -2.318   3.531  0.00  0.00    +0.236 C 
ATOM     22  O   UNL     1      -4.356  -1.986   4.693  0.00  0.00    -0.274 OA
ATOM     23  N   UNL     1      -5.000  -3.324   3.043  0.00  0.00    -0.294 N 
ATOM     24  C   UNL     1      -4.868  -3.724   1.640  0.00  0.00    +0.132 C 
BRANCH  23  25
ATOM     25  C   UNL     1      -5.950  -4.017   3.917  0.00  0.00    +0.202 C 
BRANCH  25  26
ATOM     26  C   UNL     1      -7.287  -3.323   3.856  0.00  0.00    +0.228 C 
ATOM     27  O   UNL     1      -7.431  -2.346   3.152  0.00  0.00    -0.274 OA
ATOM     28  N   UNL     1      -8.321  -3.789   4.583  0.00  0.00    -0.328 N 
ATOM     29  H   UNL     1      -8.206  -4.571   5.146  0.00  0.00    +0.145 HD
ATOM     30  H   UNL     1      -9.181  -3.343   4.544  0.00  0.00    +0.145 HD
ENDBRANCH  25  26
ENDBRANCH  23  25
ENDBRANCH   7  21
TORSDOF 7
