REMARK  Name = ZINC36369729
REMARK  17 active torsions:
REMARK  status: ('A' for Active; 'I' for Inactive)
REMARK    1  A    between atoms: C_1  and  C_2
REMARK    2  A    between atoms: C_3  and  C_37
REMARK    3  A    between atoms: C_9  and  C_36
REMARK    4  A    between atoms: C_10  and  C_16
REMARK    5  A    between atoms: C_16  and  C_17
REMARK    6  A    between atoms: N_19  and  C_20
REMARK    7  A    between atoms: N_19  and  C_21
REMARK    8  A    between atoms: C_21  and  C_22
REMARK    9  A    between atoms: C_22  and  C_24
REMARK   10  A    between atoms: C_22  and  O_35
REMARK   11  A    between atoms: C_24  and  C_26
REMARK   12  A    between atoms: C_24  and  O_34
REMARK   13  A    between atoms: C_26  and  C_28
REMARK   14  A    between atoms: C_26  and  O_33
REMARK   15  A    between atoms: C_28  and  C_30
REMARK   16  A    between atoms: C_28  and  O_32
REMARK   17  A    between atoms: C_30  and  O_31
REMARK                            x       y       z     vdW  Elec       q    Type
REMARK                         _______ _______ _______ _____ _____    ______ ____
ROOT
ATOM      1  C   UNL     1      -1.308  -2.658   7.669  0.00  0.00    +0.220 C 
ATOM      2  O   UNL     1      -2.231  -2.823   6.900  0.00  0.00    -0.275 OA
ATOM      3  N   UNL     1      -1.543  -2.558   8.992  0.00  0.00    -0.302 N 
ATOM      4  C   UNL     1      -0.427  -2.358   9.921  0.00  0.00    +0.132 C 
ENDROOT
BRANCH   1   5
ATOM      5  C   UNL     1       0.102  -2.562   7.144  0.00  0.00    +0.138 C 
BRANCH   5  15
ATOM      6  C   UNL     1      -0.018   1.503   0.010  0.00  0.00    +0.048 C 
ATOM      7  C   UNL     1       0.002  -0.004   0.002  0.00  0.00    -0.002 A 
ATOM      8  C   UNL     1       0.009  -0.802  -1.073  0.00  0.00    +0.106 A 
ATOM      9  O   UNL     1       0.028  -2.093  -0.695  0.00  0.00    -0.460 OA
ATOM     10  C   UNL     1       0.035  -2.202   0.649  0.00  0.00    +0.139 A 
ATOM     11  C   UNL     1       0.025  -0.893   1.172  0.00  0.00    +0.024 A 
ATOM     12  C   UNL     1       0.035  -0.683   2.544  0.00  0.00    +0.023 A 
ATOM     13  C   UNL     1       0.058  -1.782   3.403  0.00  0.00    +0.022 A 
ATOM     14  C   UNL     1       0.068  -1.597   4.857  0.00  0.00    -0.029 A 
ATOM     15  C   UNL     1       0.090  -2.703   5.644  0.00  0.00    +0.049 A 
ATOM     16  C   UNL     1       0.102  -3.985   5.054  0.00  0.00    +0.341 A 
ATOM     17  O   UNL     1       0.121  -4.968   5.772  0.00  0.00    -0.245 OA
ATOM     18  O   UNL     1       0.092  -4.149   3.722  0.00  0.00    -0.422 OA
ATOM     19  C   UNL     1       0.071  -3.092   2.879  0.00  0.00    +0.143 A 
ATOM     20  C   UNL     1       0.053  -3.290   1.510  0.00  0.00    +0.093 A 
ATOM     21  C   UNL     1       0.056  -0.217   5.462  0.00  0.00    +0.045 C 
ATOM     22  C   UNL     1      -0.004  -0.323  -2.502  0.00  0.00    +0.086 C 
ENDBRANCH   5  15
ENDBRANCH   1   5
BRANCH   3  23
ATOM     23  C   UNL     1      -2.913  -2.651   9.502  0.00  0.00    +0.141 C 
BRANCH  23  24
ATOM     24  C   UNL     1      -3.244  -4.112   9.813  0.00  0.00    +0.163 C 
BRANCH  24  25
ATOM     25  O   UNL     1      -3.126  -4.891   8.620  0.00  0.00    -0.388 OA
ATOM     26  H   UNL     1      -3.716  -4.610   7.907  0.00  0.00    +0.210 HD
ENDBRANCH  24  25
BRANCH  24  27
ATOM     27  C   UNL     1      -4.675  -4.208  10.345  0.00  0.00    +0.175 C 
BRANCH  27  28
ATOM     28  O   UNL     1      -5.573  -3.607   9.410  0.00  0.00    -0.387 OA
ATOM     29  H   UNL     1      -5.565  -4.020   8.536  0.00  0.00    +0.210 HD
ENDBRANCH  27  28
BRANCH  27  30
ATOM     30  C   UNL     1      -5.050  -5.679  10.538  0.00  0.00    +0.176 C 
BRANCH  30  31
ATOM     31  O   UNL     1      -4.849  -6.386   9.312  0.00  0.00    -0.387 OA
ATOM     32  H   UNL     1      -5.377  -6.052   8.574  0.00  0.00    +0.210 HD
ENDBRANCH  30  31
BRANCH  30  33
ATOM     33  C   UNL     1      -6.519  -5.782  10.951  0.00  0.00    +0.171 C 
BRANCH  33  34
ATOM     34  O   UNL     1      -6.720  -5.075  12.176  0.00  0.00    -0.387 OA
ATOM     35  H   UNL     1      -6.192  -5.409  12.914  0.00  0.00    +0.210 HD
ENDBRANCH  33  34
BRANCH  33  36
ATOM     36  C   UNL     1      -6.894  -7.253  11.143  0.00  0.00    +0.189 C 
BRANCH  36  37
ATOM     37  O   UNL     1      -8.293  -7.356  11.415  0.00  0.00    -0.392 OA
ATOM     38  H   UNL     1      -8.601  -8.263  11.548  0.00  0.00    +0.210 HD
ENDBRANCH  36  37
ENDBRANCH  33  36
ENDBRANCH  30  33
ENDBRANCH  27  30
ENDBRANCH  24  27
ENDBRANCH  23  24
ENDBRANCH   3  23
TORSDOF 13
