REMARK  Name = ZINC64870036
REMARK  4 active torsions:
REMARK  status: ('A' for Active; 'I' for Inactive)
REMARK    1  A    between atoms: C_1  and  C_2
REMARK    2  A    between atoms: C_5  and  N_8
REMARK    3  A    between atoms: C_14  and  C_21
REMARK    4  A    between atoms: C_24  and  C_28
REMARK                            x       y       z     vdW  Elec       q    Type
REMARK                         _______ _______ _______ _____ _____    ______ ____
ROOT
ATOM      1  N   UNL     1       0.059  -4.172  -0.021  0.00  0.00    -0.229 N 
ATOM      2  C   UNL     1       0.171  -4.839   1.148  0.00  0.00    +0.269 A 
ATOM      3  O   UNL     1       0.255  -4.240   2.203  0.00  0.00    -0.266 OA
ATOM      4  C   UNL     1       0.187  -6.312   1.112  0.00  0.00    +0.063 A 
ATOM      5  C   UNL     1       0.299  -7.072   2.274  0.00  0.00    +0.016 A 
ATOM      6  C   UNL     1       0.310  -8.448   2.188  0.00  0.00    +0.008 A 
ATOM      7  C   UNL     1       0.210  -9.075   0.955  0.00  0.00    -0.000 A 
ATOM      8  C   UNL     1       0.099  -8.333  -0.205  0.00  0.00    +0.034 A 
ATOM      9  C   UNL     1       0.086  -6.948  -0.137  0.00  0.00    +0.056 A 
ATOM     10  N   UNL     1      -0.025  -6.166  -1.278  0.00  0.00    -0.307 N 
ATOM     11  H   UNL     1      -0.097  -6.591  -2.147  0.00  0.00    +0.170 HD
ATOM     12  C   UNL     1      -0.041  -4.825  -1.189  0.00  0.00    +0.334 A 
ATOM     13  O   UNL     1      -0.145  -4.176  -2.212  0.00  0.00    -0.246 OA
ENDROOT
BRANCH   1  18
ATOM     14  C   UNL     1      -0.016   1.503   0.012  0.00  0.00    +0.044 C 
ATOM     15  C   UNL     1       0.004  -0.004   0.003  0.00  0.00    -0.050 A 
ATOM     16  C   UNL     1      -1.181  -0.710   0.107  0.00  0.00    +0.005 A 
ATOM     17  C   UNL     1      -1.166  -2.091   0.099  0.00  0.00    +0.026 A 
ATOM     18  C   UNL     1       0.040  -2.771  -0.013  0.00  0.00    +0.054 A 
ATOM     19  C   UNL     1       1.228  -2.059  -0.117  0.00  0.00    +0.026 A 
ATOM     20  C   UNL     1       1.206  -0.678  -0.114  0.00  0.00    +0.005 A 
ENDBRANCH   1  18
BRANCH   7  21
ATOM     21  C   UNL     1       0.223 -10.580   0.879  0.00  0.00    +0.242 C 
ATOM     22  N   UNL     1      -0.350 -11.150   2.114  0.00  0.00    -0.265 NA
ATOM     23  C   UNL     1       0.714 -11.985   2.721  0.00  0.00    +0.180 C 
ATOM     24  N   UNL     1       1.605 -12.303   1.573  0.00  0.00    -0.177 NA
ATOM     25  O   UNL     1       1.579 -11.053   0.777  0.00  0.00    -0.274 OA
ATOM     26  H   UNL     1      -0.643 -10.421   2.748  0.00  0.00    +0.127 HD
ATOM     27  H   UNL     1       2.540 -12.512   1.888  0.00  0.00    +0.156 HD
BRANCH  23  28
ATOM     28  C   UNL     1       0.130 -13.243   3.308  0.00  0.00    -0.014 A 
ATOM     29  C   UNL     1      -1.164 -13.244   3.795  0.00  0.00    +0.007 A 
ATOM     30  C   UNL     1      -1.700 -14.398   4.333  0.00  0.00    +0.015 A 
ATOM     31  C   UNL     1      -0.941 -15.554   4.386  0.00  0.00    +0.018 A 
ATOM     32  C   UNL     1       0.354 -15.553   3.899  0.00  0.00    +0.015 A 
ATOM     33  C   UNL     1       0.887 -14.399   3.356  0.00  0.00    +0.007 A 
ATOM     34 BR   UNL     1      -1.673 -17.134   5.123  0.00  0.00    -0.050 Br
ENDBRANCH  23  28
ENDBRANCH   7  21
TORSDOF 3
