REMARK  Name = ZINC40798084
REMARK  8 active torsions:
REMARK  status: ('A' for Active; 'I' for Inactive)
REMARK    1  A    between atoms: C_1  and  C_2
REMARK    2  A    between atoms: C_4  and  O_9
REMARK    3  A    between atoms: O_9  and  C_10
REMARK    4  A    between atoms: C_11  and  N_27
REMARK    5  A    between atoms: C_12  and  N_16
REMARK    6  A    between atoms: N_16  and  C_17
REMARK    7  A    between atoms: C_20  and  N_23
REMARK    8  A    between atoms: C_24  and  C_26
REMARK                            x       y       z     vdW  Elec       q    Type
REMARK                         _______ _______ _______ _____ _____    ______ ____
ROOT
ATOM      1  C   UNL     1       0.156  -4.089  -2.402  0.00  0.00    +0.246 A 
ATOM      2  C   UNL     1       0.247  -4.832  -3.579  0.00  0.00    +0.128 A 
ATOM      3  C   UNL     1       0.402  -6.217  -3.474  0.00  0.00    +0.151 A 
ATOM      4  N   UNL     1       0.456  -6.769  -2.265  0.00  0.00    -0.218 NA
ATOM      5  C   UNL     1       0.366  -6.030  -1.179  0.00  0.00    +0.227 A 
ATOM      6  N   UNL     1       0.225  -4.721  -1.234  0.00  0.00    -0.199 NA
ENDROOT
BRANCH   2   7
ATOM      7  N   UNL     1       0.185  -4.206  -4.833  0.00  0.00    -0.351 N 
ATOM      8  H   UNL     1       0.077  -3.244  -4.890  0.00  0.00    +0.143 HD
ATOM      9  H   UNL     1       0.249  -4.736  -5.643  0.00  0.00    +0.143 HD
ENDBRANCH   2   7
BRANCH   3  10
ATOM     10  N   UNL     1       0.497  -7.004  -4.616  0.00  0.00    -0.298 N 
ATOM     11  H   UNL     1       0.548  -6.587  -5.490  0.00  0.00    +0.154 HD
BRANCH  10  12
ATOM     12  C   UNL     1       0.520  -8.399  -4.503  0.00  0.00    +0.033 A 
ATOM     13  C   UNL     1       1.146  -9.164  -5.479  0.00  0.00    +0.025 A 
ATOM     14  C   UNL     1       1.168 -10.540  -5.368  0.00  0.00    +0.025 A 
ATOM     15  C   UNL     1       0.565 -11.159  -4.281  0.00  0.00    +0.033 A 
ATOM     16  C   UNL     1      -0.062 -10.394  -3.306  0.00  0.00    +0.025 A 
ATOM     17  C   UNL     1      -0.078  -9.018  -3.413  0.00  0.00    +0.025 A 
BRANCH  15  18
ATOM     18  N   UNL     1       0.587 -12.556  -4.169  0.00  0.00    -0.286 N 
ATOM     19  C   UNL     1       1.659 -13.249  -4.601  0.00  0.00    +0.214 C 
ATOM     20  O   UNL     1       2.644 -12.661  -4.994  0.00  0.00    -0.276 OA
ATOM     21  C   UNL     1       1.633 -14.756  -4.596  0.00  0.00    +0.109 C 
ATOM     22  H   UNL     1      -0.169 -13.023  -3.781  0.00  0.00    +0.155 HD
ENDBRANCH  15  18
ENDBRANCH  10  12
ENDBRANCH   3  10
BRANCH   1  23
ATOM     23  O   UNL     1       0.005  -2.742  -2.449  0.00  0.00    -0.436 OA
BRANCH  23  27
ATOM     24  C   UNL     1       2.485  -1.266   1.488  0.00  0.00    +0.045 C 
ATOM     25  C   UNL     1       1.220  -1.314   0.670  0.00  0.00    -0.029 A 
ATOM     26  C   UNL     1       1.196  -2.012  -0.522  0.00  0.00    +0.051 A 
ATOM     27  C   UNL     1       0.032  -2.056  -1.276  0.00  0.00    +0.131 A 
ATOM     28  C   UNL     1      -1.106  -1.399  -0.830  0.00  0.00    +0.048 A 
ATOM     29  C   UNL     1      -1.078  -0.702   0.362  0.00  0.00    +0.024 A 
ATOM     30  C   UNL     1       0.083  -0.664   1.115  0.00  0.00    +0.044 A 
ATOM     31 CL   UNL     1       0.114   0.206   2.617  0.00  0.00    -0.083 Cl
ENDBRANCH  23  27
ENDBRANCH   1  23
TORSDOF 6
