REMARK  Name = ZINC41834283
REMARK  6 active torsions:
REMARK  status: ('A' for Active; 'I' for Inactive)
REMARK    1  A    between atoms: C_1  and  C_2
REMARK    2  A    between atoms: C_2  and  C_3
REMARK    3  A    between atoms: C_2  and  C_4
REMARK    4  A    between atoms: C_2  and  N_7
REMARK    5  A    between atoms: N_7  and  C_8
REMARK    6  A    between atoms: C_8  and  C_17
REMARK                            x       y       z     vdW  Elec       q    Type
REMARK                         _______ _______ _______ _____ _____    ______ ____
ROOT
ATOM      1  C   UNL     1       1.392  -0.302  -0.787  0.00  0.00    +0.063 C 
ATOM      2  C   UNL     1       2.704  -0.936  -0.279  0.00  0.00    +0.008 C 
ATOM      3  C   UNL     1       2.211  -2.249   0.365  0.00  0.00    +0.035 C 
ATOM      4  C   UNL     1       0.780  -1.975   0.776  0.00  0.00    -0.045 A 
ATOM      5  C   UNL     1       0.309  -0.856   0.114  0.00  0.00    -0.044 A 
ATOM      6  C   UNL     1      -0.984  -0.416   0.338  0.00  0.00    +0.003 A 
ATOM      7  C   UNL     1      -1.806  -1.092   1.219  0.00  0.00    +0.000 A 
ATOM      8  C   UNL     1      -1.335  -2.211   1.881  0.00  0.00    +0.000 A 
ATOM      9  C   UNL     1      -0.045  -2.651   1.659  0.00  0.00    +0.004 A 
ENDROOT
BRANCH   1  10
ATOM     10  N   UNL     1       1.143  -0.692  -2.181  0.00  0.00    +0.402 N 
ATOM     11  H   UNL     1       0.155  -0.633  -2.376  0.00  0.00    -0.082 HD
ATOM     12  H   UNL     1       1.458  -1.640  -2.326  0.00  0.00    -0.082 HD
BRANCH  10  14
ATOM     13  C   UNL     1       3.241   0.537  -2.474  0.00  0.00    -0.001 C 
ATOM     14  C   UNL     1       1.875   0.210  -3.080  0.00  0.00    +0.006 C 
ATOM     15  C   UNL     1       1.077   1.503  -3.265  0.00  0.00    -0.001 C 
BRANCH  14  16
ATOM     16  C   UNL     1       2.066  -0.458  -4.417  0.00  0.00    +0.199 C 
ATOM     17  O   UNL     1       2.036   0.201  -5.435  0.00  0.00    -0.278 OA
ATOM     18  N   UNL     1       2.268  -1.789  -4.482  0.00  0.00    -0.330 N 
ATOM     19  H   UNL     1       2.292  -2.317  -3.669  0.00  0.00    +0.145 HD
ATOM     20  H   UNL     1       2.391  -2.219  -5.343  0.00  0.00    +0.145 HD
ENDBRANCH  14  16
ENDBRANCH  10  14
ENDBRANCH   1  10
BRANCH   1  21
ATOM     21  C   UNL     1       1.454   1.199  -0.668  0.00  0.00    +0.350 C 
ATOM     22  O   UNL     1       0.477   1.874  -0.948  0.00  0.00    -0.248 OA
ATOM     23  O   UNL     1       2.480   1.740  -0.292  0.00  0.00    -0.248 OA
ENDBRANCH   1  21
TORSDOF 4
