REMARK  Name = ZINC36984737
REMARK  5 active torsions:
REMARK  status: ('A' for Active; 'I' for Inactive)
REMARK    1  A    between atoms: C_1  and  O_2
REMARK    2  A    between atoms: O_2  and  C_3
REMARK    3  A    between atoms: C_6  and  N_21
REMARK    4  A    between atoms: C_8  and  O_9
REMARK    5  A    between atoms: O_9  and  C_10
REMARK                            x       y       z     vdW  Elec       q    Type
REMARK                         _______ _______ _______ _____ _____    ______ ____
ROOT
ATOM      1  O   UNL     1       0.111  -2.751  -0.140  0.00  0.00    -0.452 OA
ENDROOT
BRANCH   1   2
ATOM      2  C   UNL     1       0.095  -4.097  -0.300  0.00  0.00    +0.139 A 
ATOM      3  C   UNL     1       0.714  -4.693  -1.385  0.00  0.00    +0.066 A 
ATOM      4  C   UNL     1       0.682  -6.075  -1.522  0.00  0.00    +0.115 A 
ATOM      5  N   UNL     1       0.076  -6.844  -0.648  0.00  0.00    -0.255 NA
ATOM      6  C   UNL     1      -0.542  -6.335   0.424  0.00  0.00    +0.076 A 
ATOM      7  C   UNL     1      -0.548  -4.935   0.638  0.00  0.00    +0.043 A 
ATOM      8  C   UNL     1      -1.194  -4.408   1.766  0.00  0.00    +0.015 A 
ATOM      9  C   UNL     1      -1.803  -5.248   2.648  0.00  0.00    +0.021 A 
ATOM     10  C   UNL     1      -1.794  -6.627   2.443  0.00  0.00    +0.043 A 
ATOM     11  C   UNL     1      -1.187  -7.171   1.352  0.00  0.00    +0.048 A 
ATOM     12 CL   UNL     1      -2.582  -7.666   3.589  0.00  0.00    -0.083 Cl
ENDBRANCH   1   2
BRANCH   1  18
ATOM     13  C   UNL     1      -0.102  -1.695  -2.266  0.00  0.00    +0.162 A 
ATOM     14  C   UNL     1       0.447  -0.921  -3.276  0.00  0.00    +0.051 A 
ATOM     15  C   UNL     1       1.741  -0.452  -3.163  0.00  0.00    +0.026 A 
ATOM     16  C   UNL     1       2.496  -0.754  -2.037  0.00  0.00    +0.028 A 
ATOM     17  C   UNL     1       1.950  -1.529  -1.023  0.00  0.00    +0.072 A 
ATOM     18  C   UNL     1       0.650  -1.996  -1.134  0.00  0.00    +0.172 A 
BRANCH  16  19
ATOM     19  N   UNL     1       3.807  -0.278  -1.925  0.00  0.00    -0.358 N 
ATOM     20  H   UNL     1       4.189   0.263  -2.633  0.00  0.00    +0.142 HD
ATOM     21  H   UNL     1       4.334  -0.490  -1.138  0.00  0.00    +0.142 HD
ENDBRANCH  16  19
BRANCH  13  23
ATOM     22  C   UNL     1      -2.090  -1.810  -3.568  0.00  0.00    +0.277 C 
ATOM     23  O   UNL     1      -1.377  -2.157  -2.379  0.00  0.00    -0.491 OA
ENDBRANCH  13  23
ENDBRANCH   1  18
TORSDOF 4
