REMARK  Name = ZINC03287288
REMARK  3 active torsions:
REMARK  status: ('A' for Active; 'I' for Inactive)
REMARK    1  A    between atoms: C_8  and  C_9
REMARK    2  A    between atoms: N_11  and  N_12
REMARK    3  A    between atoms: N_12  and  C_13
REMARK                            x       y       z     vdW  Elec       q    Type
REMARK                         _______ _______ _______ _____ _____    ______ ____
ROOT
ATOM      1  C   UNL     1      -4.787   3.862  -0.444  0.00  0.00    +0.280 C 
ATOM      2  O   UNL     1      -4.812   5.045  -0.165  0.00  0.00    -0.267 OA
ATOM      3  N   UNL     1      -3.630   3.175  -0.362  0.00  0.00    -0.231 N 
ATOM      4  H   UNL     1      -3.610   2.231  -0.584  0.00  0.00    +0.173 HD
ENDROOT
BRANCH   1  12
ATOM      5  C   UNL     1      -7.238   3.901  -0.959  0.00  0.00    +0.040 A 
ATOM      6  C   UNL     1      -8.359   3.236  -1.359  0.00  0.00    +0.074 A 
ATOM      7  C   UNL     1      -8.240   1.862  -1.664  0.00  0.00    +0.265 A 
ATOM      8  O   UNL     1      -9.216   1.227  -2.026  0.00  0.00    -0.266 OA
ATOM      9  N   UNL     1      -7.042   1.259  -1.553  0.00  0.00    -0.243 N 
ATOM     10  H   UNL     1      -6.966   0.285  -1.767  0.00  0.00    +0.192 HD
ATOM     11  N   UNL     1      -5.994   1.900  -1.180  0.00  0.00    -0.166 NA
ATOM     12  C   UNL     1      -6.025   3.177  -0.873  0.00  0.00    +0.147 A 
ENDBRANCH   1  12
BRANCH   3  13
ATOM     13  N   UNL     1      -2.457   3.824   0.045  0.00  0.00    -0.261 N 
ATOM     14  H   UNL     1      -2.458   4.784   0.189  0.00  0.00    +0.170 HD
BRANCH  13  15
ATOM     15  C   UNL     1      -1.284   3.089   0.245  0.00  0.00    +0.081 A 
ATOM     16  C   UNL     1      -0.051   3.644  -0.075  0.00  0.00    +0.066 A 
ATOM     17  C   UNL     1       1.106   2.913   0.119  0.00  0.00    +0.042 A 
ATOM     18  C   UNL     1       1.038   1.633   0.640  0.00  0.00    +0.044 A 
ATOM     19  C   UNL     1      -0.188   1.079   0.965  0.00  0.00    +0.042 A 
ATOM     20  C   UNL     1      -1.349   1.804   0.769  0.00  0.00    +0.066 A 
ATOM     21 CL   UNL     1      -2.886   1.108   1.176  0.00  0.00    -0.081 Cl
ATOM     22 CL   UNL     1       2.494   0.721   0.888  0.00  0.00    -0.083 Cl
ATOM     23 CL   UNL     1       0.036   5.253  -0.722  0.00  0.00    -0.081 Cl
ENDBRANCH  13  15
ENDBRANCH   3  13
TORSDOF 3
