REMARK  Name = ZINC43411144
REMARK  10 active torsions:
REMARK  status: ('A' for Active; 'I' for Inactive)
REMARK    1  A    between atoms: C_1  and  C_2
REMARK    2  A    between atoms: C_2  and  C_3
REMARK    3  A    between atoms: C_2  and  C_4
REMARK    4  A    between atoms: C_2  and  N_18
REMARK    5  A    between atoms: C_4  and  N_5
REMARK    6  A    between atoms: N_5  and  S_6
REMARK    7  A    between atoms: S_6  and  C_9
REMARK    8  A    between atoms: C_12  and  N_16
REMARK    9  A    between atoms: N_18  and  C_19
REMARK   10  A    between atoms: N_18  and  C_20
REMARK                            x       y       z     vdW  Elec       q    Type
REMARK                         _______ _______ _______ _____ _____    ______ ____
ROOT
ATOM      1  S   UNL     1      -2.784  -2.847   0.385  0.00  0.00    +0.064 S 
ATOM      2  O   UNL     1      -2.455  -4.224   0.263  0.00  0.00    -0.153 OA
ATOM      3  O   UNL     1      -3.287  -2.288   1.590  0.00  0.00    -0.153 OA
ENDROOT
BRANCH   1   4
ATOM      4  C   UNL     1      -3.975  -2.501  -0.867  0.00  0.00    +0.175 A 
ATOM      5  C   UNL     1      -4.839  -1.429  -0.721  0.00  0.00    +0.154 A 
ATOM      6  C   UNL     1      -5.775  -1.155  -1.702  0.00  0.00    +0.063 A 
ATOM      7  C   UNL     1      -5.847  -1.957  -2.834  0.00  0.00    +0.030 A 
ATOM      8  C   UNL     1      -4.979  -3.031  -2.979  0.00  0.00    +0.063 A 
ATOM      9  C   UNL     1      -4.041  -3.298  -1.998  0.00  0.00    +0.154 A 
ATOM     10  F   UNL     1      -3.193  -4.340  -2.140  0.00  0.00    -0.203 F 
ATOM     11  F   UNL     1      -4.768  -0.649   0.380  0.00  0.00    -0.203 F 
BRANCH   7  12
ATOM     12  N   UNL     1      -6.792  -1.683  -3.826  0.00  0.00    -0.358 N 
ATOM     13  H   UNL     1      -7.398  -0.932  -3.724  0.00  0.00    +0.142 HD
ATOM     14  H   UNL     1      -6.842  -2.243  -4.616  0.00  0.00    +0.142 HD
ENDBRANCH   7  12
ENDBRANCH   1   4
BRANCH   1  15
ATOM     15  N   UNL     1      -1.413  -1.998   0.005  0.00  0.00    -0.191 NA
ATOM     16  H   UNL     1      -0.598  -2.471  -0.223  0.00  0.00    +0.148 HD
BRANCH  15  17
ATOM     17  C   UNL     1      -1.433  -0.534   0.013  0.00  0.00    +0.093 C 
BRANCH  17  19
ATOM     18  C   UNL     1      -0.019   1.526   0.010  0.00  0.00    -0.009 C 
ATOM     19  C   UNL     1       0.002  -0.004   0.002  0.00  0.00    -0.058 C 
ATOM     20  C   UNL     1       0.742  -0.511   1.242  0.00  0.00    -0.009 C 
BRANCH  19  21
ATOM     21  N   UNL     1       0.690  -0.478  -1.207  0.00  0.00    +0.380 N 
ATOM     22  C   UNL     1      -0.021   0.009  -2.397  0.00  0.00    -0.096 C 
ATOM     23  C   UNL     1       2.068   0.031  -1.217  0.00  0.00    -0.096 C 
ATOM     24  H   UNL     1       0.703  -1.487  -1.212  0.00  0.00    -0.082 HD
ENDBRANCH  19  21
ENDBRANCH  17  19
ENDBRANCH  15  17
ENDBRANCH   1  15
TORSDOF 6
