REMARK  Name = ZINC42272481
REMARK  6 active torsions:
REMARK  status: ('A' for Active; 'I' for Inactive)
REMARK    1  A    between atoms: C_1  and  C_2
REMARK    2  A    between atoms: C_4  and  N_22
REMARK    3  A    between atoms: C_5  and  S_9
REMARK    4  A    between atoms: C_7  and  C_8
REMARK    5  A    between atoms: S_9  and  N_12
REMARK    6  A    between atoms: C_17  and  C_19
REMARK                            x       y       z     vdW  Elec       q    Type
REMARK                         _______ _______ _______ _____ _____    ______ ____
ROOT
ATOM      1  S   UNL     1       0.026  -4.005  -0.311  0.00  0.00    +0.063 S 
ATOM      2  O   UNL     1       1.155  -4.485  -1.028  0.00  0.00    -0.153 OA
ATOM      3  O   UNL     1      -0.085  -4.117   1.101  0.00  0.00    -0.153 OA
ENDROOT
BRANCH   1   8
ATOM      4  C   UNL     1      -0.477   1.870  -1.613  0.00  0.00    +0.044 C 
ATOM      5  C   UNL     1      -0.351   0.403  -1.292  0.00  0.00    -0.046 A 
ATOM      6  C   UNL     1      -0.219  -0.517  -2.313  0.00  0.00    +0.028 A 
ATOM      7  C   UNL     1      -0.103  -1.869  -2.017  0.00  0.00    +0.051 A 
ATOM      8  C   UNL     1      -0.120  -2.291  -0.693  0.00  0.00    +0.126 A 
ATOM      9  C   UNL     1      -0.254  -1.365   0.323  0.00  0.00    +0.034 A 
ATOM     10  C   UNL     1      -0.364  -0.019   0.024  0.00  0.00    -0.046 A 
ATOM     11  C   UNL     1      -0.502   0.989   1.136  0.00  0.00    +0.044 C 
BRANCH   7  12
ATOM     12  N   UNL     1       0.031  -2.803  -3.047  0.00  0.00    -0.356 N 
ATOM     13  H   UNL     1      -0.031  -2.517  -3.972  0.00  0.00    +0.142 HD
ATOM     14  H   UNL     1       0.187  -3.737  -2.838  0.00  0.00    +0.142 HD
ENDBRANCH   7  12
ENDBRANCH   1   8
BRANCH   1  15
ATOM     15  N   UNL     1      -1.299  -4.764  -0.952  0.00  0.00    -0.165 NA
ATOM     16  C   UNL     1      -1.166  -5.642  -2.122  0.00  0.00    +0.110 C 
ATOM     17  C   UNL     1      -1.786  -7.003  -1.790  0.00  0.00    +0.017 C 
ATOM     18  C   UNL     1      -3.227  -6.801  -1.317  0.00  0.00    +0.003 C 
ATOM     19  C   UNL     1      -3.234  -5.945  -0.048  0.00  0.00    +0.030 C 
ATOM     20  C   UNL     1      -2.629  -4.577  -0.356  0.00  0.00    +0.165 C 
BRANCH  20  21
ATOM     21  C   UNL     1      -2.505  -3.783   0.918  0.00  0.00    +0.229 C 
ATOM     22  O   UNL     1      -2.124  -4.324   1.935  0.00  0.00    -0.274 OA
ATOM     23  N   UNL     1      -2.818  -2.472   0.929  0.00  0.00    -0.328 N 
ATOM     24  H   UNL     1      -3.123  -2.039   0.116  0.00  0.00    +0.145 HD
ATOM     25  H   UNL     1      -2.738  -1.961   1.750  0.00  0.00    +0.145 HD
ENDBRANCH  20  21
ENDBRANCH   1  15
TORSDOF 4
