REMARK  Name = ZINC57470916
REMARK  7 active torsions:
REMARK  status: ('A' for Active; 'I' for Inactive)
REMARK    1  A    between atoms: C_1  and  N_2
REMARK    2  A    between atoms: C_3  and  N_25
REMARK    3  A    between atoms: C_4  and  C_11
REMARK    4  A    between atoms: N_7  and  C_10
REMARK    5  A    between atoms: C_11  and  C_13
REMARK    6  A    between atoms: C_13  and  S_14
REMARK    7  A    between atoms: S_14  and  C_15
REMARK                            x       y       z     vdW  Elec       q    Type
REMARK                         _______ _______ _______ _____ _____    ______ ____
ROOT
ATOM      1  C   UNL     1      -2.480  -2.605   0.022  0.00  0.00    +0.182 C 
ATOM      2  O   UNL     1      -3.493  -1.938  -0.055  0.00  0.00    -0.291 OA
ENDROOT
BRANCH   1   6
ATOM      3  C   UNL     1       0.265   1.450   0.033  0.00  0.00    +0.155 C 
ATOM      4  N   UNL     1       0.138  -0.010   0.013  0.00  0.00    -0.284 N 
ATOM      5  C   UNL     1      -1.106  -0.574   0.028  0.00  0.00    +0.116 A 
ATOM      6  C   UNL     1      -1.218  -1.975   0.008  0.00  0.00    +0.120 A 
ATOM      7  C   UNL     1       0.022  -2.762  -0.028  0.00  0.00    +0.269 A 
ATOM      8  O   UNL     1      -0.015  -3.978  -0.047  0.00  0.00    -0.267 OA
ATOM      9  N   UNL     1       1.202  -2.108  -0.040  0.00  0.00    -0.263 N 
ATOM     10  C   UNL     1       1.246  -0.766  -0.025  0.00  0.00    +0.333 A 
ATOM     11  O   UNL     1       2.330  -0.216  -0.042  0.00  0.00    -0.246 OA
ATOM     12  C   UNL     1       2.451  -2.872  -0.076  0.00  0.00    +0.157 C 
BRANCH   5  13
ATOM     13  N   UNL     1      -2.219   0.208   0.062  0.00  0.00    -0.344 N 
ATOM     14  H   UNL     1      -2.134   1.170   0.156  0.00  0.00    +0.144 HD
ATOM     15  H   UNL     1      -3.098  -0.196  -0.009  0.00  0.00    +0.144 HD
ENDBRANCH   5  13
ENDBRANCH   1   6
BRANCH   1  16
ATOM     16  C   UNL     1      -2.572  -4.105   0.134  0.00  0.00    +0.158 C 
BRANCH  16  17
ATOM     17  S   UNL     1      -4.316  -4.606   0.126  0.00  0.00    -0.059 S 
BRANCH  17  18
ATOM     18  C   UNL     1      -4.255  -6.362   0.262  0.00  0.00    +0.258 A 
ATOM     19  N   UNL     1      -3.158  -7.070   0.350  0.00  0.00    -0.203 NA
ATOM     20  C   UNL     1      -3.494  -8.386   0.440  0.00  0.00    +0.112 A 
ATOM     21  C   UNL     1      -2.754  -9.564   0.553  0.00  0.00    +0.051 A 
ATOM     22  C   UNL     1      -3.406 -10.777   0.625  0.00  0.00    +0.043 A 
ATOM     23  C   UNL     1      -4.791 -10.832   0.585  0.00  0.00    +0.024 A 
ATOM     24  C   UNL     1      -5.534  -9.674   0.473  0.00  0.00    +0.050 A 
ATOM     25  C   UNL     1      -4.895  -8.447   0.400  0.00  0.00    +0.156 A 
ATOM     26  O   UNL     1      -5.330  -7.170   0.295  0.00  0.00    -0.431 OA
ATOM     27 CL   UNL     1      -2.487 -12.243   0.766  0.00  0.00    -0.083 Cl
ENDBRANCH  17  18
ENDBRANCH  16  17
ENDBRANCH   1  16
TORSDOF 5
