REMARK  Name = ZINC48336421
REMARK  11 active torsions:
REMARK  status: ('A' for Active; 'I' for Inactive)
REMARK    1  A    between atoms: C_1  and  C_2
REMARK    2  A    between atoms: C_2  and  C_3
REMARK    3  A    between atoms: C_3  and  C_4
REMARK    4  A    between atoms: C_4  and  N_5
REMARK    5  A    between atoms: C_6  and  N_23
REMARK    6  A    between atoms: C_7  and  N_14
REMARK    7  A    between atoms: N_14  and  C_15
REMARK    8  A    between atoms: C_15  and  C_17
REMARK    9  A    between atoms: C_15  and  C_18
REMARK   10  A    between atoms: N_20  and  C_21
REMARK   11  A    between atoms: N_20  and  C_22
REMARK                            x       y       z     vdW  Elec       q    Type
REMARK                         _______ _______ _______ _____ _____    ______ ____
ROOT
ATOM      1  N   UNL     1       1.452  -2.600  -2.402  0.00  0.00    -0.281 N 
ATOM      2  C   UNL     1       0.738  -2.706  -3.574  0.00  0.00    +0.127 A 
ATOM      3  C   UNL     1       1.348  -3.215  -4.688  0.00  0.00    +0.131 A 
ATOM      4  C   UNL     1       2.693  -3.617  -4.605  0.00  0.00    +0.277 A 
ATOM      5  O   UNL     1       3.259  -4.073  -5.585  0.00  0.00    -0.266 OA
ATOM      6  N   UNL     1       3.353  -3.495  -3.437  0.00  0.00    -0.273 N 
ATOM      7  H   UNL     1       4.281  -3.772  -3.378  0.00  0.00    +0.173 HD
ATOM      8  C   UNL     1       2.740  -2.988  -2.353  0.00  0.00    +0.331 A 
ATOM      9  O   UNL     1       3.357  -2.883  -1.310  0.00  0.00    -0.246 OA
ENDROOT
BRANCH   2  10
ATOM     10  N   UNL     1      -0.578  -2.304  -3.624  0.00  0.00    -0.343 N 
ATOM     11  H   UNL     1      -1.006  -1.944  -2.832  0.00  0.00    +0.144 HD
ATOM     12  H   UNL     1      -1.077  -2.381  -4.453  0.00  0.00    +0.144 HD
ENDBRANCH   2  10
BRANCH   3  13
ATOM     13  N   UNL     1       0.637  -3.335  -5.904  0.00  0.00    -0.326 N 
ATOM     14  H   UNL     1      -0.312  -3.132  -5.934  0.00  0.00    +0.147 HD
BRANCH  13  15
ATOM     15  C   UNL     1       1.332  -3.765  -7.120  0.00  0.00    +0.154 C 
ATOM     16  C   UNL     1       1.397  -5.293  -7.156  0.00  0.00    +0.038 C 
BRANCH  15  17
ATOM     17  C   UNL     1       0.584  -3.266  -8.330  0.00  0.00    +0.235 C 
ATOM     18  O   UNL     1      -0.605  -3.039  -8.257  0.00  0.00    -0.274 OA
ATOM     19  N   UNL     1       1.237  -3.072  -9.493  0.00  0.00    -0.306 N 
ATOM     20  C   UNL     1       0.536  -2.482 -10.636  0.00  0.00    +0.131 C 
ATOM     21  C   UNL     1       2.647  -3.450  -9.613  0.00  0.00    +0.131 C 
ENDBRANCH  15  17
ENDBRANCH  13  15
ENDBRANCH   3  13
BRANCH   1  22
ATOM     22  C   UNL     1       0.809  -2.056  -1.204  0.00  0.00    +0.128 C 
BRANCH  22  23
ATOM     23  C   UNL     1       1.000  -0.539  -1.166  0.00  0.00    +0.021 C 
BRANCH  23  25
ATOM     24  C   UNL     1       0.519   1.547   0.123  0.00  0.00    +0.004 C 
ATOM     25  C   UNL     1       0.328   0.029   0.086  0.00  0.00    -0.002 C 
ENDBRANCH  23  25
ENDBRANCH  22  23
ENDBRANCH   1  22
TORSDOF 7
