REMARK  Name = ZINC40809537
REMARK  3 active torsions:
REMARK  status: ('A' for Active; 'I' for Inactive)
REMARK    1  A    between atoms: C_8  and  S_9
REMARK    2  A    between atoms: S_9  and  N_12
REMARK    3  A    between atoms: N_12  and  C_13
REMARK                            x       y       z     vdW  Elec       q    Type
REMARK                         _______ _______ _______ _____ _____    ______ ____
ROOT
ATOM      1  S   UNL     1      -1.511  -0.906   0.011  0.00  0.00    +0.060 S 
ATOM      2  O   UNL     1      -1.169  -2.271   0.210  0.00  0.00    -0.153 OA
ATOM      3  O   UNL     1      -2.395  -0.208   0.877  0.00  0.00    -0.153 OA
ENDROOT
BRANCH   1  11
ATOM      4  C   UNL     1      -0.017   1.398   0.010  0.00  0.00    +0.035 A 
ATOM      5  C   UNL     1       1.164   2.081   0.002  0.00  0.00    +0.072 A 
ATOM      6  C   UNL     1       2.373   1.364  -0.013  0.00  0.00    +0.249 A 
ATOM      7  O   UNL     1       3.437   1.963  -0.020  0.00  0.00    -0.268 OA
ATOM      8  N   UNL     1       2.358   0.018  -0.020  0.00  0.00    -0.327 N 
ATOM      9  H   UNL     1       3.196  -0.471  -0.031  0.00  0.00    +0.168 HD
ATOM     10  C   UNL     1       1.184  -0.664  -0.013  0.00  0.00    +0.114 A 
ATOM     11  C   UNL     1       0.002  -0.004   0.002  0.00  0.00    +0.121 A 
ENDBRANCH   1  11
BRANCH   1  12
ATOM     12  N   UNL     1      -2.155  -0.797  -1.511  0.00  0.00    -0.182 NA
ATOM     13  H   UNL     1      -2.995  -0.332  -1.649  0.00  0.00    +0.149 HD
BRANCH  12  14
ATOM     14  C   UNL     1      -1.457  -1.403  -2.647  0.00  0.00    +0.110 C 
ATOM     15  C   UNL     1      -1.666  -0.543  -3.900  0.00  0.00    +0.025 C 
ATOM     16  C   UNL     1      -1.168  -1.306  -5.130  0.00  0.00    +0.010 C 
ATOM     17  C   UNL     1      -2.108  -2.483  -5.419  0.00  0.00    +0.075 C 
ATOM     18  C   UNL     1      -2.308  -3.258  -4.139  0.00  0.00    +0.110 A 
ATOM     19  C   UNL     1      -2.017  -2.776  -2.913  0.00  0.00    +0.012 A 
ATOM     20  C   UNL     1      -2.333  -3.783  -1.984  0.00  0.00    +0.046 A 
ATOM     21  C   UNL     1      -2.803  -4.829  -2.693  0.00  0.00    +0.195 A 
ATOM     22  O   UNL     1      -2.787  -4.500  -3.999  0.00  0.00    -0.467 OA
ENDBRANCH  12  14
ENDBRANCH   1  12
TORSDOF 3
