REMARK  Name = ZINC06669268
REMARK  7 active torsions:
REMARK  status: ('A' for Active; 'I' for Inactive)
REMARK    1  A    between atoms: C_1  and  C_2
REMARK    2  A    between atoms: C_3  and  C_18
REMARK    3  A    between atoms: C_4  and  C_11
REMARK    4  A    between atoms: N_9  and  C_10
REMARK    5  A    between atoms: C_14  and  N_17
REMARK    6  A    between atoms: C_18  and  O_20
REMARK    7  A    between atoms: O_20  and  C_21
REMARK                            x       y       z     vdW  Elec       q    Type
REMARK                         _______ _______ _______ _____ _____    ______ ____
ROOT
ATOM      1  C   UNL     1       1.493   1.323   2.353  0.00  0.00    +0.061 C 
ATOM      2  C   UNL     1       0.028   1.678   2.362  0.00  0.00    +0.021 C 
ATOM      3  C   UNL     1      -0.551   2.082   3.514  0.00  0.00    +0.078 C 
ATOM      4  C   UNL     1      -2.026   2.428   3.478  0.00  0.00    +0.141 C 
ATOM      5  N   UNL     1      -2.711   2.295   2.182  0.00  0.00    -0.315 N 
ATOM      6  C   UNL     1      -1.994   1.883   1.117  0.00  0.00    +0.137 C 
ATOM      7  S   UNL     1      -2.776   1.731  -0.398  0.00  0.00    -0.018 S 
ATOM      8  N   UNL     1      -0.692   1.585   1.207  0.00  0.00    -0.289 N 
ATOM      9  C   UNL     1       0.001   1.141  -0.005  0.00  0.00    +0.137 C 
ATOM     10  H   UNL     1      -3.655   2.502   2.095  0.00  0.00    +0.149 HD
ENDROOT
BRANCH   4  11
ATOM     11  C   UNL     1      -2.735   1.544   4.472  0.00  0.00    -0.022 A 
ATOM     12  C   UNL     1      -3.053   0.241   4.132  0.00  0.00    +0.007 A 
ATOM     13  C   UNL     1      -3.698  -0.573   5.042  0.00  0.00    +0.023 A 
ATOM     14  C   UNL     1      -4.037  -0.080   6.295  0.00  0.00    +0.025 A 
ATOM     15  C   UNL     1      -3.721   1.231   6.631  0.00  0.00    +0.023 A 
ATOM     16  C   UNL     1      -3.071   2.038   5.719  0.00  0.00    +0.007 A 
BRANCH  14  17
ATOM     17  N   UNL     1      -4.695  -0.899   7.216  0.00  0.00    -0.358 N 
ATOM     18  H   UNL     1      -4.931  -0.553   8.091  0.00  0.00    +0.142 HD
ATOM     19  H   UNL     1      -4.915  -1.814   6.980  0.00  0.00    +0.142 HD
ENDBRANCH  14  17
ENDBRANCH   4  11
BRANCH   3  20
ATOM     20  C   UNL     1       0.194   2.178   4.712  0.00  0.00    +0.339 C 
ATOM     21  O   UNL     1       1.377   1.895   4.718  0.00  0.00    -0.245 OA
BRANCH  20  22
ATOM     22  O   UNL     1      -0.408   2.584   5.850  0.00  0.00    -0.465 OA
ATOM     23  C   UNL     1       0.405   2.659   7.023  0.00  0.00    +0.280 C 
ENDBRANCH  20  22
ENDBRANCH   3  20
TORSDOF 4
