REMARK  Name = ZINC13436560
REMARK  3 active torsions:
REMARK  status: ('A' for Active; 'I' for Inactive)
REMARK    1  A    between atoms: C_4  and  C_7
REMARK    2  A    between atoms: C_8  and  C_9
REMARK    3  A    between atoms: C_14  and  N_15
REMARK                            x       y       z     vdW  Elec       q    Type
REMARK                         _______ _______ _______ _____ _____    ______ ____
ROOT
ATOM      1  C   UNL     1       5.952  -1.938  -0.081  0.00  0.00    +0.071 A 
ATOM      2  C   UNL     1       7.165  -1.242  -0.084  0.00  0.00    +0.042 A 
ATOM      3  C   UNL     1       8.344  -1.970  -0.089  0.00  0.00    +0.060 A 
ATOM      4  C   UNL     1       8.293  -3.354  -0.090  0.00  0.00    +0.133 A 
ATOM      5  N   UNL     1       7.142  -3.997  -0.087  0.00  0.00    -0.234 NA
ATOM      6  C   UNL     1       5.981  -3.350  -0.077  0.00  0.00    +0.172 A 
ATOM      7 CL   UNL     1       9.876  -1.153  -0.093  0.00  0.00    -0.082 Cl
ENDROOT
BRANCH   6   8
ATOM      8  N   UNL     1       4.814  -4.052  -0.068  0.00  0.00    -0.194 NA
ATOM      9  C   UNL     1       4.314  -4.483   1.070  0.00  0.00    +0.194 C 
ATOM     10  N   UNL     1       4.907  -4.134   2.255  0.00  0.00    -0.370 N 
ATOM     11  N   UNL     1       3.200  -5.281   1.071  0.00  0.00    -0.370 N 
ATOM     12  H   UNL     1       5.649  -3.509   2.260  0.00  0.00    +0.159 HD
ATOM     13  H   UNL     1       2.780  -5.528   0.232  0.00  0.00    +0.159 HD
ATOM     14  H   UNL     1       2.831  -5.598   1.910  0.00  0.00    +0.159 HD
ATOM     15  H   UNL     1       4.585  -4.512   3.088  0.00  0.00    +0.159 HD
ENDBRANCH   6   8
BRANCH   1  17
ATOM     16  C   UNL     1       3.684  -0.655  -0.071  0.00  0.00    -0.061 C 
ATOM     17  C   UNL     1       4.706  -1.233  -0.076  0.00  0.00    -0.057 C 
BRANCH  16  21
ATOM     18  C   UNL     1       0.027   1.413  -0.058  0.00  0.00    +0.000 A 
ATOM     19  C   UNL     1       1.217   2.119  -0.066  0.00  0.00    +0.001 A 
ATOM     20  C   UNL     1       2.421   1.447  -0.070  0.00  0.00    +0.017 A 
ATOM     21  C   UNL     1       2.438   0.049  -0.066  0.00  0.00    +0.025 A 
ATOM     22  C   UNL     1       1.232  -0.657  -0.058  0.00  0.00    +0.017 A 
ATOM     23  C   UNL     1       0.035   0.029  -0.053  0.00  0.00    +0.001 A 
ENDBRANCH  16  21
ENDBRANCH   1  17
TORSDOF 3
