REMARK  Name = ZINC00184432
REMARK  3 active torsions:
REMARK  status: ('A' for Active; 'I' for Inactive)
REMARK    1  A    between atoms: C_3  and  C_6
REMARK    2  A    between atoms: C_9  and  C_21
REMARK    3  A    between atoms: C_14  and  C_16
REMARK                            x       y       z     vdW  Elec       q    Type
REMARK                         _______ _______ _______ _____ _____    ______ ____
ROOT
ATOM      1  C   UNL     1       3.599   0.625  -0.029  0.00  0.00    +0.140 C 
ATOM      2  C   UNL     1       4.093   0.360  -1.456  0.00  0.00    +0.066 C 
ATOM      3  C   UNL     1       3.487  -0.944  -1.985  0.00  0.00    +0.215 C 
ATOM      4  N   UNL     1       3.692  -2.001  -0.991  0.00  0.00    -0.237 N 
ATOM      5  C   UNL     1       3.970  -1.760   0.325  0.00  0.00    +0.137 A 
ATOM      6  C   UNL     1       4.101  -2.946   0.951  0.00  0.00    +0.112 A 
ATOM      7  C   UNL     1       3.894  -3.961  -0.011  0.00  0.00    +0.167 A 
ATOM      8  N   UNL     1       3.649  -3.382  -1.174  0.00  0.00    -0.163 NA
ATOM      9 CL   UNL     1       4.457  -3.185   2.633  0.00  0.00    -0.078 Cl
ATOM     10  N   UNL     1       4.078  -0.462   0.847  0.00  0.00    -0.318 N 
ATOM     11  H   UNL     1       4.447  -0.287   1.727  0.00  0.00    +0.148 HD
ENDROOT
BRANCH   1  14
ATOM     12  C   UNL     1      -0.016   1.341   0.009  0.00  0.00    +0.041 A 
ATOM     13  C   UNL     1       1.331   1.769  -0.001  0.00  0.00    +0.046 A 
ATOM     14  C   UNL     1       2.092   0.660  -0.014  0.00  0.00    +0.125 A 
ATOM     15  O   UNL     1       1.282  -0.411  -0.012  0.00  0.00    -0.466 OA
ATOM     16  C   UNL     1       0.002  -0.004   0.002  0.00  0.00    +0.195 A 
ENDBRANCH   1  14
BRANCH   7  17
ATOM     17  C   UNL     1       3.945  -5.416   0.239  0.00  0.00    +0.263 C 
ATOM     18  O   UNL     1       4.182  -5.833   1.357  0.00  0.00    -0.269 OA
ATOM     19  N   UNL     1       3.729  -6.282  -0.771  0.00  0.00    -0.324 N 
ATOM     20  H   UNL     1       3.540  -5.949  -1.663  0.00  0.00    +0.145 HD
ATOM     21  H   UNL     1       3.762  -7.237  -0.607  0.00  0.00    +0.145 HD
ENDBRANCH   7  17
BRANCH   3  22
ATOM     22  C   UNL     1       4.171  -1.332  -3.298  0.00  0.00    +0.412 C 
ATOM     23  F   UNL     1       5.540  -1.512  -3.074  0.00  0.00    -0.168 F 
ATOM     24  F   UNL     1       3.616  -2.522  -3.779  0.00  0.00    -0.168 F 
ATOM     25  F   UNL     1       3.983  -0.315  -4.240  0.00  0.00    -0.168 F 
ENDBRANCH   3  22
TORSDOF 3
