REMARK  Name = ZINC51583550
REMARK  7 active torsions:
REMARK  status: ('A' for Active; 'I' for Inactive)
REMARK    1  A    between atoms: C_1  and  C_2
REMARK    2  A    between atoms: C_5  and  C_11
REMARK    3  A    between atoms: C_6  and  C_10
REMARK    4  A    between atoms: C_7  and  O_8
REMARK    5  A    between atoms: O_8  and  C_9
REMARK    6  A    between atoms: C_11  and  N_12
REMARK    7  A    between atoms: N_15  and  C_16
REMARK                            x       y       z     vdW  Elec       q    Type
REMARK                         _______ _______ _______ _____ _____    ______ ____
ROOT
ATOM      1  N   UNL     1       1.446  -4.700  -0.221  0.00  0.00    -0.294 N 
ATOM      2  C   UNL     1       1.711  -6.020  -0.280  0.00  0.00    +0.304 C 
ATOM      3  O   UNL     1       0.798  -6.822  -0.313  0.00  0.00    -0.252 OA
ATOM      4  N   UNL     1       2.988  -6.451  -0.304  0.00  0.00    -0.268 N 
ATOM      5  H   UNL     1       2.175  -4.060  -0.195  0.00  0.00    +0.151 HD
ATOM      6  H   UNL     1       3.715  -5.811  -0.344  0.00  0.00    +0.156 HD
ENDROOT
BRANCH   4   7
ATOM      7  C   UNL     1       3.264  -7.823  -0.270  0.00  0.00    +0.055 A 
ATOM      8  C   UNL     1       2.413  -8.720  -0.904  0.00  0.00    +0.025 A 
ATOM      9  C   UNL     1       2.688 -10.073  -0.870  0.00  0.00    +0.003 A 
ATOM     10  C   UNL     1       3.809 -10.537  -0.206  0.00  0.00    +0.021 A 
ATOM     11  C   UNL     1       4.659  -9.647   0.427  0.00  0.00    +0.061 A 
ATOM     12  C   UNL     1       4.392  -8.290   0.392  0.00  0.00    +0.080 A 
ATOM     13 CL   UNL     1       5.462  -7.173   1.180  0.00  0.00    -0.080 Cl
ATOM     14 CL   UNL     1       6.065 -10.233   1.260  0.00  0.00    -0.082 Cl
ENDBRANCH   4   7
BRANCH   1  15
ATOM     15  C   UNL     1       0.059  -4.231  -0.196  0.00  0.00    +0.161 C 
BRANCH  15  20
ATOM     16  C   UNL     1      -0.021   1.504  -0.056  0.00  0.00    +0.049 C 
ATOM     17  C   UNL     1      -0.001  -0.003  -0.053  0.00  0.00    +0.010 A 
ATOM     18  C   UNL     1       0.006  -0.705  -1.241  0.00  0.00    +0.118 A 
ATOM     19  N   UNL     1       0.025  -2.024  -1.247  0.00  0.00    -0.258 NA
ATOM     20  C   UNL     1       0.038  -2.725  -0.129  0.00  0.00    +0.065 A 
ATOM     21  C   UNL     1       0.032  -2.098   1.099  0.00  0.00    +0.014 A 
ATOM     22  C   UNL     1       0.018  -0.706   1.149  0.00  0.00    +0.129 A 
ATOM     23  C   UNL     1       0.047  -2.907   2.370  0.00  0.00    +0.049 C 
BRANCH  22  24
ATOM     24  O   UNL     1       0.017  -0.052   2.338  0.00  0.00    -0.494 OA
ATOM     25  C   UNL     1      -1.256   0.243   2.915  0.00  0.00    +0.277 C 
ENDBRANCH  22  24
ENDBRANCH  15  20
ENDBRANCH   1  15
TORSDOF 4
