REMARK  Name = ZINC06691826
REMARK  6 active torsions:
REMARK  status: ('A' for Active; 'I' for Inactive)
REMARK    1  A    between atoms: C_4  and  N_7
REMARK    2  A    between atoms: C_11  and  S_15
REMARK    3  A    between atoms: S_15  and  C_16
REMARK    4  A    between atoms: C_16  and  C_17
REMARK    5  A    between atoms: C_17  and  C_19
REMARK    6  A    between atoms: C_17  and  N_22
REMARK                            x       y       z     vdW  Elec       q    Type
REMARK                         _______ _______ _______ _____ _____    ______ ____
ROOT
ATOM      1  N   UNK     1      -2.897   1.548  -2.408  0.00  0.00    -0.238 N 
ATOM      2  C   UNK     1      -3.076   2.850  -2.663  0.00  0.00    +0.224 C 
ATOM      3  O   UNK     1      -2.687   3.763  -1.965  0.00  0.00    -0.275 OA
ATOM      4  C   UNK     1      -3.838   3.003  -3.961  0.00  0.00    +0.120 C 
ATOM      5  C   UNK     1      -4.079   1.548  -4.412  0.00  0.00    +0.141 C 
ATOM      6  C   UNK     1      -3.423   0.726  -3.324  0.00  0.00    +0.235 C 
ATOM      7  O   UNK     1      -3.381  -0.485  -3.287  0.00  0.00    -0.274 OA
ENDROOT
BRANCH   1  11
ATOM      8  C   UNK     1      -0.729   1.579   1.267  0.00  0.00    +0.000 C 
ATOM      9  C   UNK     1      -0.013   1.086   0.008  0.00  0.00    +0.002 C 
ATOM     10  C   UNK     1      -0.753   1.593  -1.232  0.00  0.00    +0.023 C 
ATOM     11  C   UNK     1      -2.188   1.063  -1.221  0.00  0.00    +0.084 C 
ATOM     12  C   UNK     1      -2.904   1.556   0.038  0.00  0.00    +0.023 C 
ATOM     13  C   UNK     1      -2.164   1.050   1.278  0.00  0.00    +0.002 C 
ENDBRANCH   1  11
BRANCH   5  14
ATOM     14  S   UNK     1      -3.289   1.232  -6.014  0.00  0.00    -0.149 S 
BRANCH  14  15
ATOM     15  C   UNK     1      -3.700  -0.497  -6.372  0.00  0.00    +0.065 C 
BRANCH  15  16
ATOM     16  C   UNK     1      -3.087  -0.900  -7.715  0.00  0.00    +0.050 C 
BRANCH  16  17
ATOM     17  N   UNK     1      -3.625  -0.038  -8.777  0.00  0.00    +0.388 N 
ATOM     18  H   UNK     1      -3.185  -0.327  -9.742  0.00  0.00    -0.089 HD
ATOM     19  H   UNK     1      -3.376   1.011  -8.559  0.00  0.00    -0.089 HD
ATOM     20  H   UNK     1      -4.718  -0.153  -8.824  0.00  0.00    -0.089 HD
ENDBRANCH  16  17
BRANCH  16  21
ATOM     21  C   UNK     1      -3.429  -2.337  -8.013  0.00  0.00    +0.343 C 
ATOM     22  O   UNK     1      -4.332  -2.599  -8.772  0.00  0.00    -0.248 OA
ATOM     23  O   UNK     1      -2.729  -3.326  -7.436  0.00  0.00    -0.248 OA
ENDBRANCH  16  21
ENDBRANCH  15  16
ENDBRANCH  14  15
ENDBRANCH   5  14
TORSDOF 6
