REMARK  Name = ZINC21924719
REMARK  11 active torsions:
REMARK  status: ('A' for Active; 'I' for Inactive)
REMARK    1  A    between atoms: C_1  and  C_2
REMARK    2  A    between atoms: C_6  and  O_9
REMARK    3  A    between atoms: C_7  and  C_8
REMARK    4  A    between atoms: O_9  and  C_10
REMARK    5  A    between atoms: C_10  and  C_12
REMARK    6  A    between atoms: C_10  and  C_13
REMARK    7  A    between atoms: N_15  and  N_16
REMARK    8  A    between atoms: C_17  and  C_19
REMARK    9  A    between atoms: C_19  and  C_21
REMARK   10  A    between atoms: C_19  and  N_22
REMARK   11  A    between atoms: C_23  and  C_25
REMARK                            x       y       z     vdW  Elec       q    Type
REMARK                         _______ _______ _______ _____ _____    ______ ____
ROOT
ATOM      1  C   UNL     1      -0.614   1.565  -1.409  0.00  0.00    +0.270 C 
ATOM      2  O   UNL     1      -0.043   2.418  -2.055  0.00  0.00    -0.270 OA
ATOM      3  N   UNL     1      -1.838   1.143  -1.782  0.00  0.00    -0.231 N 
ATOM      4  H   UNL     1      -2.356   0.369  -1.196  0.00  0.00    +0.173 HD
ENDROOT
BRANCH   3   5
ATOM      5  N   UNL     1      -2.452   1.691  -2.916  0.00  0.00    -0.233 N 
ATOM      6  C   UNL     1      -3.677   1.269  -3.289  0.00  0.00    +0.249 C 
ATOM      7  O   UNL     1      -4.247   0.416  -2.643  0.00  0.00    -0.272 OA
ATOM      8  H   UNL     1      -1.935   2.465  -3.502  0.00  0.00    +0.173 HD
BRANCH   6   9
ATOM      9  C   UNL     1      -4.337   1.858  -4.509  0.00  0.00    +0.158 C 
ATOM     10  C   UNL     1      -4.508   3.367  -4.319  0.00  0.00    +0.038 C 
BRANCH   9  11
ATOM     11  N   UNL     1      -5.651   1.238  -4.700  0.00  0.00    -0.298 N 
ATOM     12  C   UNL     1      -6.205   1.200  -5.928  0.00  0.00    +0.280 C 
ATOM     13  O   UNL     1      -5.615   1.681  -6.878  0.00  0.00    -0.267 OA
ATOM     14  H   UNL     1      -6.184   0.804  -3.842  0.00  0.00    +0.150 HD
BRANCH  12  15
ATOM     15  C   UNL     1      -7.520   0.580  -6.120  0.00  0.00    +0.189 A 
ATOM     16  C   UNL     1      -8.193   0.474  -7.303  0.00  0.00    +0.054 A 
ATOM     17  C   UNL     1      -9.400  -0.185  -7.024  0.00  0.00    +0.042 A 
ATOM     18  C   UNL     1      -9.412  -0.449  -5.699  0.00  0.00    +0.196 A 
ATOM     19  O   UNL     1      -8.275   0.009  -5.159  0.00  0.00    -0.458 OA
ENDBRANCH  12  15
ENDBRANCH   9  11
ENDBRANCH   6   9
ENDBRANCH   3   5
BRANCH   1  20
ATOM     20  C   UNL     1       0.047   0.976  -0.189  0.00  0.00    +0.257 C 
ATOM     21  C   UNL     1      -0.826   1.239   1.040  0.00  0.00    +0.062 C 
BRANCH  20  22
ATOM     22  O   UNL     1       1.328   1.580  -0.002  0.00  0.00    -0.480 OA
BRANCH  22  28
ATOM     23  C   UNL     1       5.904   1.122   1.633  0.00  0.00    +0.044 C 
ATOM     24  C   UNL     1       4.495   0.603   1.498  0.00  0.00    -0.044 A 
ATOM     25  C   UNL     1       4.147  -0.608   2.067  0.00  0.00    +0.004 A 
ATOM     26  C   UNL     1       2.856  -1.087   1.944  0.00  0.00    +0.004 A 
ATOM     27  C   UNL     1       1.909  -0.352   1.257  0.00  0.00    +0.046 A 
ATOM     28  C   UNL     1       2.257   0.860   0.680  0.00  0.00    +0.125 A 
ATOM     29  C   UNL     1       3.553   1.338   0.804  0.00  0.00    -0.006 A 
ATOM     30  C   UNL     1       3.933   2.657   0.183  0.00  0.00    +0.048 C 
ENDBRANCH  22  28
ENDBRANCH  20  22
ENDBRANCH   1  20
TORSDOF 7
