REMARK  Name = ZINC39357234
REMARK  3 active torsions:
REMARK  status: ('A' for Active; 'I' for Inactive)
REMARK    1  A    between atoms: C_6  and  C_10
REMARK    2  A    between atoms: C_10  and  C_19
REMARK    3  A    between atoms: C_11  and  C_12
REMARK                            x       y       z     vdW  Elec       q    Type
REMARK                         _______ _______ _______ _____ _____    ______ ____
ROOT
ATOM      1  C   UNL     1       0.155   1.455   0.119  0.00  0.00    +0.002 A 
ATOM      2  C   UNL     1       1.286   2.221  -0.214  0.00  0.00    +0.002 A 
ATOM      3  C   UNL     1       2.506   1.677  -0.393  0.00  0.00    +0.027 A 
ATOM      4  C   UNL     1       2.682   0.227  -0.238  0.00  0.00    +0.060 A 
ATOM      5  N   UNL     1       3.717  -0.556  -0.347  0.00  0.00    -0.359 N 
ATOM      6  C   UNL     1       3.264  -1.926  -0.073  0.00  0.00    +0.216 C 
ATOM      7  N   UNL     1       1.826  -1.837   0.211  0.00  0.00    -0.359 N 
ATOM      8  C   UNL     1       1.485  -0.585   0.116  0.00  0.00    +0.060 A 
ATOM      9  C   UNL     1       0.206   0.118   0.286  0.00  0.00    +0.027 A 
ATOM     10  H   UNL     1       4.621  -0.284  -0.569  0.00  0.00    +0.162 HD
ATOM     11  H   UNL     1       1.238  -2.577   0.429  0.00  0.00    +0.162 HD
ENDROOT
BRANCH   6  12
ATOM     12  C   UNL     1       3.501  -2.799  -1.278  0.00  0.00    +0.072 C 
ATOM     13  C   UNL     1       4.301  -3.880  -1.180  0.00  0.00    +0.026 C 
BRANCH  13  14
ATOM     14  C   UNL     1       4.662  -4.641  -2.388  0.00  0.00    -0.024 A 
ATOM     15  C   UNL     1       4.768  -6.034  -2.335  0.00  0.00    +0.009 A 
ATOM     16  C   UNL     1       5.106  -6.739  -3.471  0.00  0.00    +0.015 A 
ATOM     17  C   UNL     1       5.340  -6.071  -4.661  0.00  0.00    +0.013 A 
ATOM     18  C   UNL     1       5.237  -4.692  -4.721  0.00  0.00    +0.015 A 
ATOM     19  C   UNL     1       4.894  -3.974  -3.595  0.00  0.00    +0.009 A 
ATOM     20  I   UNL     1       5.853  -7.154  -6.380  0.00  0.00    -0.044 I 
ENDBRANCH  13  14
BRANCH  12  21
ATOM     21  C   UNL     1       2.876  -2.482  -2.526  0.00  0.00    +0.099 C 
ATOM     22  N   UNL     1       2.380  -2.230  -3.517  0.00  0.00    -0.191 NA
ENDBRANCH  12  21
ENDBRANCH   6  12
TORSDOF 3
