REMARK  Name = ZINC67129632
REMARK  6 active torsions:
REMARK  status: ('A' for Active; 'I' for Inactive)
REMARK    1  A    between atoms: C_6  and  N_7
REMARK    2  A    between atoms: C_8  and  C_10
REMARK    3  A    between atoms: C_10  and  N_11
REMARK    4  A    between atoms: C_12  and  C_14
REMARK    5  A    between atoms: C_14  and  N_15
REMARK    6  A    between atoms: C_20  and  C_22
REMARK                            x       y       z     vdW  Elec       q    Type
REMARK                         _______ _______ _______ _____ _____    ______ ____
ROOT
ATOM      1  N   UNL     1      -1.302  -4.728  -0.975  0.00  0.00    -0.308 N 
ATOM      2  C   UNL     1      -2.478  -5.386  -0.935  0.00  0.00    +0.197 C 
ATOM      3  O   UNL     1      -3.520  -4.769  -1.000  0.00  0.00    -0.278 OA
ATOM      4  H   UNL     1      -0.468  -5.221  -0.923  0.00  0.00    +0.149 HD
ENDROOT
BRANCH   1   5
ATOM      5  C   UNL     1      -1.283  -3.268  -1.097  0.00  0.00    +0.200 C 
BRANCH   5   7
ATOM      6  N   UNL     1       0.408  -1.467  -1.227  0.00  0.00    -0.284 N 
ATOM      7  C   UNL     1       0.144  -2.785  -1.120  0.00  0.00    +0.234 C 
ATOM      8  O   UNL     1       1.056  -3.581  -1.041  0.00  0.00    -0.274 OA
ATOM      9  H   UNL     1      -0.319  -0.825  -1.213  0.00  0.00    +0.155 HD
BRANCH   6  15
ATOM     10  C   UNL     1       2.658  -1.804  -2.037  0.00  0.00    +0.026 A 
ATOM     11  C   UNL     1       3.963  -1.368  -2.166  0.00  0.00    +0.043 A 
ATOM     12  C   UNL     1       4.346  -0.156  -1.618  0.00  0.00    +0.159 A 
ATOM     13  C   UNL     1       3.421   0.623  -0.939  0.00  0.00    +0.160 A 
ATOM     14  C   UNL     1       2.115   0.190  -0.809  0.00  0.00    +0.064 A 
ATOM     15  C   UNL     1       1.730  -1.026  -1.358  0.00  0.00    +0.036 A 
ATOM     16  F   UNL     1       3.797   1.806  -0.405  0.00  0.00    -0.202 F 
ATOM     17  F   UNL     1       5.623   0.268  -1.745  0.00  0.00    -0.202 F 
ENDBRANCH   6  15
ENDBRANCH   5   7
ENDBRANCH   1   5
BRANCH   2  18
ATOM     18  C   UNL     1      -2.497  -6.887  -0.809  0.00  0.00    +0.020 C 
BRANCH  18  19
ATOM     19  N   UNL     1      -3.888  -7.359  -0.787  0.00  0.00    +0.393 N 
ATOM     20  C   UNL     1      -4.510  -7.104  -2.092  0.00  0.00    -0.077 C 
ATOM     21  C   UNL     1      -5.982  -7.519  -2.050  0.00  0.00    -0.019 C 
ATOM     22  C   UNL     1      -6.077  -9.012  -1.720  0.00  0.00    -0.003 C 
ATOM     23  C   UNL     1      -5.361  -9.277  -0.393  0.00  0.00    -0.006 C 
ATOM     24  C   UNL     1      -3.912  -8.797  -0.497  0.00  0.00    +0.020 C 
ATOM     25  H   UNL     1      -4.399  -6.864  -0.072  0.00  0.00    -0.080 HD
BRANCH  24  26
ATOM     26  C   UNL     1      -3.202  -9.057   0.807  0.00  0.00    +0.197 C 
ATOM     27  O   UNL     1      -3.184  -8.203   1.669  0.00  0.00    -0.278 OA
ATOM     28  N   UNL     1      -2.588 -10.238   1.017  0.00  0.00    -0.331 N 
ATOM     29  H   UNL     1      -2.602 -10.921   0.328  0.00  0.00    +0.145 HD
ATOM     30  H   UNL     1      -2.131 -10.405   1.856  0.00  0.00    +0.145 HD
ENDBRANCH  24  26
ENDBRANCH  18  19
ENDBRANCH   2  18
TORSDOF 6
