REMARK  Name = ZINC28251777
REMARK  3 active torsions:
REMARK  status: ('A' for Active; 'I' for Inactive)
REMARK    1  A    between atoms: C_3  and  C_7
REMARK    2  A    between atoms: C_7  and  N_8
REMARK    3  A    between atoms: C_12  and  C_14
REMARK                            x       y       z     vdW  Elec       q    Type
REMARK                         _______ _______ _______ _____ _____    ______ ____
ROOT
ATOM      1  N   UNL     1      -2.015   3.472   3.052  0.00  0.00    -0.297 N 
ATOM      2  C   UNL     1      -2.856   3.780   4.060  0.00  0.00    +0.306 C 
ATOM      3  O   UNL     1      -4.057   3.714   3.890  0.00  0.00    -0.252 OA
ATOM      4  N   UNL     1      -2.364   4.159   5.256  0.00  0.00    -0.237 N 
ATOM      5  C   UNL     1      -3.204   4.466   6.264  0.00  0.00    +0.272 C 
ATOM      6  O   UNL     1      -4.403   4.401   6.095  0.00  0.00    -0.271 OA
ATOM      7  H   UNL     1      -0.928   3.531   3.205  0.00  0.00    +0.150 HD
ATOM      8  H   UNL     1      -1.276   4.219   5.409  0.00  0.00    +0.159 HD
ENDROOT
BRANCH   5   9
ATOM      9  C   UNL     1      -2.654   4.891   7.601  0.00  0.00    +0.267 C 
ATOM     10 CL   UNL     1      -4.017   5.231   8.731  0.00  0.00    -0.074 Cl
ATOM     11 CL   UNL     1      -1.629   3.570   8.276  0.00  0.00    -0.074 Cl
ATOM     12 CL   UNL     1      -1.658   6.380   7.395  0.00  0.00    -0.074 Cl
ENDBRANCH   5   9
BRANCH   1  13
ATOM     13  C   UNL     1      -2.550   3.059   1.752  0.00  0.00    +0.137 C 
BRANCH  13  16
ATOM     14  C   UNL     1      -0.778   1.606  -1.224  0.00  0.00    +0.031 C 
ATOM     15  C   UNL     1      -1.928   2.453  -0.626  0.00  0.00    +0.035 C 
ATOM     16  C   UNL     1      -1.394   2.771   0.793  0.00  0.00    +0.135 C 
ATOM     17  O   UNL     1      -0.705   1.559   1.176  0.00  0.00    -0.375 OA
ATOM     18  C   UNL     1      -0.013   1.086   0.008  0.00  0.00    +0.160 C 
ENDBRANCH  13  16
ENDBRANCH   1  13
TORSDOF 3
