REMARK  Name = ZINC01155336
REMARK  8 active torsions:
REMARK  status: ('A' for Active; 'I' for Inactive)
REMARK    1  A    between atoms: C_1  and  C_2
REMARK    2  A    between atoms: C_5  and  O_9
REMARK    3  A    between atoms: O_9  and  C_10
REMARK    4  A    between atoms: C_10  and  C_11
REMARK    5  A    between atoms: N_13  and  C_14
REMARK    6  A    between atoms: C_15  and  C_21
REMARK    7  A    between atoms: C_16  and  C_20
REMARK    8  A    between atoms: C_17  and  C_19
REMARK                            x       y       z     vdW  Elec       q    Type
REMARK                         _______ _______ _______ _____ _____    ______ ____
ROOT
ATOM      1  C   UNL     1      -1.156  -0.694   0.009  0.00  0.00    +0.255 C 
ATOM      2  O   UNL     1      -2.214  -0.102   0.023  0.00  0.00    -0.272 OA
ATOM      3  N   UNL     1       0.002  -0.004   0.002  0.00  0.00    -0.277 N 
ATOM      4  H   UNL     1       0.849  -0.478  -0.009  0.00  0.00    +0.155 HD
ENDROOT
BRANCH   3   5
ATOM      5  C   UNL     1      -0.017   1.382   0.010  0.00  0.00    +0.084 A 
ATOM      6  C   UNL     1       1.061   2.260   0.004  0.00  0.00    +0.068 A 
ATOM      7  C   UNL     1       0.749   3.670   0.015  0.00  0.00    -0.027 A 
ATOM      8  C   UNL     1      -0.552   4.012   0.029  0.00  0.00    -0.008 A 
ATOM      9  S   UNL     1      -1.388   2.439   0.021  0.00  0.00    -0.078 S 
ATOM     10  C   UNL     1      -1.156   5.392   0.041  0.00  0.00    +0.052 C 
ATOM     11  C   UNL     1       1.836   4.714   0.010  0.00  0.00    +0.045 C 
BRANCH   6  12
ATOM     12  C   UNL     1       2.445   1.779  -0.011  0.00  0.00    +0.244 C 
ATOM     13  O   UNL     1       3.010   1.585  -1.072  0.00  0.00    -0.270 OA
ATOM     14  N   UNL     1       3.092   1.551   1.149  0.00  0.00    -0.325 N 
ATOM     15  H   UNL     1       2.642   1.706   1.994  0.00  0.00    +0.145 HD
ATOM     16  H   UNL     1       4.009   1.232   1.139  0.00  0.00    +0.145 HD
ENDBRANCH   6  12
ENDBRANCH   3   5
BRANCH   1  17
ATOM     17  C   UNL     1      -1.135  -2.201   0.001  0.00  0.00    +0.325 C 
BRANCH  17  18
ATOM     18  O   UNL     1      -2.476  -2.695   0.011  0.00  0.00    -0.482 OA
BRANCH  18  23
ATOM     19  C   UNL     1      -3.137  -8.289  -0.010  0.00  0.00    +0.044 C 
ATOM     20  C   UNL     1      -2.961  -6.793  -0.005  0.00  0.00    -0.049 A 
ATOM     21  C   UNL     1      -1.690  -6.248  -0.015  0.00  0.00    +0.007 A 
ATOM     22  C   UNL     1      -1.525  -4.876  -0.010  0.00  0.00    +0.047 A 
ATOM     23  C   UNL     1      -2.636  -4.045   0.005  0.00  0.00    +0.135 A 
ATOM     24  C   UNL     1      -3.910  -4.594   0.021  0.00  0.00    +0.060 A 
ATOM     25  C   UNL     1      -4.070  -5.967   0.011  0.00  0.00    +0.022 A 
ATOM     26 BR   UNL     1      -5.427  -3.465   0.048  0.00  0.00    -0.047 Br
ENDBRANCH  18  23
ENDBRANCH  17  18
ENDBRANCH   1  17
TORSDOF 5
