REMARK  Name = ZINC18038730
REMARK  5 active torsions:
REMARK  status: ('A' for Active; 'I' for Inactive)
REMARK    1  A    between atoms: C_1  and  C_2
REMARK    2  A    between atoms: N_10  and  N_14
REMARK    3  A    between atoms: C_15  and  C_17
REMARK    4  A    between atoms: C_17  and  C_18
REMARK    5  A    between atoms: C_18  and  N_19
REMARK                            x       y       z     vdW  Elec       q    Type
REMARK                         _______ _______ _______ _____ _____    ______ ____
ROOT
ATOM      1  N   UNL     1      -1.146  -0.807   0.009  0.00  0.00    -0.224 N 
ATOM      2  C   UNL     1      -1.536  -1.435  -1.118  0.00  0.00    +0.231 C 
ATOM      3  O   UNL     1      -0.893  -1.305  -2.138  0.00  0.00    -0.274 OA
ATOM      4  H   UNL     1      -1.660  -0.911   0.825  0.00  0.00    +0.174 HD
ENDROOT
BRANCH   1  14
ATOM      5  C   UNL     1       5.008   4.205  -0.023  0.00  0.00    +0.007 C 
ATOM      6  C   UNL     1       3.533   3.799  -0.011  0.00  0.00    -0.014 C 
ATOM      7  C   UNL     1       3.220   2.976  -1.262  0.00  0.00    +0.006 C 
ATOM      8  C   UNL     1       1.741   2.581  -1.255  0.00  0.00    +0.035 C 
ATOM      9  C   UNL     1       1.435   1.768  -0.002  0.00  0.00    +0.114 C 
ATOM     10  C   UNL     1       1.765   2.567   1.254  0.00  0.00    +0.035 C 
ATOM     11  C   UNL     1       3.244   2.962   1.237  0.00  0.00    +0.006 C 
ATOM     12  C   UNL     1      -0.016   1.345   0.009  0.00  0.00    +0.263 C 
ATOM     13  O   UNL     1      -0.991   2.066   0.018  0.00  0.00    -0.271 OA
ATOM     14  N   UNL     1       0.002  -0.004   0.002  0.00  0.00    -0.137 N 
ATOM     15  C   UNL     1       1.253  -0.480  -0.013  0.00  0.00    +0.326 C 
ATOM     16  O   UNL     1       1.526  -1.665  -0.021  0.00  0.00    -0.251 OA
ATOM     17  N   UNL     1       2.176   0.501  -0.016  0.00  0.00    -0.284 N 
ATOM     18  H   UNL     1       3.140   0.392  -0.026  0.00  0.00    +0.151 HD
ENDBRANCH   1  14
BRANCH   2  19
ATOM     19  C   UNL     1      -2.771  -2.299  -1.110  0.00  0.00    +0.117 C 
BRANCH  19  20
ATOM     20  C   UNL     1      -2.989  -2.889  -2.505  0.00  0.00    +0.127 C 
BRANCH  20  21
ATOM     21  N   UNL     1      -4.189  -3.729  -2.497  0.00  0.00    -0.224 N 
ATOM     22  C   UNL     1      -5.431  -3.279  -2.771  0.00  0.00    +0.247 C 
ATOM     23  O   UNL     1      -5.754  -2.147  -3.060  0.00  0.00    -0.273 OA
ATOM     24  C   UNL     1      -6.335  -4.484  -2.643  0.00  0.00    +0.113 C 
ATOM     25  C   UNL     1      -7.018  -4.779  -3.974  0.00  0.00    +0.035 C 
ATOM     26  C   UNL     1      -7.906  -6.018  -3.831  0.00  0.00    +0.003 C 
ATOM     27  C   UNL     1      -8.954  -5.771  -2.744  0.00  0.00    +0.000 C 
ATOM     28  C   UNL     1      -8.253  -5.501  -1.411  0.00  0.00    +0.003 C 
ATOM     29  C   UNL     1      -7.367  -4.260  -1.544  0.00  0.00    +0.035 C 
ATOM     30  N   UNL     1      -5.423  -5.576  -2.279  0.00  0.00    -0.285 N 
ATOM     31  C   UNL     1      -4.189  -5.040  -2.223  0.00  0.00    +0.309 C 
ATOM     32  O   UNL     1      -3.188  -5.673  -1.951  0.00  0.00    -0.252 OA
ATOM     33  H   UNL     1      -5.662  -6.502  -2.116  0.00  0.00    +0.151 HD
ENDBRANCH  20  21
ENDBRANCH  19  20
ENDBRANCH   2  19
TORSDOF 4
