REMARK  Name = ZINC01434349
REMARK  4 active torsions:
REMARK  status: ('A' for Active; 'I' for Inactive)
REMARK    1  A    between atoms: C_3  and  O_18
REMARK    2  A    between atoms: C_4  and  N_8
REMARK    3  A    between atoms: C_9  and  C_10
REMARK    4  A    between atoms: C_15  and  O_16
REMARK                            x       y       z     vdW  Elec       q    Type
REMARK                         _______ _______ _______ _____ _____    ______ ____
ROOT
ATOM      1  N   UNL     1       3.599  -0.638  -0.037  0.00  0.00    -0.251 NA
ATOM      2  C   UNL     1       3.621  -1.939   0.054  0.00  0.00    +0.123 C 
ENDROOT
BRANCH   1   6
ATOM      3  C   UNL     1      -0.016   1.381   0.036  0.00  0.00    +0.024 A 
ATOM      4  C   UNL     1       0.919   1.685  -0.937  0.00  0.00    +0.049 A 
ATOM      5  C   UNL     1       2.130   1.015  -0.970  0.00  0.00    +0.142 A 
ATOM      6  C   UNL     1       2.405   0.029  -0.013  0.00  0.00    +0.107 A 
ATOM      7  C   UNL     1       1.455  -0.269   0.965  0.00  0.00    +0.051 A 
ATOM      8  C   UNL     1       0.251   0.408   0.983  0.00  0.00    +0.043 A 
ATOM      9 CL   UNL     1      -0.931   0.037   2.199  0.00  0.00    -0.083 Cl
BRANCH   5  10
ATOM     10  O   UNL     1       3.048   1.313  -1.926  0.00  0.00    -0.505 OA
ATOM     11  H   UNL     1       3.667   2.012  -1.673  0.00  0.00    +0.292 HD
ENDBRANCH   5  10
ENDBRANCH   1   6
BRANCH   2  12
ATOM     12  C   UNL     1       4.906  -2.648   0.148  0.00  0.00    +0.035 A 
ATOM     13  C   UNL     1       4.935  -4.043   0.240  0.00  0.00    +0.027 A 
ATOM     14  C   UNL     1       6.143  -4.701   0.328  0.00  0.00    +0.014 A 
ATOM     15  C   UNL     1       7.330  -3.986   0.325  0.00  0.00    +0.018 A 
ATOM     16  C   UNL     1       7.316  -2.607   0.234  0.00  0.00    +0.047 A 
ATOM     17  C   UNL     1       6.111  -1.929   0.139  0.00  0.00    +0.125 A 
ATOM     18  I   UNL     1       6.185  -6.791   0.466  0.00  0.00    -0.044 I 
BRANCH  17  19
ATOM     19  O   UNL     1       6.097  -0.575   0.045  0.00  0.00    -0.506 OA
ATOM     20  H   UNL     1       6.062  -0.121   0.898  0.00  0.00    +0.292 HD
ENDBRANCH  17  19
ENDBRANCH   2  12
TORSDOF 4
