REMARK  Name = ZINC31354764
REMARK  6 active torsions:
REMARK  status: ('A' for Active; 'I' for Inactive)
REMARK    1  A    between atoms: C_3  and  C_6
REMARK    2  A    between atoms: C_9  and  C_12
REMARK    3  A    between atoms: C_17  and  C_19
REMARK    4  A    between atoms: C_19  and  S_20
REMARK    5  A    between atoms: S_20  and  C_21
REMARK    6  A    between atoms: C_25  and  N_27
REMARK                            x       y       z     vdW  Elec       q    Type
REMARK                         _______ _______ _______ _____ _____    ______ ____
ROOT
ATOM      1  C   UNL     1       3.563   0.617  -0.029  0.00  0.00    +0.104 C 
ATOM      2  N   UNL     1       4.334   1.653  -0.026  0.00  0.00    -0.178 NA
ATOM      3  N   UNL     1       5.694   1.350  -0.043  0.00  0.00    -0.184 N 
ATOM      4  C   UNL     1       5.855  -0.113  -0.059  0.00  0.00    +0.144 C 
ATOM      5  C   UNL     1       4.406  -0.638  -0.044  0.00  0.00    +0.090 C 
ATOM      6  C   UNL     1       6.698   2.249  -0.043  0.00  0.00    +0.246 C 
ATOM      7  O   UNL     1       7.850   1.871  -0.059  0.00  0.00    -0.273 OA
ENDROOT
BRANCH   1  10
ATOM      8  C   UNL     1      -0.016   1.345   0.009  0.00  0.00    +0.042 A 
ATOM      9  C   UNL     1       1.323   1.776  -0.001  0.00  0.00    +0.051 A 
ATOM     10  C   UNL     1       2.098   0.653  -0.015  0.00  0.00    +0.150 A 
ATOM     11  O   UNL     1       1.279  -0.418  -0.012  0.00  0.00    -0.462 OA
ATOM     12  C   UNL     1       0.002  -0.004   0.002  0.00  0.00    +0.196 A 
ENDBRANCH   1  10
BRANCH   4  13
ATOM     13  C   UNL     1       6.598  -0.578   1.167  0.00  0.00    +0.013 A 
ATOM     14  C   UNL     1       7.535  -1.550   1.279  0.00  0.00    +0.013 A 
ATOM     15  C   UNL     1       8.089  -1.808   2.519  0.00  0.00    +0.008 A 
ATOM     16  C   UNL     1       7.678  -1.081   3.587  0.00  0.00    +0.045 A 
ATOM     17  S   UNL     1       6.477   0.014   2.847  0.00  0.00    -0.100 S 
ENDBRANCH   4  13
BRANCH   6  18
ATOM     18  C   UNL     1       6.388   3.724  -0.025  0.00  0.00    +0.175 C 
BRANCH  18  19
ATOM     19  S   UNL     1       7.938   4.666  -0.031  0.00  0.00    -0.077 S 
BRANCH  19  20
ATOM     20  C   UNL     1       7.414   6.348  -0.009  0.00  0.00    +0.192 A 
ATOM     21  N   UNL     1       6.117   6.620   0.012  0.00  0.00    -0.207 NA
ATOM     22  C   UNL     1       5.684   7.878   0.030  0.00  0.00    +0.122 A 
ATOM     23  C   UNL     1       6.614   8.914   0.026  0.00  0.00    +0.086 A 
ATOM     24  C   UNL     1       7.967   8.590   0.003  0.00  0.00    +0.122 A 
ATOM     25  N   UNL     1       8.327   7.309  -0.009  0.00  0.00    -0.207 NA
ATOM     26  N   UNL     1       4.326   8.154   0.051  0.00  0.00    -0.343 N 
ATOM     27  H   UNL     1       3.684   7.427   0.054  0.00  0.00    +0.144 HD
ATOM     28  H   UNL     1       4.018   9.073   0.064  0.00  0.00    +0.144 HD
BRANCH  24  29
ATOM     29  N   UNL     1       8.929   9.589  -0.002  0.00  0.00    -0.343 N 
ATOM     30  H   UNL     1       8.660  10.521   0.010  0.00  0.00    +0.144 HD
ATOM     31  H   UNL     1       9.870   9.356  -0.018  0.00  0.00    +0.144 HD
ENDBRANCH  24  29
ENDBRANCH  19  20
ENDBRANCH  18  19
ENDBRANCH   6  18
TORSDOF 6
