REMARK  Name = ZINC37334621
REMARK  4 active torsions:
REMARK  status: ('A' for Active; 'I' for Inactive)
REMARK    1  A    between atoms: C_3  and  N_14
REMARK    2  A    between atoms: C_4  and  C_11
REMARK    3  A    between atoms: C_6  and  C_7
REMARK    4  A    between atoms: C_17  and  O_20
REMARK                            x       y       z     vdW  Elec       q    Type
REMARK                         _______ _______ _______ _____ _____    ______ ____
ROOT
ATOM      1  C   UNL     1      -0.008   1.351  -0.252  0.00  0.00    +0.014 A 
ATOM      2  C   UNL     1       1.158   2.076  -0.107  0.00  0.00    +0.024 A 
ATOM      3  C   UNL     1       2.359   1.420   0.129  0.00  0.00    +0.040 A 
ATOM      4  C   UNL     1       2.381   0.020   0.219  0.00  0.00    +0.034 A 
ATOM      5  C   UNL     1       1.193  -0.699   0.070  0.00  0.00    +0.025 A 
ATOM      6  C   UNL     1       0.010  -0.031  -0.163  0.00  0.00    +0.056 A 
ENDROOT
BRANCH   4   7
ATOM      7  C   UNL     1       3.651  -0.688   0.469  0.00  0.00    +0.096 C 
ATOM      8  N   UNL     1       3.764  -1.506   1.516  0.00  0.00    -0.387 N 
ATOM      9  N   UNL     1       4.686  -0.511  -0.352  0.00  0.00    -0.345 N 
ATOM     10  H   UNL     1       2.992  -1.685   2.076  0.00  0.00    +0.157 HD
ATOM     11  H   UNL     1       4.604   0.084  -1.114  0.00  0.00    +0.144 HD
ATOM     12  H   UNL     1       5.521  -0.977  -0.188  0.00  0.00    +0.144 HD
ATOM     13  H   UNL     1       4.617  -1.921   1.718  0.00  0.00    +0.157 HD
ENDBRANCH   4   7
BRANCH   3  14
ATOM     14  N   UNL     1       3.534   2.147   0.274  0.00  0.00    -0.329 N 
ATOM     15  C   UNL     1       4.040   2.493   1.609  0.00  0.00    +0.107 C 
ATOM     16  C   UNL     1       4.269   4.006   1.674  0.00  0.00    +0.050 C 
ATOM     17  C   UNL     1       5.188   4.429   0.525  0.00  0.00    +0.118 C 
ATOM     18  C   UNL     1       4.521   4.097  -0.812  0.00  0.00    +0.050 C 
ATOM     19  C   UNL     1       4.298   2.580  -0.904  0.00  0.00    +0.107 C 
BRANCH  17  20
ATOM     20  O   UNL     1       5.429   5.835   0.601  0.00  0.00    -0.392 OA
ATOM     21  H   UNL     1       6.005   6.173  -0.099  0.00  0.00    +0.210 HD
ENDBRANCH  17  20
ENDBRANCH   3  14
BRANCH   6  22
ATOM     22  C   UNL     1      -1.271  -0.809  -0.323  0.00  0.00    +0.417 C 
ATOM     23  F   UNL     1      -2.329   0.076  -0.549  0.00  0.00    -0.166 F 
ATOM     24  F   UNL     1      -1.153  -1.683  -1.409  0.00  0.00    -0.166 F 
ATOM     25  F   UNL     1      -1.518  -1.544   0.842  0.00  0.00    -0.166 F 
ENDBRANCH   6  22
TORSDOF 4
