REMARK  Name = ZINC13747716
REMARK  10 active torsions:
REMARK  status: ('A' for Active; 'I' for Inactive)
REMARK    1  A    between atoms: C_1  and  C_2
REMARK    2  A    between atoms: C_2  and  C_3
REMARK    3  A    between atoms: C_2  and  O_4
REMARK    4  A    between atoms: O_4  and  C_5
REMARK    5  A    between atoms: C_6  and  O_18
REMARK    6  A    between atoms: C_8  and  C_12
REMARK    7  A    between atoms: N_13  and  N_14
REMARK    8  A    between atoms: N_14  and  C_15
REMARK    9  A    between atoms: C_15  and  N_17
REMARK   10  A    between atoms: O_18  and  C_19
REMARK                            x       y       z     vdW  Elec       q    Type
REMARK                         _______ _______ _______ _____ _____    ______ ____
ROOT
ATOM      1  C   UNL     1       0.209  -1.604  -1.738  0.00  0.00    +0.175 A 
ATOM      2  C   UNL     1      -0.704  -1.535  -2.788  0.00  0.00    +0.163 A 
ATOM      3  C   UNL     1      -1.175  -2.696  -3.372  0.00  0.00    +0.059 A 
ATOM      4  C   UNL     1      -0.734  -3.937  -2.906  0.00  0.00    -0.001 A 
ATOM      5  C   UNL     1       0.181  -3.999  -1.853  0.00  0.00    +0.027 A 
ATOM      6  C   UNL     1       0.651  -2.836  -1.278  0.00  0.00    +0.059 A 
ATOM      7  I   UNL     1       2.031  -2.931   0.296  0.00  0.00    -0.040 I 
ENDROOT
BRANCH   4   8
ATOM      8  C   UNL     1      -1.232  -5.179  -3.526  0.00  0.00    +0.138 C 
ATOM      9  N   UNL     1      -0.821  -6.331  -3.092  0.00  0.00    -0.188 NA
BRANCH   9  10
ATOM     10  N   UNL     1      -1.295  -7.511  -3.681  0.00  0.00    -0.219 N 
ATOM     11  H   UNL     1      -1.930  -7.466  -4.413  0.00  0.00    +0.176 HD
BRANCH  10  12
ATOM     12  C   UNL     1      -0.869  -8.707  -3.231  0.00  0.00    +0.147 C 
ATOM     13  S   UNL     1      -1.448 -10.149  -3.950  0.00  0.00    -0.017 S 
BRANCH  12  14
ATOM     14  N   UNL     1       0.014  -8.769  -2.214  0.00  0.00    -0.339 N 
ATOM     15  H   UNL     1       0.342  -7.952  -1.806  0.00  0.00    +0.144 HD
ATOM     16  H   UNL     1       0.321  -9.630  -1.890  0.00  0.00    +0.144 HD
ENDBRANCH  12  14
ENDBRANCH  10  12
ENDBRANCH   9  10
ENDBRANCH   4   8
BRANCH   2  17
ATOM     17  O   UNL     1      -1.131  -0.325  -3.239  0.00  0.00    -0.491 OA
ATOM     18  C   UNL     1      -2.067  -0.329  -4.319  0.00  0.00    +0.277 C 
ENDBRANCH   2  17
BRANCH   1  19
ATOM     19  O   UNL     1       0.671  -0.461  -1.165  0.00  0.00    -0.485 OA
BRANCH  19  21
ATOM     20  C   UNL     1      -1.210   0.833  -0.373  0.00  0.00    +0.051 C 
ATOM     21  C   UNL     1       0.005  -0.011   0.017  0.00  0.00    +0.168 C 
ATOM     22  C   UNL     1       0.967   0.834   0.854  0.00  0.00    +0.051 C 
ENDBRANCH  19  21
ENDBRANCH   1  19
TORSDOF 7
