REMARK  Name = ZINC06817670
REMARK  4 active torsions:
REMARK  status: ('A' for Active; 'I' for Inactive)
REMARK    1  A    between atoms: C_1  and  N_2
REMARK    2  A    between atoms: C_5  and  C_7
REMARK    3  A    between atoms: N_9  and  C_10
REMARK    4  A    between atoms: C_15  and  C_16
REMARK                            x       y       z     vdW  Elec       q    Type
REMARK                         _______ _______ _______ _____ _____    ______ ____
ROOT
ATOM      1  C   UNL     1       1.660  -1.865  -0.005  0.00  0.00    +0.269 C 
ATOM      2  O   UNL     1       2.844  -2.139  -0.033  0.00  0.00    -0.268 OA
ATOM      3  N   UNL     1       0.740  -2.850  -0.004  0.00  0.00    -0.280 N 
ATOM      4  H   UNL     1      -0.202  -2.635   0.083  0.00  0.00    +0.155 HD
ENDROOT
BRANCH   1   9
ATOM      5  C   UNL     1      -1.251   2.097   0.112  0.00  0.00    +0.173 C 
ATOM      6  N   UNL     1      -0.038   1.276   0.081  0.00  0.00    -0.266 N 
ATOM      7  C   UNL     1       1.231   1.759   0.066  0.00  0.00    +0.074 A 
ATOM      8  C   UNL     1       2.065   0.674   0.029  0.00  0.00    +0.020 A 
ATOM      9  C   UNL     1       1.229  -0.453   0.026  0.00  0.00    +0.152 A 
ATOM     10  N   UNL     1      -0.017  -0.011   0.058  0.00  0.00    -0.166 NA
ATOM     11  C   UNL     1       3.566   0.741  -0.005  0.00  0.00    +0.114 C 
ATOM     12  S   UNL     1       4.064   2.226  -0.925  0.00  0.00    -0.120 S 
ATOM     13  C   UNL     1       2.982   3.484  -0.332  0.00  0.00    +0.017 A 
ATOM     14  C   UNL     1       1.682   3.164   0.086  0.00  0.00    +0.014 A 
ATOM     15  C   UNL     1       0.827   4.174   0.521  0.00  0.00    +0.011 A 
ATOM     16  C   UNL     1       1.266   5.482   0.548  0.00  0.00    +0.001 A 
ATOM     17  C   UNL     1       2.553   5.795   0.147  0.00  0.00    +0.001 A 
ATOM     18  C   UNL     1       3.410   4.804  -0.290  0.00  0.00    +0.015 A 
ENDBRANCH   1   9
BRANCH   3  19
ATOM     19  C   UNL     1       1.141  -4.178  -0.127  0.00  0.00    +0.046 A 
ATOM     20  C   UNL     1       2.331  -4.603   0.449  0.00  0.00    +0.024 A 
ATOM     21  C   UNL     1       2.725  -5.921   0.331  0.00  0.00    +0.002 A 
ATOM     22  C   UNL     1       1.944  -6.825  -0.371  0.00  0.00    +0.001 A 
ATOM     23  C   UNL     1       0.763  -6.420  -0.954  0.00  0.00    +0.015 A 
ATOM     24  C   UNL     1       0.349  -5.091  -0.838  0.00  0.00    +0.058 A 
BRANCH  24  25
ATOM     25  C   UNL     1      -0.914  -4.650  -1.460  0.00  0.00    +0.243 C 
ATOM     26  O   UNL     1      -1.222  -3.474  -1.443  0.00  0.00    -0.270 OA
ATOM     27  N   UNL     1      -1.726  -5.551  -2.048  0.00  0.00    -0.325 N 
ATOM     28  H   UNL     1      -1.480  -6.489  -2.062  0.00  0.00    +0.145 HD
ATOM     29  H   UNL     1      -2.556  -5.261  -2.457  0.00  0.00    +0.145 HD
ENDBRANCH  24  25
ENDBRANCH   3  19
TORSDOF 3
