REMARK  Name = ZINC39685213
REMARK  8 active torsions:
REMARK  status: ('A' for Active; 'I' for Inactive)
REMARK    1  A    between atoms: C_1  and  C_2
REMARK    2  A    between atoms: C_3  and  C_8
REMARK    3  A    between atoms: C_4  and  C_7
REMARK    4  A    between atoms: C_12  and  C_21
REMARK    5  A    between atoms: N_23  and  C_24
REMARK    6  A    between atoms: C_24  and  C_25
REMARK    7  A    between atoms: C_25  and  O_26
REMARK    8  A    between atoms: O_26  and  C_27
REMARK                            x       y       z     vdW  Elec       q    Type
REMARK                         _______ _______ _______ _____ _____    ______ ____
ROOT
ATOM      1  C   UNL     1       0.029  -0.415  -2.748  0.00  0.00    +0.252 C 
ATOM      2  O   UNL     1       1.059  -0.160  -3.342  0.00  0.00    -0.270 OA
ATOM      3  N   UNL     1      -1.162  -0.208  -3.345  0.00  0.00    -0.296 N 
ATOM      4  C   UNL     1      -2.512  -0.450  -2.785  0.00  0.00    +0.121 C 
ATOM      5  C   UNL     1      -3.361   0.741  -3.283  0.00  0.00    +0.100 C 
ATOM      6  C   UNL     1      -2.638   1.236  -4.547  0.00  0.00    -0.004 C 
ATOM      7  C   UNL     1      -1.416   0.319  -4.707  0.00  0.00    +0.115 C 
ATOM      8  C   UNL     1      -3.553   1.116  -5.761  0.00  0.00    -0.010 C 
ATOM      9  C   UNL     1      -2.833   1.668  -6.994  0.00  0.00    -0.082 C 
ATOM     10  N   UNL     1      -2.474   3.073  -6.765  0.00  0.00    +0.379 N 
ATOM     11  C   UNL     1      -1.520   3.171  -5.654  0.00  0.00    -0.082 C 
ATOM     12  C   UNL     1      -2.185   2.682  -4.364  0.00  0.00    -0.010 C 
ATOM     13  H   UNL     1      -2.054   3.452  -7.601  0.00  0.00    -0.086 HD
ATOM     14  H   UNL     1      -3.305   3.599  -6.541  0.00  0.00    -0.086 HD
ENDROOT
BRANCH   1  17
ATOM     15  C   UNL     1       0.046   1.328  -0.020  0.00  0.00    +0.070 C 
ATOM     16  C   UNL     1       0.091  -0.174  -0.136  0.00  0.00    +0.093 A 
ATOM     17  C   UNL     1       0.083  -0.951  -1.376  0.00  0.00    +0.101 A 
ATOM     18  C   UNL     1       0.135  -2.268  -1.018  0.00  0.00    +0.147 A 
ATOM     19  O   UNL     1       0.172  -2.333   0.315  0.00  0.00    -0.359 OA
ATOM     20  N   UNL     1       0.149  -1.023   0.848  0.00  0.00    -0.083 NA
ATOM     21  C   UNL     1       0.148  -3.442  -1.962  0.00  0.00    +0.090 C 
ENDBRANCH   1  17
BRANCH   5  22
ATOM     22  C   UNL     1      -4.757   0.286  -3.619  0.00  0.00    +0.218 C 
ATOM     23  O   UNL     1      -4.947  -0.842  -4.021  0.00  0.00    -0.275 OA
ATOM     24  N   UNL     1      -5.795   1.133  -3.473  0.00  0.00    -0.312 N 
ATOM     25  H   UNL     1      -5.643   2.036  -3.152  0.00  0.00    +0.149 HD
BRANCH  24  26
ATOM     26  C   UNL     1      -7.153   0.691  -3.800  0.00  0.00    +0.145 C 
BRANCH  26  27
ATOM     27  C   UNL     1      -8.137   1.836  -3.548  0.00  0.00    +0.248 C 
BRANCH  27  28
ATOM     28  O   UNL     1      -7.861   2.908  -4.451  0.00  0.00    -0.488 OA
BRANCH  28  29
ATOM     29  C   UNL     1      -8.651   4.011  -4.359  0.00  0.00    +0.156 A 
ATOM     30  C   UNL     1      -9.665   4.062  -3.415  0.00  0.00    +0.048 A 
ATOM     31  C   UNL     1     -10.467   5.184  -3.323  0.00  0.00    +0.004 A 
ATOM     32  C   UNL     1     -10.259   6.256  -4.171  0.00  0.00    +0.003 A 
ATOM     33  C   UNL     1      -9.248   6.210  -5.113  0.00  0.00    +0.042 A 
ATOM     34  C   UNL     1      -8.439   5.092  -5.205  0.00  0.00    +0.165 A 
ATOM     35  F   UNL     1      -7.447   5.048  -6.122  0.00  0.00    -0.202 F 
ENDBRANCH  28  29
ENDBRANCH  27  28
ENDBRANCH  26  27
ENDBRANCH  24  26
ENDBRANCH   5  22
TORSDOF 6
