REMARK  Name = ZINC59402943
REMARK  7 active torsions:
REMARK  status: ('A' for Active; 'I' for Inactive)
REMARK    1  A    between atoms: C_4  and  N_7
REMARK    2  A    between atoms: N_10  and  C_11
REMARK    3  A    between atoms: C_11  and  C_12
REMARK    4  A    between atoms: N_18  and  C_19
REMARK    5  A    between atoms: C_19  and  C_20
REMARK    6  A    between atoms: N_22  and  C_23
REMARK    7  A    between atoms: C_24  and  C_32
REMARK                            x       y       z     vdW  Elec       q    Type
REMARK                         _______ _______ _______ _____ _____    ______ ____
ROOT
ATOM      1  C   UNL     1       5.990  -5.069  -0.137  0.00  0.00    -0.050 C 
ATOM      2  C   UNL     1       5.827  -6.566   0.134  0.00  0.00    -0.014 C 
ATOM      3  C   UNL     1       7.165  -7.272  -0.107  0.00  0.00    -0.003 C 
ATOM      4  C   UNL     1       8.235  -6.634   0.784  0.00  0.00    -0.019 C 
ATOM      5  C   UNL     1       8.309  -5.134   0.488  0.00  0.00    -0.078 C 
ATOM      6  N   UNL     1       7.007  -4.514   0.763  0.00  0.00    +0.388 N 
ATOM      7  H   UNL     1       6.744  -4.696   1.720  0.00  0.00    -0.081 HD
ENDROOT
BRANCH   1   8
ATOM      8  C   UNL     1       4.655  -4.360   0.102  0.00  0.00    +0.090 C 
BRANCH   8  12
ATOM      9  N   UNL     1       2.788  -4.064   3.255  0.00  0.00    -0.269 N 
ATOM     10  C   UNL     1       3.115  -3.978   1.950  0.00  0.00    +0.304 C 
ATOM     11  O   UNL     1       2.339  -3.474   1.161  0.00  0.00    -0.253 OA
ATOM     12  N   UNL     1       4.301  -4.453   1.520  0.00  0.00    -0.301 N 
ATOM     13  H   UNL     1       3.435  -4.397   3.896  0.00  0.00    +0.156 HD
ATOM     14  H   UNL     1       4.919  -4.856   2.150  0.00  0.00    +0.150 HD
BRANCH   9  18
ATOM     15  C   UNL     1      -1.002  -2.898   4.535  0.00  0.00    +0.000 A 
ATOM     16  C   UNL     1      -0.840  -3.466   3.285  0.00  0.00    +0.002 A 
ATOM     17  C   UNL     1       0.415  -3.854   2.857  0.00  0.00    +0.023 A 
ATOM     18  C   UNL     1       1.515  -3.672   3.685  0.00  0.00    +0.035 A 
ATOM     19  C   UNL     1       1.350  -3.101   4.940  0.00  0.00    +0.023 A 
ATOM     20  C   UNL     1       0.092  -2.715   5.361  0.00  0.00    +0.002 A 
ENDBRANCH   9  18
ENDBRANCH   8  12
ENDBRANCH   1   8
BRANCH   6  21
ATOM     21  C   UNL     1       7.104  -3.063   0.554  0.00  0.00    +0.019 C 
BRANCH  21  22
ATOM     22  C   UNL     1       8.029  -2.467   1.584  0.00  0.00    +0.201 C 
ATOM     23  O   UNL     1       8.555  -3.181   2.412  0.00  0.00    -0.278 OA
ATOM     24  N   UNL     1       8.271  -1.142   1.586  0.00  0.00    -0.281 N 
ATOM     25  H   UNL     1       7.851  -0.571   0.924  0.00  0.00    +0.155 HD
BRANCH  24  26
ATOM     26  C   UNL     1       9.123  -0.593   2.535  0.00  0.00    +0.090 A 
ATOM     27  C   UNL     1       9.480   0.736   2.691  0.00  0.00    +0.084 A 
ATOM     28  C   UNL     1      10.396   1.055   3.772  0.00  0.00    -0.018 A 
ATOM     29  C   UNL     1      10.786  -0.015   4.500  0.00  0.00    -0.004 A 
ATOM     30  S   UNL     1       9.950  -1.387   3.762  0.00  0.00    -0.077 S 
ATOM     31  C   UNL     1      11.719  -0.014   5.671  0.00  0.00    +0.043 C 
ATOM     32  C   UNL     1      12.465   1.329   5.692  0.00  0.00    +0.005 C 
ATOM     33  C   UNL     1      11.450   2.462   5.521  0.00  0.00    +0.005 C 
ATOM     34  C   UNL     1      10.896   2.455   4.094  0.00  0.00    +0.037 C 
BRANCH  27  35
ATOM     35  C   UNL     1       8.969   1.753   1.822  0.00  0.00    +0.102 C 
ATOM     36  N   UNL     1       8.564   2.559   1.133  0.00  0.00    -0.191 NA
ENDBRANCH  27  35
ENDBRANCH  24  26
ENDBRANCH  21  22
ENDBRANCH   6  21
TORSDOF 7
