REMARK  Name = ZINC67446225
REMARK  9 active torsions:
REMARK  status: ('A' for Active; 'I' for Inactive)
REMARK    1  A    between atoms: C_1  and  C_2
REMARK    2  A    between atoms: C_2  and  C_4
REMARK    3  A    between atoms: C_2  and  N_13
REMARK    4  A    between atoms: C_7  and  O_11
REMARK    5  A    between atoms: O_11  and  C_12
REMARK    6  A    between atoms: N_13  and  C_14
REMARK    7  A    between atoms: C_14  and  C_16
REMARK    8  A    between atoms: C_14  and  C_17
REMARK    9  A    between atoms: N_22  and  C_23
REMARK                            x       y       z     vdW  Elec       q    Type
REMARK                         _______ _______ _______ _____ _____    ______ ____
ROOT
ATOM      1  N   UNL     1      -1.376  -0.512   0.012  0.00  0.00    -0.299 NA
ATOM      2  H   UNL     1      -1.426  -1.413   0.464  0.00  0.00    +0.123 HD
ENDROOT
BRANCH   1   4
ATOM      3  C   UNL     1      -0.019   1.526   0.010  0.00  0.00    +0.029 C 
ATOM      4  C   UNL     1       0.002  -0.004   0.002  0.00  0.00    +0.081 C 
BRANCH   4   5
ATOM      5  C   UNL     1       0.731  -0.503   1.223  0.00  0.00    -0.029 A 
ATOM      6  C   UNL     1       0.079  -0.558   2.441  0.00  0.00    +0.009 A 
ATOM      7  C   UNL     1       0.745  -1.015   3.562  0.00  0.00    +0.047 A 
ATOM      8  C   UNL     1       2.068  -1.419   3.465  0.00  0.00    +0.134 A 
ATOM      9  C   UNL     1       2.720  -1.364   2.241  0.00  0.00    +0.060 A 
ATOM     10  C   UNL     1       2.048  -0.911   1.122  0.00  0.00    +0.024 A 
ATOM     11 BR   UNL     1       4.524  -1.914   2.104  0.00  0.00    -0.047 Br
BRANCH   8  12
ATOM     12  O   UNL     1       2.726  -1.869   4.567  0.00  0.00    -0.494 OA
ATOM     13  C   UNL     1       1.992  -1.898   5.793  0.00  0.00    +0.277 C 
ENDBRANCH   8  12
ENDBRANCH   4   5
ENDBRANCH   1   4
BRANCH   1  14
ATOM     14  C   UNL     1      -1.924  -0.575  -1.349  0.00  0.00    +0.138 C 
ATOM     15  C   UNL     1      -1.512  -1.895  -2.005  0.00  0.00    +0.034 C 
BRANCH  14  16
ATOM     16  C   UNL     1      -3.428  -0.492  -1.289  0.00  0.00    +0.237 C 
ATOM     17  O   UNL     1      -3.987  -0.391  -0.218  0.00  0.00    -0.274 OA
ATOM     18  N   UNL     1      -4.151  -0.531  -2.426  0.00  0.00    -0.239 N 
ATOM     19  C   UNL     1      -5.495  -0.456  -2.373  0.00  0.00    +0.306 C 
ATOM     20  O   UNL     1      -6.056  -0.354  -1.300  0.00  0.00    -0.252 OA
ATOM     21  N   UNL     1      -6.218  -0.495  -3.510  0.00  0.00    -0.302 N 
ATOM     22  C   UNL     1      -7.679  -0.414  -3.452  0.00  0.00    +0.129 C 
ATOM     23  H   UNL     1      -3.703  -0.612  -3.283  0.00  0.00    +0.159 HD
ATOM     24  H   UNL     1      -5.770  -0.576  -4.367  0.00  0.00    +0.150 HD
ENDBRANCH  14  16
ENDBRANCH   1  14
TORSDOF 5
