REMARK  Name = ZINC54302907
REMARK  8 active torsions:
REMARK  status: ('A' for Active; 'I' for Inactive)
REMARK    1  A    between atoms: C_1  and  S_2
REMARK    2  A    between atoms: S_2  and  C_5
REMARK    3  A    between atoms: C_5  and  C_6
REMARK    4  A    between atoms: C_6  and  C_7
REMARK    5  A    between atoms: C_7  and  C_9
REMARK    6  A    between atoms: C_7  and  N_22
REMARK    7  A    between atoms: C_15  and  C_18
REMARK    8  A    between atoms: C_18  and  C_19
REMARK                            x       y       z     vdW  Elec       q    Type
REMARK                         _______ _______ _______ _____ _____    ______ ____
ROOT
ATOM      1  C   UNL     1       1.724  -3.713  -3.229  0.00  0.00    +0.201 C 
ATOM      2  O   UNL     1       2.705  -4.368  -2.950  0.00  0.00    -0.277 OA
ATOM      3  N   UNL     1       0.632  -4.318  -3.739  0.00  0.00    -0.303 N 
ATOM      4  C   UNL     1      -0.562  -3.537  -4.087  0.00  0.00    +0.108 C 
ATOM      5  C   UNL     1      -0.942  -3.837  -5.540  0.00  0.00    +0.019 C 
ATOM      6  C   UNL     1      -1.105  -5.348  -5.718  0.00  0.00    +0.007 C 
ATOM      7  C   UNL     1       0.222  -6.046  -5.411  0.00  0.00    +0.017 C 
ATOM      8  C   UNL     1       0.617  -5.770  -3.962  0.00  0.00    +0.111 C 
ENDROOT
BRANCH   1   9
ATOM      9  C   UNL     1       1.724  -2.223  -3.006  0.00  0.00    +0.014 C 
BRANCH   9  10
ATOM     10  N   UNL     1       3.109  -1.742  -2.914  0.00  0.00    +0.386 N 
ATOM     11  H   UNL     1       3.573  -2.197  -2.143  0.00  0.00    -0.089 HD
ATOM     12  H   UNL     1       3.596  -1.953  -3.772  0.00  0.00    -0.089 HD
ATOM     13  H   UNL     1       3.109  -0.744  -2.765  0.00  0.00    -0.089 HD
ENDBRANCH   9  10
BRANCH   9  14
ATOM     14  C   UNL     1       0.986  -1.902  -1.705  0.00  0.00    +0.015 C 
BRANCH  14  15
ATOM     15  C   UNL     1       0.877  -0.385  -1.541  0.00  0.00    +0.164 C 
BRANCH  15  17
ATOM     16  C   UNL     1      -0.022   1.810   0.012  0.00  0.00    +0.194 C 
ATOM     17  S   UNL     1       0.002  -0.004   0.002  0.00  0.00    -0.034 S 
ATOM     18  O   UNL     1       0.798  -0.449   1.092  0.00  0.00    -0.175 OA
ATOM     19  O   UNL     1      -1.335  -0.471  -0.113  0.00  0.00    -0.175 OA
ENDBRANCH  15  17
ENDBRANCH  14  15
ENDBRANCH   9  14
ENDBRANCH   1   9
BRANCH   7  20
ATOM     20  C   UNL     1       0.067  -7.554  -5.622  0.00  0.00    +0.130 C 
BRANCH  20  21
ATOM     21  C   UNL     1      -0.202  -7.832  -7.079  0.00  0.00    +0.356 C 
ATOM     22  O   UNL     1      -0.264  -6.910  -7.874  0.00  0.00    -0.246 OA
ATOM     23  O   UNL     1      -0.358  -8.979  -7.462  0.00  0.00    -0.246 OA
ENDBRANCH  20  21
ENDBRANCH   7  20
TORSDOF 7
