REMARK  Name = ZINC36612434
REMARK  2 active torsions:
REMARK  status: ('A' for Active; 'I' for Inactive)
REMARK    1  A    between atoms: C_8  and  C_15
REMARK    2  A    between atoms: C_12  and  O_14
REMARK                            x       y       z     vdW  Elec       q    Type
REMARK                         _______ _______ _______ _____ _____    ______ ____
ROOT
ATOM      1  C   UNL     1      -0.017   1.379   0.010  0.00  0.00    +0.002 A 
ATOM      2  C   UNL     1       1.170   2.089   0.002  0.00  0.00    +0.002 A 
ATOM      3  C   UNL     1       2.381   1.423  -0.009  0.00  0.00    +0.025 A 
ATOM      4  C   UNL     1       2.413   0.038  -0.014  0.00  0.00    +0.060 A 
ATOM      5  C   UNL     1       1.208  -0.681  -0.014  0.00  0.00    +0.051 A 
ATOM      6  C   UNL     1       0.002  -0.004   0.002  0.00  0.00    +0.025 A 
ATOM      7  N   UNL     1       1.513  -2.061  -0.044  0.00  0.00    -0.314 N 
ATOM      8  C   UNL     1       2.858  -2.084  -0.657  0.00  0.00    +0.157 C 
ATOM      9  N   UNL     1       3.465  -0.885  -0.012  0.00  0.00    -0.234 N 
ATOM     10  C   UNL     1       4.711  -1.240   0.312  0.00  0.00    +0.287 C 
ATOM     11  O   UNL     1       5.635  -0.475   0.510  0.00  0.00    -0.266 OA
ATOM     12  C   UNL     1       4.783  -2.712   0.392  0.00  0.00    +0.180 C 
ATOM     13  C   UNL     1       3.687  -3.238  -0.163  0.00  0.00    +0.074 C 
ATOM     14  H   UNL     1       0.974  -2.807   0.261  0.00  0.00    +0.149 HD
ENDROOT
BRANCH   8  15
ATOM     15  C   UNL     1       2.814  -2.005  -2.162  0.00  0.00    +0.018 A 
ATOM     16  C   UNL     1       3.508  -1.007  -2.822  0.00  0.00    +0.009 A 
ATOM     17  C   UNL     1       3.468  -0.934  -4.201  0.00  0.00    +0.002 A 
ATOM     18  C   UNL     1       2.734  -1.857  -4.923  0.00  0.00    +0.021 A 
ATOM     19  C   UNL     1       2.040  -2.855  -4.264  0.00  0.00    +0.060 A 
ATOM     20  C   UNL     1       2.085  -2.933  -2.882  0.00  0.00    +0.066 A 
ATOM     21 CL   UNL     1       1.220  -4.190  -2.054  0.00  0.00    -0.082 Cl
ATOM     22 CL   UNL     1       1.118  -4.015  -5.170  0.00  0.00    -0.082 Cl
ENDBRANCH   8  15
BRANCH  12  23
ATOM     23  O   UNL     1       5.805  -3.421   0.943  0.00  0.00    -0.502 OA
ATOM     24  H   UNL     1       6.518  -2.872   1.298  0.00  0.00    +0.292 HD
ENDBRANCH  12  23
TORSDOF 2
