REMARK  Name = ZINC17013652
REMARK  6 active torsions:
REMARK  status: ('A' for Active; 'I' for Inactive)
REMARK    1  A    between atoms: C_1  and  N_2
REMARK    2  A    between atoms: N_11  and  C1*_12
REMARK    3  A    between atoms: C2*_14  and  O2*_24
REMARK    4  A    between atoms: C3*_16  and  O3*_23
REMARK    5  A    between atoms: C4*_18  and  C5*_21
REMARK    6  A    between atoms: C5*_21  and  O5*_22
REMARK                            x       y       z     vdW  Elec       q    Type
REMARK                         _______ _______ _______ _____ _____    ______ ____
ROOT
ATOM      1  C1* UNL     1       2.486   1.425  -0.014  0.00  0.00    +0.253 C 
ATOM      2  C2* UNL     1       3.022   1.388  -1.462  0.00  0.00    +0.195 C 
ATOM      3  C3* UNL     1       3.933   0.140  -1.493  0.00  0.00    +0.178 C 
ATOM      4  C4* UNL     1       3.840  -0.428  -0.059  0.00  0.00    +0.177 C 
ATOM      5  O4* UNL     1       2.580   0.061   0.450  0.00  0.00    -0.346 OA
ENDROOT
BRANCH   1  16
ATOM      6  C   UNL     1      -1.476   6.772   0.052  0.00  0.00    +0.151 C 
ATOM      7  N   UNL     1      -0.763   5.492   0.038  0.00  0.00    -0.327 N 
ATOM      8  C   UNL     1       0.594   5.476   0.025  0.00  0.00    +0.202 A 
ATOM      9  N   UNL     1       1.275   4.364   0.013  0.00  0.00    -0.218 NA
ATOM     10  C   UNL     1       0.660   3.173   0.013  0.00  0.00    +0.167 A 
ATOM     11  C   UNL     1      -0.738   3.117   0.026  0.00  0.00    +0.139 A 
ATOM     12  C   UNL     1      -1.461   4.335   0.040  0.00  0.00    +0.117 A 
ATOM     13  S   UNL     1      -3.173   4.340   0.057  0.00  0.00    -0.030 S 
ATOM     14  N   UNL     1      -1.088   1.810   0.017  0.00  0.00    -0.231 NA
ATOM     15  C   UNL     1      -0.013   1.076   0.008  0.00  0.00    +0.203 A 
ATOM     16  N   UNL     1       1.091   1.875   0.002  0.00  0.00    -0.286 N 
ENDBRANCH   1  16
BRANCH   3  17
ATOM     17  O3* UNL     1       5.280   0.511  -1.797  0.00  0.00    -0.386 OA
ATOM     18  H3* UNL     1       5.895  -0.235  -1.829  0.00  0.00    +0.210 HD
ENDBRANCH   3  17
BRANCH   2  19
ATOM     19  O2* UNL     1       1.946   1.248  -2.392  0.00  0.00    -0.385 OA
ATOM     20  H2* UNL     1       2.226   1.219  -3.317  0.00  0.00    +0.210 HD
ENDBRANCH   2  19
BRANCH   4  21
ATOM     21  C5* UNL     1       3.843  -1.958  -0.092  0.00  0.00    +0.190 C 
BRANCH  21  22
ATOM     22  O5* UNL     1       3.873  -2.463   1.245  0.00  0.00    -0.392 OA
ATOM     23  H5* UNL     1       3.877  -3.428   1.300  0.00  0.00    +0.210 HD
ENDBRANCH  21  22
ENDBRANCH   4  21
TORSDOF 5
