REMARK  Name = ZINC27664515
REMARK  5 active torsions:
REMARK  status: ('A' for Active; 'I' for Inactive)
REMARK    1  A    between atoms: C_5  and  C_7
REMARK    2  A    between atoms: C_7  and  C_9
REMARK    3  A    between atoms: C_7  and  N_23
REMARK    4  A    between atoms: C_9  and  N_10
REMARK    5  A    between atoms: C_11  and  C_13
REMARK                            x       y       z     vdW  Elec       q    Type
REMARK                         _______ _______ _______ _____ _____    ______ ____
ROOT
ATOM      1  C   UNL     1      -2.994  -3.891   0.010  0.00  0.00    -0.019 C 
ENDROOT
BRANCH   1   6
ATOM      2  C   UNL     1      -6.327  -4.161  -1.742  0.00  0.00    +0.000 A 
ATOM      3  C   UNL     1      -6.964  -5.121  -0.978  0.00  0.00    +0.001 A 
ATOM      4  C   UNL     1      -6.317  -5.683   0.106  0.00  0.00    +0.020 A 
ATOM      5  C   UNL     1      -5.029  -5.289   0.424  0.00  0.00    +0.043 A 
ATOM      6  C   UNL     1      -4.394  -4.325  -0.339  0.00  0.00    -0.041 A 
ATOM      7  C   UNL     1      -5.042  -3.764  -1.423  0.00  0.00    +0.003 A 
ATOM      8 CL   UNL     1      -4.213  -6.000   1.781  0.00  0.00    -0.083 Cl
ENDBRANCH   1   6
BRANCH   1   9
ATOM      9  N   UNL     1      -2.027  -4.770  -0.662  0.00  0.00    +0.385 N 
ATOM     10  C   UNL     1      -2.280  -4.821  -2.108  0.00  0.00    -0.078 C 
ATOM     11  C   UNL     1      -1.172  -5.626  -2.792  0.00  0.00    -0.019 C 
ATOM     12  C   UNL     1      -1.141  -7.041  -2.210  0.00  0.00    -0.004 C 
ATOM     13  C   UNL     1      -0.926  -6.957  -0.696  0.00  0.00    -0.019 C 
ATOM     14  C   UNL     1      -2.041  -6.115  -0.073  0.00  0.00    -0.078 C 
ATOM     15  H   UNL     1      -1.023  -4.348  -0.512  0.00  0.00    -0.081 HD
ENDBRANCH   1   9
BRANCH   1  16
ATOM     16  C   UNL     1      -2.777  -2.448  -0.451  0.00  0.00    +0.093 C 
BRANCH  16  17
ATOM     17  N   UNL     1      -1.382  -2.066  -0.221  0.00  0.00    -0.316 N 
ATOM     18  C   UNL     1      -0.958  -0.831  -0.553  0.00  0.00    +0.219 C 
ATOM     19  O   UNL     1      -1.732  -0.035  -1.042  0.00  0.00    -0.275 OA
ATOM     20  H   UNL     1      -0.680  -2.788   0.222  0.00  0.00    +0.149 HD
BRANCH  18  21
ATOM     21  C   UNL     1       0.478  -0.438  -0.317  0.00  0.00    +0.048 C 
ATOM     22  C   UNL     1       0.694   1.005  -0.778  0.00  0.00    +0.019 C 
ATOM     23  C   UNL     1       2.152   1.404  -0.537  0.00  0.00    -0.009 C 
ATOM     24  C   UNL     1       3.072   0.472  -1.328  0.00  0.00    +0.007 C 
ATOM     25  C   UNL     1       2.856  -0.970  -0.867  0.00  0.00    -0.009 C 
ATOM     26  C   UNL     1       1.399  -1.369  -1.107  0.00  0.00    +0.019 C 
ATOM     27  C   UNL     1       3.176  -1.083   0.625  0.00  0.00    +0.007 C 
ATOM     28  C   UNL     1       2.255  -0.151   1.415  0.00  0.00    -0.009 C 
ATOM     29  C   UNL     1       2.472   1.292   0.954  0.00  0.00    +0.007 C 
ATOM     30  C   UNL     1       0.798  -0.550   1.175  0.00  0.00    +0.019 C 
ENDBRANCH  18  21
ENDBRANCH  16  17
ENDBRANCH   1  16
TORSDOF 5
