REMARK  Name = ZINC62779464
REMARK  2 active torsions:
REMARK  status: ('A' for Active; 'I' for Inactive)
REMARK    1  A    between atoms: C_6  and  C_7
REMARK    2  A    between atoms: C_7  and  C_9
REMARK                            x       y       z     vdW  Elec       q    Type
REMARK                         _______ _______ _______ _____ _____    ______ ____
ROOT
ATOM      1  C   UNL     1      -0.017   1.378   0.010  0.00  0.00    +0.009 A 
ATOM      2  C   UNL     1       1.169   2.091   0.002  0.00  0.00    +0.048 A 
ATOM      3  C   UNL     1       2.378   1.419  -0.013  0.00  0.00    +0.142 A 
ATOM      4  C   UNL     1       2.397   0.025  -0.021  0.00  0.00    +0.076 A 
ATOM      5  C   UNL     1       1.207  -0.684  -0.013  0.00  0.00    +0.032 A 
ATOM      6  C   UNL     1       0.002  -0.004   0.002  0.00  0.00    -0.027 A 
ATOM      7  N   UNL     1       3.629  -0.644  -0.038  0.00  0.00    -0.280 N 
ATOM      8  C   UNL     1       4.751   0.043   0.269  0.00  0.00    +0.255 C 
ATOM      9  O   UNL     1       5.831  -0.507   0.231  0.00  0.00    -0.272 OA
ATOM     10  C   UNL     1       4.655   1.496   0.659  0.00  0.00    +0.325 C 
ATOM     11  O   UNL     1       3.552   2.104  -0.020  0.00  0.00    -0.481 OA
ATOM     12  H   UNL     1       3.675  -1.586  -0.267  0.00  0.00    +0.155 HD
ENDROOT
BRANCH   6  13
ATOM     13  C   UNL     1      -1.294  -0.773   0.011  0.00  0.00    +0.119 C 
ATOM     14 BR   UNL     1      -2.415  -0.185  -1.493  0.00  0.00    -0.078 Br
BRANCH  13  15
ATOM     15  C   UNL     1      -2.019  -0.520   1.308  0.00  0.00    +0.008 A 
ATOM     16  C   UNL     1      -2.278  -1.438   2.267  0.00  0.00    +0.110 A 
ATOM     17  N   UNL     1      -2.943  -0.815   3.263  0.00  0.00    -0.284 N 
ATOM     18  H   UNL     1      -3.258  -1.227   4.083  0.00  0.00    +0.188 HD
ATOM     19  N   UNL     1      -3.098   0.530   2.903  0.00  0.00    -0.182 NA
ATOM     20  C   UNL     1      -2.539   0.707   1.734  0.00  0.00    +0.139 A 
ENDBRANCH  13  15
ENDBRANCH   6  13
TORSDOF 2
