REMARK  Name = ZINC15974910
REMARK  2 active torsions:
REMARK  status: ('A' for Active; 'I' for Inactive)
REMARK    1  A    between atoms: C_3  and  C_9
REMARK    2  A    between atoms: N_18  and  C_21
REMARK                            x       y       z     vdW  Elec       q    Type
REMARK                         _______ _______ _______ _____ _____    ______ ____
ROOT
ATOM      1  C   UNL     1       3.655   2.162  -0.022  0.00  0.00    +0.081 C 
ATOM      2  N   UNL     1       3.773   3.542  -0.108  0.00  0.00    -0.264 N 
ATOM      3  O   UNL     1       5.059   3.865   0.459  0.00  0.00    -0.256 OA
ATOM      4  C   UNL     1       5.853   2.809  -0.103  0.00  0.00    +0.272 C 
ATOM      5  C   UNL     1       4.896   1.618   0.060  0.00  0.00    +0.081 C 
ATOM      6  H   UNL     1       3.124   4.162  -0.475  0.00  0.00    +0.194 HD
ATOM      7  C   UNL     1       5.773   0.558   0.310  0.00  0.00    +0.258 C 
ATOM      8  O   UNL     1       5.556  -0.613   0.053  0.00  0.00    -0.269 OA
ATOM      9  N   UNL     1       6.898   1.035   0.879  0.00  0.00    -0.203 N 
ATOM     10  C   UNL     1       7.025   2.385   0.736  0.00  0.00    +0.263 C 
ATOM     11  O   UNL     1       7.890   3.098   1.198  0.00  0.00    -0.271 OA
ENDROOT
BRANCH   1  14
ATOM     12  C   UNL     1       0.900  -0.152   1.048  0.00  0.00    +0.021 A 
ATOM     13  C   UNL     1       2.087   0.548   1.046  0.00  0.00    +0.013 A 
ATOM     14  C   UNL     1       2.385   1.409  -0.013  0.00  0.00    +0.019 A 
ATOM     15  C   UNL     1       1.475   1.555  -1.065  0.00  0.00    +0.052 A 
ATOM     16  C   UNL     1       0.290   0.848  -1.050  0.00  0.00    +0.040 A 
ATOM     17  C   UNL     1       0.002  -0.004   0.004  0.00  0.00    +0.042 A 
ATOM     18 CL   UNL     1      -1.491  -0.890   0.015  0.00  0.00    -0.083 Cl
ATOM     19 CL   UNL     1       1.835   2.622  -2.386  0.00  0.00    -0.083 Cl
ENDBRANCH   1  14
BRANCH   9  20
ATOM     20  C   UNL     1       7.843   0.230   1.531  0.00  0.00    +0.063 A 
ATOM     21  C   UNL     1       8.903  -0.314   0.819  0.00  0.00    +0.027 A 
ATOM     22  C   UNL     1       9.833  -1.107   1.464  0.00  0.00    +0.022 A 
ATOM     23  C   UNL     1       9.708  -1.359   2.819  0.00  0.00    +0.042 A 
ATOM     24  C   UNL     1       8.653  -0.818   3.532  0.00  0.00    +0.042 A 
ATOM     25  C   UNL     1       7.723  -0.019   2.893  0.00  0.00    +0.064 A 
ATOM     26 CL   UNL     1       6.403   0.665   3.789  0.00  0.00    -0.082 Cl
ATOM     27 CL   UNL     1      10.878  -2.356   3.626  0.00  0.00    -0.083 Cl
ENDBRANCH   9  20
TORSDOF 2
