REMARK  Name = ZINC14524875
REMARK  9 active torsions:
REMARK  status: ('A' for Active; 'I' for Inactive)
REMARK    1  A    between atoms: C_1  and  C_2
REMARK    2  A    between atoms: C_2  and  O_3
REMARK    3  A    between atoms: O_3  and  C_4
REMARK    4  A    between atoms: C_4  and  C_6
REMARK    5  A    between atoms: C_7  and  C_28
REMARK    6  A    between atoms: C_8  and  C_13
REMARK    7  A    between atoms: C_11  and  C_12
REMARK    8  A    between atoms: C_18  and  C_21
REMARK    9  A    between atoms: C_21  and  N_22
REMARK                            x       y       z     vdW  Elec       q    Type
REMARK                         _______ _______ _______ _____ _____    ______ ____
ROOT
ATOM      1  C   UNL     1       4.304  -3.577  -4.463  0.00  0.00    +0.266 C 
ATOM      2  O   UNL     1       5.313  -3.534  -3.784  0.00  0.00    -0.268 OA
ATOM      3  N   UNL     1       4.362  -4.032  -5.730  0.00  0.00    -0.259 N 
ATOM      4  C   UNL     1       5.575  -4.452  -6.261  0.00  0.00    +0.165 A 
ATOM      5  N   UNL     1       5.822  -4.917  -7.467  0.00  0.00    -0.231 NA
ATOM      6  C   UNL     1       7.041  -5.277  -7.823  0.00  0.00    +0.034 A 
ATOM      7  C   UNL     1       8.018  -5.146  -6.893  0.00  0.00    +0.070 A 
ATOM      8  S   UNL     1       7.086  -4.484  -5.521  0.00  0.00    -0.060 S 
ATOM      9  H   UNL     1       3.558  -4.066  -6.271  0.00  0.00    +0.157 HD
ENDROOT
BRANCH   1  12
ATOM     10  C   UNL     1       1.452  -2.346  -2.523  0.00  0.00    +0.083 A 
ATOM     11  C   UNL     1       2.827  -2.653  -2.640  0.00  0.00    -0.006 A 
ATOM     12  C   UNL     1       3.023  -3.133  -3.901  0.00  0.00    +0.106 A 
ATOM     13  N   UNL     1       1.812  -3.129  -4.558  0.00  0.00    -0.354 N 
ATOM     14  H   UNL     1       1.667  -3.421  -5.472  0.00  0.00    +0.166 HD
ATOM     15  C   UNL     1       0.862  -2.662  -3.732  0.00  0.00    +0.028 A 
ATOM     16  C   UNL     1      -0.599  -2.506  -4.068  0.00  0.00    +0.064 C 
ATOM     17  C   UNL     1       3.878  -2.482  -1.573  0.00  0.00    +0.047 C 
BRANCH  10  18
ATOM     18  C   UNL     1       0.776  -1.799  -1.335  0.00  0.00    +0.341 C 
ATOM     19  O   UNL     1       0.312  -2.550  -0.500  0.00  0.00    -0.245 OA
BRANCH  18  20
ATOM     20  O   UNL     1       0.671  -0.465  -1.174  0.00  0.00    -0.461 OA
BRANCH  20  22
ATOM     21  C   UNL     1      -0.019   1.526   0.010  0.00  0.00    +0.048 C 
ATOM     22  C   UNL     1       0.002  -0.004   0.002  0.00  0.00    +0.229 C 
ENDBRANCH  20  22
ENDBRANCH  18  20
ENDBRANCH  10  18
ENDBRANCH   1  12
BRANCH   6  23
ATOM     23  C   UNL     1       7.333  -5.811  -9.202  0.00  0.00    -0.022 C 
BRANCH  23  24
ATOM     24  N   UNL     1       7.061  -7.254  -9.236  0.00  0.00    +0.383 N 
ATOM     25  C   UNL     1       7.992  -7.947  -8.337  0.00  0.00    -0.078 C 
ATOM     26  C   UNL     1       7.661  -9.441  -8.307  0.00  0.00    -0.019 C 
ATOM     27  C   UNL     1       7.791 -10.015  -9.721  0.00  0.00    -0.004 C 
ATOM     28  C   UNL     1       6.871  -9.236 -10.665  0.00  0.00    -0.019 C 
ATOM     29  C   UNL     1       7.231  -7.750 -10.607  0.00  0.00    -0.078 C 
ATOM     30  H   UNL     1       6.114  -7.424  -8.933  0.00  0.00    -0.081 HD
ENDBRANCH  23  24
ENDBRANCH   6  23
TORSDOF 6
