REMARK  Name = ZINC44575764
REMARK  10 active torsions:
REMARK  status: ('A' for Active; 'I' for Inactive)
REMARK    1  A    between atoms: C_1  and  C_2
REMARK    2  A    between atoms: C_3  and  C_4
REMARK    3  A    between atoms: C_4  and  O_6
REMARK    4  A    between atoms: O_6  and  C_7
REMARK    5  A    between atoms: C_7  and  C_8
REMARK    6  A    between atoms: C_8  and  C_10
REMARK    7  A    between atoms: C_10  and  O_35
REMARK    8  A    between atoms: C_15  and  C_34
REMARK    9  A    between atoms: C_17  and  O_33
REMARK   10  A    between atoms: C_31  and  C_32
REMARK                            x       y       z     vdW  Elec       q    Type
REMARK                         _______ _______ _______ _____ _____    ______ ____
ROOT
ATOM      1  C   UNL     1       2.018  -6.282  -3.362  0.00  0.00    +0.133 C 
ATOM      2  C   UNL     1       3.368  -6.769  -2.797  0.00  0.00    +0.043 C 
ATOM      3  C   UNL     1       4.142  -7.386  -3.983  0.00  0.00    +0.008 C 
ATOM      4  C   UNL     1       3.525  -6.690  -5.233  0.00  0.00    +0.002 C 
ATOM      5  C   UNL     1       2.035  -6.636  -4.854  0.00  0.00    +0.009 C 
ATOM      6  C   UNL     1       1.248  -5.657  -5.695  0.00  0.00    +0.041 C 
ATOM      7  C   UNL     1       1.888  -4.270  -5.665  0.00  0.00    +0.120 C 
ATOM      8  C   UNL     1       3.318  -4.378  -6.212  0.00  0.00    +0.035 C 
ATOM      9  C   UNL     1       4.142  -5.289  -5.300  0.00  0.00    -0.000 C 
ATOM     10  C   UNL     1       5.579  -5.418  -5.813  0.00  0.00    +0.008 C 
ATOM     11  C   UNL     1       6.265  -4.050  -5.792  0.00  0.00    +0.032 C 
ATOM     12  C   UNL     1       5.412  -3.088  -6.598  0.00  0.00    -0.056 C 
ATOM     13  C   UNL     1       5.976  -2.385  -7.569  0.00  0.00    +0.051 C 
ATOM     14  C   UNL     1       5.174  -1.459  -8.384  0.00  0.00    +0.179 C 
ATOM     15  O   UNL     1       5.694  -0.782  -9.252  0.00  0.00    -0.288 OA
ATOM     16  C   UNL     1       3.727  -1.369  -8.126  0.00  0.00    +0.047 C 
ATOM     17  C   UNL     1       3.187  -2.076  -7.145  0.00  0.00    -0.012 C 
ATOM     18  C   UNL     1       3.932  -2.974  -6.230  0.00  0.00    +0.013 C 
ATOM     19  C   UNL     1       3.824  -2.401  -4.816  0.00  0.00    +0.020 C 
ATOM     20  C   UNL     1       1.425  -8.027  -5.042  0.00  0.00    +0.015 C 
ENDROOT
BRANCH   1  21
ATOM     21  C   UNL     1       1.886  -4.792  -3.182  0.00  0.00    +0.202 C 
ATOM     22  O   UNL     1       2.874  -4.110  -3.050  0.00  0.00    -0.291 OA
BRANCH  21  23
ATOM     23  C   UNL     1       0.522  -4.152  -3.168  0.00  0.00    +0.309 C 
BRANCH  23  24
ATOM     24  O   UNL     1       0.659  -2.742  -2.985  0.00  0.00    -0.454 OA
BRANCH  24  25
ATOM     25  C   UNL     1      -0.476  -2.016  -2.949  0.00  0.00    +0.332 C 
ATOM     26  O   UNL     1      -1.553  -2.566  -3.070  0.00  0.00    -0.246 OA
BRANCH  25  29
ATOM     27  C   UNL     1      -1.467   1.651  -2.540  0.00  0.00    +0.035 C 
ATOM     28  C   UNL     1      -1.533   0.157  -2.729  0.00  0.00    -0.023 C 
ATOM     29  C   UNL     1      -0.412  -0.559  -2.765  0.00  0.00    +0.087 C 
ENDBRANCH  25  29
ENDBRANCH  24  25
ENDBRANCH  23  24
ENDBRANCH  21  23
ENDBRANCH   1  21
BRANCH   7  30
ATOM     30  O   UNL     1       1.127  -3.373  -6.475  0.00  0.00    -0.391 OA
ATOM     31  H   UNL     1       0.209  -3.268  -6.189  0.00  0.00    +0.210 HD
ENDBRANCH   7  30
BRANCH   1  32
ATOM     32  O   UNL     1       0.938  -6.954  -2.709  0.00  0.00    -0.380 OA
ATOM     33  H   UNL     1       0.885  -6.782  -1.759  0.00  0.00    +0.211 HD
ENDBRANCH   1  32
TORSDOF 7
