REMARK  Name = ZINC45466924
REMARK  6 active torsions:
REMARK  status: ('A' for Active; 'I' for Inactive)
REMARK    1  A    between atoms: C_4  and  C_7
REMARK    2  A    between atoms: C_7  and  C_8
REMARK    3  A    between atoms: C_7  and  C_16
REMARK    4  A    between atoms: C_7  and  N_19
REMARK    5  A    between atoms: C_8  and  O_9
REMARK    6  A    between atoms: O_9  and  C_10
REMARK                            x       y       z     vdW  Elec       q    Type
REMARK                         _______ _______ _______ _____ _____    ______ ____
ROOT
ATOM      1  C   UNL     1       3.711  -0.707  -0.038  0.00  0.00    +0.142 C 
ENDROOT
BRANCH   1   5
ATOM      2  C   UNL     1      -0.017   1.378   0.010  0.00  0.00    +0.000 A 
ATOM      3  C   UNL     1       1.171   2.086   0.002  0.00  0.00    +0.000 A 
ATOM      4  C   UNL     1       2.377   1.411  -0.013  0.00  0.00    +0.006 A 
ATOM      5  C   UNL     1       2.396   0.029  -0.020  0.00  0.00    -0.017 A 
ATOM      6  C   UNL     1       1.208  -0.679  -0.012  0.00  0.00    +0.006 A 
ATOM      7  C   UNL     1       0.002  -0.004   0.002  0.00  0.00    +0.000 A 
ENDBRANCH   1   5
BRANCH   1   8
ATOM      8  C   UNL     1       4.135  -0.945  -1.464  0.00  0.00    +0.237 C 
ATOM      9  O   UNL     1       3.870  -1.996  -2.008  0.00  0.00    -0.274 OA
ATOM     10  N   UNL     1       4.808   0.010  -2.136  0.00  0.00    -0.327 N 
ATOM     11  H   UNL     1       5.019   0.851  -1.701  0.00  0.00    +0.145 HD
ATOM     12  H   UNL     1       5.080  -0.143  -3.054  0.00  0.00    +0.145 HD
ENDBRANCH   1   8
BRANCH   1  13
ATOM     13  N   UNL     1       4.731   0.097   0.648  0.00  0.00    -0.312 NA
ATOM     14  H   UNL     1       4.900   0.962   0.157  0.00  0.00    +0.120 HD
ATOM     15  H   UNL     1       4.470   0.271   1.607  0.00  0.00    +0.120 HD
ENDBRANCH   1  13
BRANCH   1  16
ATOM     16  C   UNL     1       3.554  -2.050   0.679  0.00  0.00    +0.196 C 
BRANCH  16  17
ATOM     17  O   UNL     1       4.826  -2.696   0.765  0.00  0.00    -0.374 OA
BRANCH  17  18
ATOM     18  C   UNL     1       4.790  -3.965   1.420  0.00  0.00    +0.123 C 
ATOM     19  C   UNL     1       5.031  -3.774   2.921  0.00  0.00    +0.059 C 
ATOM     20  C   UNL     1       5.070  -5.144   3.602  0.00  0.00    +0.162 C 
ATOM     21  O   UNL     1       6.091  -5.944   3.003  0.00  0.00    -0.380 OA
ATOM     22  C   UNL     1       5.893  -6.196   1.610  0.00  0.00    +0.162 C 
ATOM     23  C   UNL     1       5.888  -4.868   0.849  0.00  0.00    +0.059 C 
ENDBRANCH  17  18
ENDBRANCH  16  17
ENDBRANCH   1  16
TORSDOF 6
