REMARK  Name = ZINC63511216
REMARK  8 active torsions:
REMARK  status: ('A' for Active; 'I' for Inactive)
REMARK    1  A    between atoms: C_1  and  C_2
REMARK    2  A    between atoms: C_4  and  N_24
REMARK    3  A    between atoms: C_7  and  N_8
REMARK    4  A    between atoms: C_9  and  C_11
REMARK    5  A    between atoms: C_11  and  N_12
REMARK    6  A    between atoms: N_12  and  C_13
REMARK    7  A    between atoms: C_13  and  C_18
REMARK    8  A    between atoms: C_20  and  C_23
REMARK                            x       y       z     vdW  Elec       q    Type
REMARK                         _______ _______ _______ _____ _____    ______ ____
ROOT
ATOM      1  N   UNL     1       0.025  -0.010   2.418  0.00  0.00    -0.287 N 
ATOM      2  C   UNL     1      -0.057  -0.688   3.580  0.00  0.00    +0.200 C 
ATOM      3  O   UNL     1      -0.040  -1.901   3.578  0.00  0.00    -0.278 OA
ATOM      4  H   UNL     1       0.078   0.958   2.424  0.00  0.00    +0.155 HD
ENDROOT
BRANCH   1  11
ATOM      5  C   UNL     1      -1.265   1.183   0.182  0.00  0.00    +0.046 C 
ATOM      6  C   UNL     1      -0.585  -0.158   0.085  0.00  0.00    -0.028 A 
ATOM      7  C   UNL     1      -0.572  -0.840  -1.116  0.00  0.00    +0.028 A 
ATOM      8  C   UNL     1       0.055  -2.076  -1.205  0.00  0.00    +0.030 A 
ATOM      9  C   UNL     1       0.669  -2.626  -0.087  0.00  0.00    +0.025 A 
ATOM     10  C   UNL     1       0.656  -1.944   1.113  0.00  0.00    +0.025 A 
ATOM     11  C   UNL     1       0.034  -0.705   1.201  0.00  0.00    +0.036 A 
BRANCH   8  12
ATOM     12  N   UNL     1       0.068  -2.767  -2.422  0.00  0.00    -0.330 N 
ATOM     13  C   UNL     1      -0.535  -2.301  -3.679  0.00  0.00    +0.105 C 
ATOM     14  C   UNL     1      -0.295  -3.398  -4.737  0.00  0.00    +0.020 C 
ATOM     15  C   UNL     1      -0.066  -4.668  -3.875  0.00  0.00    +0.020 C 
ATOM     16  C   UNL     1       0.694  -4.081  -2.656  0.00  0.00    +0.105 C 
ENDBRANCH   8  12
ENDBRANCH   1  11
BRANCH   2  17
ATOM     17  C   UNL     1      -0.168   0.062   4.883  0.00  0.00    +0.017 C 
BRANCH  17  18
ATOM     18  N   UNL     1      -0.242  -0.896   5.994  0.00  0.00    +0.393 N 
ATOM     19  H   UNL     1      -1.051  -1.487   5.876  0.00  0.00    -0.084 HD
ATOM     20  H   UNL     1       0.592  -1.465   6.004  0.00  0.00    -0.084 HD
BRANCH  18  21
ATOM     21  C   UNL     1      -0.350  -0.166   7.264  0.00  0.00    -0.003 C 
ATOM     22  C   UNL     1       0.914   0.688   7.492  0.00  0.00    -0.005 C 
ATOM     23  C   UNL     1       1.164   0.597   9.018  0.00  0.00    -0.001 C 
ATOM     24  C   UNL     1       0.791  -0.872   9.338  0.00  0.00    -0.001 C 
ATOM     25  C   UNL     1      -0.428  -1.158   8.438  0.00  0.00    -0.005 C 
BRANCH  21  26
ATOM     26  C   UNL     1      -1.573   0.714   7.250  0.00  0.00    +0.161 A 
ATOM     27  N   UNL     1      -1.866   1.625   6.314  0.00  0.00    -0.198 NA
ATOM     28  C   UNL     1      -2.994   2.213   6.599  0.00  0.00    +0.224 A 
ATOM     29  O   UNL     1      -3.463   1.691   7.739  0.00  0.00    -0.338 OA
ATOM     30  N   UNL     1      -2.521   0.709   8.143  0.00  0.00    -0.063 NA
ATOM     31  C   UNL     1      -3.656   3.295   5.785  0.00  0.00    +0.112 C 
ENDBRANCH  21  26
ENDBRANCH  18  21
ENDBRANCH  17  18
ENDBRANCH   2  17
TORSDOF 6
