REMARK  Name = ZINC43560953
REMARK  5 active torsions:
REMARK  status: ('A' for Active; 'I' for Inactive)
REMARK    1  A    between atoms: C_1  and  C_2
REMARK    2  A    between atoms: C_6  and  C_8
REMARK    3  A    between atoms: C_8  and  C_9
REMARK    4  A    between atoms: C_11  and  C_14
REMARK    5  A    between atoms: C_17  and  N_21
REMARK                            x       y       z     vdW  Elec       q    Type
REMARK                         _______ _______ _______ _____ _____    ______ ____
ROOT
ATOM      1  C   UNL     1       1.480  -3.080   2.915  0.00  0.00    +0.176 A 
ATOM      2  N   UNL     1       2.223  -4.136   2.581  0.00  0.00    -0.191 NA
ATOM      3  C   UNL     1       3.420  -4.032   3.118  0.00  0.00    +0.260 A 
ATOM      4  O   UNL     1       3.462  -2.885   3.818  0.00  0.00    -0.333 OA
ATOM      5  N   UNL     1       2.186  -2.281   3.664  0.00  0.00    -0.061 NA
ENDROOT
BRANCH   3   6
ATOM      6  C   UNL     1       4.521  -5.004   2.977  0.00  0.00    +0.058 A 
ATOM      7  C   UNL     1       4.343  -6.159   2.211  0.00  0.00    +0.016 A 
ATOM      8  C   UNL     1       5.373  -7.063   2.082  0.00  0.00    +0.023 A 
ATOM      9  C   UNL     1       6.591  -6.829   2.713  0.00  0.00    +0.026 A 
ATOM     10  C   UNL     1       6.773  -5.681   3.476  0.00  0.00    +0.043 A 
ATOM     11  C   UNL     1       5.748  -4.768   3.605  0.00  0.00    +0.055 A 
ATOM     12 CL   UNL     1       5.978  -3.331   4.552  0.00  0.00    -0.083 Cl
BRANCH   9  13
ATOM     13  N   UNL     1       7.630  -7.746   2.579  0.00  0.00    -0.358 N 
ATOM     14  H   UNL     1       7.504  -8.547   2.047  0.00  0.00    +0.142 HD
ATOM     15  H   UNL     1       8.480  -7.584   3.018  0.00  0.00    +0.142 HD
ENDBRANCH   9  13
ENDBRANCH   3   6
BRANCH   1  16
ATOM     16  C   UNL     1       0.054  -2.845   2.489  0.00  0.00    +0.114 C 
BRANCH  16  22
ATOM     17  C   UNL     1      -0.018   1.503   0.010  0.00  0.00    +0.044 C 
ATOM     18  C   UNL     1       0.002  -0.004   0.002  0.00  0.00    -0.050 A 
ATOM     19  C   UNL     1       0.006  -0.689  -1.199  0.00  0.00    +0.003 A 
ATOM     20  C   UNL     1       0.025  -2.071  -1.207  0.00  0.00    +0.001 A 
ATOM     21  C   UNL     1       0.040  -2.768  -0.013  0.00  0.00    +0.004 A 
ATOM     22  C   UNL     1       0.037  -2.084   1.188  0.00  0.00    -0.040 A 
ATOM     23  C   UNL     1       0.023  -0.702   1.195  0.00  0.00    +0.007 A 
ENDBRANCH  16  22
ENDBRANCH   1  16
TORSDOF 4
