REMARK  Name = ZINC03956720
REMARK  8 active torsions:
REMARK  status: ('A' for Active; 'I' for Inactive)
REMARK    1  A    between atoms: C_4  and  O_10
REMARK    2  A    between atoms: C_5  and  N_7
REMARK    3  A    between atoms: O_10  and  C_11
REMARK    4  A    between atoms: C_13  and  O_26
REMARK    5  A    between atoms: C_15  and  O_25
REMARK    6  A    between atoms: C_17  and  O_24
REMARK    7  A    between atoms: C_19  and  C_22
REMARK    8  A    between atoms: C_22  and  O_23
REMARK                            x       y       z     vdW  Elec       q    Type
REMARK                         _______ _______ _______ _____ _____    ______ ____
ROOT
ATOM      1  C   UNL     1      -0.017   1.425   0.010  0.00  0.00    +0.339 C 
ATOM      2  C   UNL     1       1.419   1.953  -0.001  0.00  0.00    +0.214 C 
ATOM      3  C   UNL     1       2.171   1.393   1.211  0.00  0.00    +0.180 C 
ATOM      4  C   UNL     1       2.114  -0.137   1.170  0.00  0.00    +0.177 C 
ATOM      5  C   UNL     1       0.650  -0.585   1.135  0.00  0.00    +0.179 C 
ATOM      6  O   UNL     1       0.002  -0.004   0.002  0.00  0.00    -0.331 OA
ENDROOT
BRANCH   4   7
ATOM      7  O   UNL     1       2.749  -0.670   2.334  0.00  0.00    -0.386 OA
ATOM      8  H   UNL     1       3.680  -0.426   2.420  0.00  0.00    +0.210 HD
ENDBRANCH   4   7
BRANCH   3   9
ATOM      9  O   UNL     1       1.556   1.862   2.413  0.00  0.00    -0.386 OA
ATOM     10  H   UNL     1       1.557   2.825   2.505  0.00  0.00    +0.210 HD
ENDBRANCH   3   9
BRANCH   2  11
ATOM     11  O   UNL     1       2.072   1.537  -1.202  0.00  0.00    -0.383 OA
ATOM     12  H   UNL     1       1.647   1.853  -2.011  0.00  0.00    +0.210 HD
ENDBRANCH   2  11
BRANCH   1  13
ATOM     13  O   UNL     1      -0.686   1.886   1.186  0.00  0.00    -0.459 OA
BRANCH  13  17
ATOM     14  C   UNL     1      -4.698   0.989   1.533  0.00  0.00    +0.002 A 
ATOM     15  C   UNL     1      -3.991   0.573   0.419  0.00  0.00    +0.004 A 
ATOM     16  C   UNL     1      -2.648   0.872   0.301  0.00  0.00    +0.048 A 
ATOM     17  C   UNL     1      -2.007   1.591   1.300  0.00  0.00    +0.154 A 
ATOM     18  C   UNL     1      -2.717   2.002   2.418  0.00  0.00    +0.168 A 
ATOM     19  C   UNL     1      -4.062   1.705   2.530  0.00  0.00    +0.036 A 
BRANCH  18  20
ATOM     20  N   UNL     1      -2.036   2.764   3.489  0.00  0.00    +0.060 N 
ATOM     21  O   UNL     1      -2.659   3.126   4.471  0.00  0.00    -0.126 OA
ATOM     22  O   UNL     1      -0.851   3.030   3.388  0.00  0.00    -0.126 OA
ENDBRANCH  18  20
ENDBRANCH  13  17
ENDBRANCH   1  13
BRANCH   5  23
ATOM     23  C   UNL     1       0.585  -2.110   1.034  0.00  0.00    +0.190 C 
BRANCH  23  24
ATOM     24  O   UNL     1      -0.776  -2.536   1.118  0.00  0.00    -0.392 OA
ATOM     25  H   UNL     1      -0.893  -3.494   1.060  0.00  0.00    +0.210 HD
ENDBRANCH  23  24
ENDBRANCH   5  23
TORSDOF 8
