REMARK  Name = ZINC40227304
REMARK  2 active torsions:
REMARK  status: ('A' for Active; 'I' for Inactive)
REMARK    1  A    between atoms: C_6  and  N_7
REMARK    2  A    between atoms: N_7  and  C_8
REMARK                            x       y       z     vdW  Elec       q    Type
REMARK                         _______ _______ _______ _____ _____    ______ ____
ROOT
ATOM      1  N   UNL     1      -1.200  -0.720   0.010  0.00  0.00    -0.337 N 
ATOM      2  H   UNL     1      -1.187  -1.689   0.005  0.00  0.00    +0.147 HD
ENDROOT
BRANCH   1   8
ATOM      3  C   UNL     1      -0.017   1.386   0.010  0.00  0.00    +0.026 A 
ATOM      4  C   UNL     1       1.167   2.097   0.002  0.00  0.00    +0.050 A 
ATOM      5  C   UNL     1       2.379   1.426  -0.013  0.00  0.00    +0.157 A 
ATOM      6  C   UNL     1       2.400   0.031  -0.021  0.00  0.00    +0.089 A 
ATOM      7  C   UNL     1       1.213  -0.682  -0.013  0.00  0.00    +0.052 A 
ATOM      8  C   UNL     1       0.002  -0.004   0.002  0.00  0.00    +0.030 A 
ATOM      9  N   UNL     1       3.743  -0.347  -0.036  0.00  0.00    -0.288 N 
ATOM     10  H   UNL     1       4.083  -1.255  -0.044  0.00  0.00    +0.172 HD
ATOM     11  C   UNL     1       4.481   0.780  -0.037  0.00  0.00    +0.419 A 
ATOM     12  O   UNL     1       5.697   0.823  -0.049  0.00  0.00    -0.223 OA
ATOM     13  O   UNL     1       3.668   1.848  -0.023  0.00  0.00    -0.408 OA
ENDBRANCH   1   8
BRANCH   1  14
ATOM     14  C   UNL     1      -2.478  -0.004   0.027  0.00  0.00    +0.101 C 
ATOM     15  C   UNL     1      -3.587  -0.903   0.613  0.00  0.00    +0.031 C 
ATOM     16  C   UNL     1      -4.179  -1.565  -0.649  0.00  0.00    +0.037 C 
ATOM     17  C   UNL     1      -3.902  -0.592  -1.775  0.00  0.00    -0.041 A 
ATOM     18  C   UNL     1      -2.924   0.308  -1.386  0.00  0.00    -0.024 A 
ATOM     19  C   UNL     1      -2.506   1.298  -2.260  0.00  0.00    +0.007 A 
ATOM     20  C   UNL     1      -3.063   1.392  -3.521  0.00  0.00    +0.015 A 
ATOM     21  C   UNL     1      -4.041   0.495  -3.912  0.00  0.00    +0.018 A 
ATOM     22  C   UNL     1      -4.462  -0.498  -3.038  0.00  0.00    +0.019 A 
ATOM     23 BR   UNL     1      -4.805   0.621  -5.637  0.00  0.00    -0.050 Br
ENDBRANCH   1  14
TORSDOF 2
