REMARK  Name = ZINC36153871
REMARK  4 active torsions:
REMARK  status: ('A' for Active; 'I' for Inactive)
REMARK    1  A    between atoms: C_1  and  C_2
REMARK    2  A    between atoms: C_3  and  C_9
REMARK    3  A    between atoms: C_7  and  N_8
REMARK    4  A    between atoms: C_12  and  C_17
REMARK                            x       y       z     vdW  Elec       q    Type
REMARK                         _______ _______ _______ _____ _____    ______ ____
ROOT
ATOM      1  C   UNL     1      -0.011   0.046  -2.488  0.00  0.00    +0.133 A 
ATOM      2  N   UNL     1      -0.024   1.339  -2.688  0.00  0.00    -0.155 NA
ATOM      3  N   UNL     1      -0.038   1.867  -3.973  0.00  0.00    -0.187 N 
ATOM      4  C   UNL     1      -0.054   3.092  -4.608  0.00  0.00    +0.184 A 
ATOM      5  N   UNL     1      -0.061   2.879  -5.894  0.00  0.00    -0.129 NA
ATOM      6  N   UNL     1      -0.051   1.614  -6.132  0.00  0.00    -0.120 NA
ATOM      7  C   UNL     1      -0.037   0.964  -5.008  0.00  0.00    +0.218 A 
ATOM      8  S   UNL     1      -0.009  -0.594  -4.156  0.00  0.00    -0.026 S 
ENDROOT
BRANCH   1  11
ATOM      9  C   UNL     1      -0.018   1.503   0.010  0.00  0.00    +0.046 C 
ATOM     10  C   UNL     1       0.002  -0.004   0.002  0.00  0.00    -0.020 A 
ATOM     11  C   UNL     1       0.006  -0.697  -1.208  0.00  0.00    +0.014 A 
ATOM     12  C   UNL     1       0.025  -2.091  -1.208  0.00  0.00    +0.011 A 
ATOM     13  C   UNL     1       0.039  -2.782  -0.013  0.00  0.00    +0.002 A 
ATOM     14  C   UNL     1       0.035  -2.096   1.187  0.00  0.00    +0.023 A 
ATOM     15  C   UNL     1       0.023  -0.706   1.198  0.00  0.00    +0.028 A 
BRANCH  15  16
ATOM     16  N   UNL     1       0.025  -0.017   2.413  0.00  0.00    -0.358 N 
ATOM     17  H   UNL     1       0.012   0.953   2.420  0.00  0.00    +0.142 HD
ATOM     18  H   UNL     1       0.040  -0.508   3.249  0.00  0.00    +0.142 HD
ENDBRANCH  15  16
ENDBRANCH   1  11
BRANCH   4  19
ATOM     19  C   UNL     1      -0.063   4.439  -3.933  0.00  0.00    +0.188 C 
ATOM     20  C   UNL     1      -1.471   5.064  -4.030  0.00  0.00    +0.042 C 
ATOM     21  C   UNL     1      -1.150   6.561  -4.292  0.00  0.00    +0.031 C 
ATOM     22  C   UNL     1       0.136   6.441  -5.148  0.00  0.00    +0.161 C 
ATOM     23  O   UNL     1       0.851   5.321  -4.597  0.00  0.00    -0.369 OA
ENDBRANCH   4  19
TORSDOF 3
