REMARK  Name = ZINC41058805
REMARK  2 active torsions:
REMARK  status: ('A' for Active; 'I' for Inactive)
REMARK    1  A    between atoms: C_5  and  C_6
REMARK    2  A    between atoms: C_8  and  C_12
REMARK                            x       y       z     vdW  Elec       q    Type
REMARK                         _______ _______ _______ _____ _____    ______ ____
ROOT
ATOM      1  C   UNL     1       1.295  -0.732  -0.014  0.00  0.00    +0.184 A 
ATOM      2  N   UNL     1       1.441  -2.064  -0.028  0.00  0.00    -0.211 NA
ATOM      3  C   UNL     1       2.712  -2.369  -0.041  0.00  0.00    +0.129 A 
ATOM      4  N   UNL     1       3.421  -1.226  -0.035  0.00  0.00    -0.262 N 
ATOM      5  H   UNL     1       4.387  -1.142  -0.042  0.00  0.00    +0.190 HD
ATOM      6  N   UNL     1       2.487  -0.177  -0.023  0.00  0.00    -0.152 NA
ENDROOT
BRANCH   1  11
ATOM      7  C   UNL     1      -0.016   1.309   0.009  0.00  0.00    -0.002 C 
ATOM      8  C   UNL     1      -1.372   1.983   0.019  0.00  0.00    +0.103 C 
ATOM      9  S   UNL     1      -2.508   0.537   0.017  0.00  0.00    -0.102 S 
ATOM     10  C   UNL     1      -1.275  -0.755   0.004  0.00  0.00    +0.099 C 
ATOM     11  C   UNL     1       0.002  -0.004   0.002  0.00  0.00    +0.049 C 
ATOM     12  N   UNL     1      -1.455  -2.047  -0.002  0.00  0.00    -0.292 NA
ATOM     13  H   UNL     1      -0.690  -2.643  -0.009  0.00  0.00    +0.187 HD
ENDBRANCH   1  11
BRANCH   3  14
ATOM     14  C   UNL     1       3.284  -3.763  -0.058  0.00  0.00    +0.056 C 
ATOM     15  C   UNL     1       4.626  -3.792   0.703  0.00  0.00    +0.011 C 
ATOM     16  C   UNL     1       5.501  -4.779  -0.108  0.00  0.00    +0.001 C 
ATOM     17  C   UNL     1       5.107  -4.463  -1.572  0.00  0.00    +0.001 C 
ATOM     18  C   UNL     1       3.591  -4.189  -1.504  0.00  0.00    +0.011 C 
ENDBRANCH   3  14
TORSDOF 2
