REMARK  Name = ZINC02856857
REMARK  6 active torsions:
REMARK  status: ('A' for Active; 'I' for Inactive)
REMARK    1  A    between atoms: C_1  and  C_2
REMARK    2  A    between atoms: C_5  and  S_8
REMARK    3  A    between atoms: S_8  and  N_11
REMARK    4  A    between atoms: C_12  and  C_18
REMARK    5  A    between atoms: N_20  and  C_21
REMARK    6  A    between atoms: C_26  and  C_27
REMARK                            x       y       z     vdW  Elec       q    Type
REMARK                         _______ _______ _______ _____ _____    ______ ____
ROOT
ATOM      1  N   UNL     1      -1.229   7.565  -0.571  0.00  0.00    -0.160 N 
ATOM      2  C   UNL     1      -1.413   6.128  -0.337  0.00  0.00    +0.187 C 
ATOM      3  C   UNL     1      -2.304   5.632  -1.497  0.00  0.00    +0.043 C 
ATOM      4  C   UNL     1      -1.996   6.673  -2.598  0.00  0.00    +0.100 C 
ATOM      5  C   UNL     1      -1.544   7.898  -1.835  0.00  0.00    +0.235 C 
ATOM      6  O   UNL     1      -1.476   9.018  -2.296  0.00  0.00    -0.274 OA
ENDROOT
BRANCH   2   7
ATOM      7  C   UNL     1      -0.082   5.421  -0.362  0.00  0.00    +0.240 C 
ATOM      8  O   UNL     1       0.935   6.051  -0.557  0.00  0.00    -0.273 OA
ATOM      9  N   UNL     1      -0.023   4.089  -0.167  0.00  0.00    -0.283 N 
ATOM     10  H   UNL     1      -0.841   3.576  -0.071  0.00  0.00    +0.155 HD
BRANCH   9  11
ATOM     11  C   UNL     1       1.212   3.449  -0.105  0.00  0.00    +0.046 A 
ATOM     12  C   UNL     1       2.219   3.786  -1.000  0.00  0.00    +0.024 A 
ATOM     13  C   UNL     1       3.441   3.146  -0.939  0.00  0.00    +0.002 A 
ATOM     14  C   UNL     1       3.674   2.168   0.015  0.00  0.00    +0.001 A 
ATOM     15  C   UNL     1       2.688   1.824   0.914  0.00  0.00    +0.015 A 
ATOM     16  C   UNL     1       1.447   2.463   0.865  0.00  0.00    +0.058 A 
BRANCH  16  17
ATOM     17  C   UNL     1       0.387   2.099   1.824  0.00  0.00    +0.243 C 
ATOM     18  O   UNL     1      -0.655   2.726   1.847  0.00  0.00    -0.270 OA
ATOM     19  N   UNL     1       0.570   1.067   2.672  0.00  0.00    -0.325 N 
ATOM     20  H   UNL     1       1.400   0.564   2.652  0.00  0.00    +0.145 HD
ATOM     21  H   UNL     1      -0.127   0.828   3.303  0.00  0.00    +0.145 HD
ENDBRANCH  16  17
ENDBRANCH   9  11
ENDBRANCH   2   7
BRANCH   1  22
ATOM     22  S   UNL     1      -0.702   8.639   0.575  0.00  0.00    +0.077 S 
ATOM     23  O   UNL     1      -1.176   9.919   0.180  0.00  0.00    -0.150 OA
ATOM     24  O   UNL     1      -1.012   8.069   1.839  0.00  0.00    -0.150 OA
BRANCH  22  29
ATOM     25  C   UNL     1       5.317   8.837   0.201  0.00  0.00    +0.044 C 
ATOM     26  C   UNL     1       3.813   8.788   0.294  0.00  0.00    -0.050 A 
ATOM     27  C   UNL     1       3.045   9.654  -0.461  0.00  0.00    +0.005 A 
ATOM     28  C   UNL     1       1.666   9.609  -0.375  0.00  0.00    +0.029 A 
ATOM     29  C   UNL     1       1.056   8.697   0.465  0.00  0.00    +0.109 A 
ATOM     30  C   UNL     1       1.824   7.834   1.224  0.00  0.00    +0.029 A 
ATOM     31  C   UNL     1       3.203   7.875   1.134  0.00  0.00    +0.005 A 
ENDBRANCH  22  29
ENDBRANCH   1  22
TORSDOF 5
