REMARK  Name = ZINC37130724
REMARK  6 active torsions:
REMARK  status: ('A' for Active; 'I' for Inactive)
REMARK    1  A    between atoms: C_3  and  N_12
REMARK    2  A    between atoms: C_5  and  N_7
REMARK    3  A    between atoms: N_7  and  S_8
REMARK    4  A    between atoms: S_8  and  N_11
REMARK    5  A    between atoms: N_12  and  C_13
REMARK    6  A    between atoms: C_13  and  C_14
REMARK                            x       y       z     vdW  Elec       q    Type
REMARK                         _______ _______ _______ _____ _____    ______ ____
ROOT
ATOM      1  C   UNL     1      -0.239   1.285   0.148  0.00  0.00    +0.004 A 
ATOM      2  C   UNL     1       0.895   2.073   0.101  0.00  0.00    +0.023 A 
ATOM      3  C   UNL     1       2.150   1.483   0.012  0.00  0.00    +0.029 A 
ATOM      4  C   UNL     1       2.263   0.100  -0.028  0.00  0.00    +0.047 A 
ATOM      5  C   UNL     1       1.123  -0.689   0.020  0.00  0.00    +0.051 A 
ATOM      6  C   UNL     1      -0.130  -0.092   0.108  0.00  0.00    +0.024 A 
ENDROOT
BRANCH   5   7
ATOM      7  N   UNL     1       1.232  -2.080  -0.021  0.00  0.00    -0.207 N 
ATOM      8  H   UNL     1       1.008  -2.561  -0.833  0.00  0.00    +0.175 HD
BRANCH   7   9
ATOM      9  S   UNL     1       1.746  -2.910   1.317  0.00  0.00    +0.107 S 
ATOM     10  O   UNL     1       1.735  -4.288   0.970  0.00  0.00    -0.138 OA
ATOM     11  O   UNL     1       2.917  -2.251   1.778  0.00  0.00    -0.138 OA
BRANCH   9  12
ATOM     12  N   UNL     1       0.596  -2.708   2.490  0.00  0.00    -0.191 NA
ATOM     13  H   UNL     1      -0.228  -2.238   2.286  0.00  0.00    +0.146 HD
ATOM     14  H   UNL     1       0.745  -3.059   3.382  0.00  0.00    +0.146 HD
ENDBRANCH   9  12
ENDBRANCH   7   9
ENDBRANCH   5   7
BRANCH   3  15
ATOM     15  N   UNL     1       3.296   2.280  -0.036  0.00  0.00    -0.340 N 
ATOM     16  H   UNL     1       4.171   1.867  -0.098  0.00  0.00    +0.146 HD
BRANCH  15  17
ATOM     17  C   UNL     1       3.175   3.739   0.006  0.00  0.00    +0.139 C 
BRANCH  17  18
ATOM     18  C   UNL     1       4.547   4.359  -0.060  0.00  0.00    +0.006 A 
ATOM     19  C   UNL     1       5.163   4.799   1.096  0.00  0.00    +0.023 A 
ATOM     20  C   UNL     1       6.422   5.368   1.036  0.00  0.00    +0.018 A 
ATOM     21  C   UNL     1       7.066   5.497  -0.182  0.00  0.00    +0.018 A 
ATOM     22  C   UNL     1       6.451   5.057  -1.339  0.00  0.00    +0.040 A 
ATOM     23  C   UNL     1       5.193   4.483  -1.278  0.00  0.00    +0.128 A 
ATOM     24  F   UNL     1       4.593   4.047  -2.408  0.00  0.00    -0.205 F 
ATOM     25 BR   UNL     1       7.264   5.971   2.618  0.00  0.00    -0.050 Br
ENDBRANCH  17  18
ENDBRANCH  15  17
ENDBRANCH   3  15
TORSDOF 6
