REMARK  Name = ZINC20899108
REMARK  3 active torsions:
REMARK  status: ('A' for Active; 'I' for Inactive)
REMARK    1  A    between atoms: C_2  and  C_3
REMARK    2  A    between atoms: C_3  and  N_4
REMARK    3  A    between atoms: C_23  and  C_26
REMARK                            x       y       z     vdW  Elec       q    Type
REMARK                         _______ _______ _______ _____ _____    ______ ____
ROOT
ATOM      1  N   UNL     1       1.694   0.207   1.177  0.00  0.00    -0.218 N 
ATOM      2  C   UNL     1       0.528   0.881   1.242  0.00  0.00    +0.261 C 
ATOM      3  O   UNL     1      -0.060   1.006   2.301  0.00  0.00    -0.269 OA
ATOM      4  C   UNL     1      -0.018   1.463   0.010  0.00  0.00    +0.116 C 
ATOM      5  C   UNL     1       0.703   1.287  -1.173  0.00  0.00    +0.258 C 
ATOM      6  N   UNL     1       1.875   0.587  -1.137  0.00  0.00    -0.235 N 
ATOM      7  H   UNL     1       2.456   0.439  -2.060  0.00  0.00    +0.159 HD
ATOM      8  C   UNL     1       2.344   0.069   0.009  0.00  0.00    +0.316 C 
ATOM      9  O   UNL     1       3.393  -0.545  -0.011  0.00  0.00    -0.252 OA
ATOM     10  O   UNL     1       0.248   1.800  -2.333  0.00  0.00    -0.270 OA
ATOM     11  C   UNL     1      -1.282   2.200   0.020  0.00  0.00    +0.027 C 
ATOM     12  N   UNL     1      -2.311   1.505  -0.082  0.00  0.00    -0.316 N 
ATOM     13  C   UNL     1      -3.633   1.554  -0.255  0.00  0.00    +0.045 A 
ATOM     14  C   UNL     1      -4.250   0.299  -0.460  0.00  0.00    +0.024 A 
ATOM     15  C   UNL     1      -5.597   0.189  -0.693  0.00  0.00    +0.002 A 
ATOM     16  C   UNL     1      -6.384   1.328  -0.730  0.00  0.00    +0.001 A 
ATOM     17  C   UNL     1      -5.807   2.559  -0.525  0.00  0.00    +0.016 A 
ATOM     18  C   UNL     1      -4.435   2.695  -0.281  0.00  0.00    +0.030 A 
ATOM     19  S   UNL     1      -3.839   4.319  -0.025  0.00  0.00    -0.115 S 
ATOM     20  C   UNL     1      -2.180   4.411  -0.684  0.00  0.00    +0.087 C 
ATOM     21  C   UNL     1      -1.164   3.678   0.145  0.00  0.00    +0.071 C 
ATOM     22  H   UNL     1      -2.242   0.408  -0.023  0.00  0.00    +0.152 HD
ENDROOT
BRANCH  20  23
ATOM     23  C   UNL     1      -1.777   5.861  -0.770  0.00  0.00    -0.034 A 
ATOM     24  C   UNL     1      -1.667   6.617   0.383  0.00  0.00    +0.006 A 
ATOM     25  C   UNL     1      -1.293   7.945   0.305  0.00  0.00    +0.015 A 
ATOM     26  C   UNL     1      -1.040   8.521  -0.927  0.00  0.00    +0.018 A 
ATOM     27  C   UNL     1      -1.155   7.766  -2.080  0.00  0.00    +0.015 A 
ATOM     28  C   UNL     1      -1.524   6.436  -2.001  0.00  0.00    +0.006 A 
ATOM     29 BR   UNL     1      -0.534  10.340  -1.035  0.00  0.00    -0.050 Br
ENDBRANCH  20  23
BRANCH   1  30
ATOM     30  C   UNL     1       2.259  -0.383   2.393  0.00  0.00    +0.145 C 
BRANCH  30  32
ATOM     31  C   UNL     1       2.583  -2.785   2.685  0.00  0.00    +0.005 C 
ATOM     32  C   UNL     1       1.742  -1.789   2.557  0.00  0.00    -0.015 C 
ENDBRANCH  30  32
ENDBRANCH   1  30
TORSDOF 3
