REMARK  Name = ZINC64166811
REMARK  9 active torsions:
REMARK  status: ('A' for Active; 'I' for Inactive)
REMARK    1  A    between atoms: C_1  and  C_2
REMARK    2  A    between atoms: C_2  and  C_3
REMARK    3  A    between atoms: C_3  and  C_4
REMARK    4  A    between atoms: C_3  and  C_5
REMARK    5  A    between atoms: C_3  and  C_6
REMARK    6  A    between atoms: C_10  and  N_13
REMARK    7  A    between atoms: N_16  and  C_17
REMARK    8  A    between atoms: C_17  and  C_18
REMARK    9  A    between atoms: C_18  and  C_19
REMARK                            x       y       z     vdW  Elec       q    Type
REMARK                         _______ _______ _______ _____ _____    ______ ____
ROOT
ATOM      1  N   UNL     1      -1.229  -5.385  -1.903  0.00  0.00    -0.274 N 
ATOM      2  C   UNL     1      -1.912  -6.491  -2.259  0.00  0.00    +0.301 C 
ATOM      3  O   UNL     1      -3.097  -6.415  -2.521  0.00  0.00    -0.253 OA
ATOM      4  N   UNL     1      -1.282  -7.681  -2.325  0.00  0.00    -0.299 N 
ATOM      5  H   UNL     1      -0.283  -5.445  -1.695  0.00  0.00    +0.153 HD
ATOM      6  H   UNL     1      -0.337  -7.741  -2.116  0.00  0.00    +0.150 HD
ENDROOT
BRANCH   1  10
ATOM      7  C   UNL     1      -1.413  -2.063   0.004  0.00  0.00    +0.135 C 
ATOM      8  N   UNL     1      -2.796  -2.628  -0.089  0.00  0.00    -0.241 NA
ATOM      9  N   UNL     1      -2.743  -3.993  -0.599  0.00  0.00    -0.226 NA
ATOM     10  C   UNL     1      -1.913  -4.092  -1.832  0.00  0.00    +0.218 C 
ATOM     11  S   UNL     1      -0.710  -2.719  -1.571  0.00  0.00    -0.101 S 
ATOM     12  H   UNL     1      -3.385  -2.049  -0.668  0.00  0.00    +0.142 HD
ATOM     13  H   UNL     1      -3.671  -4.356  -0.757  0.00  0.00    +0.143 HD
BRANCH   7  14
ATOM     14  C   UNL     1      -1.433  -0.534   0.013  0.00  0.00    -0.009 C 
ATOM     15  C   UNL     1      -2.149  -0.040   1.272  0.00  0.00    +0.013 C 
ATOM     16  C   UNL     1      -2.173  -0.027  -1.227  0.00  0.00    +0.013 C 
BRANCH  14  18
ATOM     17  C   UNL     1      -0.019   1.526   0.010  0.00  0.00    +0.004 C 
ATOM     18  C   UNL     1       0.002  -0.004   0.002  0.00  0.00    +0.005 C 
ENDBRANCH  14  18
ENDBRANCH   7  14
ENDBRANCH   1  10
BRANCH   4  19
ATOM     19  C   UNL     1      -2.025  -8.883  -2.711  0.00  0.00    +0.110 C 
BRANCH  19  20
ATOM     20  C   UNL     1      -1.083 -10.088  -2.707  0.00  0.00    +0.052 C 
BRANCH  20  21
ATOM     21  C   UNL     1      -1.847 -11.324  -3.105  0.00  0.00    -0.040 C 
ATOM     22  C   UNL     1      -1.937 -11.862  -4.343  0.00  0.00    -0.001 A 
ATOM     23  C   UNL     1      -1.372 -11.471  -5.640  0.00  0.00    +0.010 A 
ATOM     24  C   UNL     1      -1.646 -12.225  -6.729  0.00  0.00    +0.001 A 
ATOM     25  C   UNL     1      -2.454 -13.367  -6.649  0.00  0.00    +0.002 A 
ATOM     26  C   UNL     1      -3.008 -13.790  -5.494  0.00  0.00    +0.026 A 
ATOM     27  C   UNL     1      -2.786 -13.073  -4.286  0.00  0.00    +0.043 A 
ATOM     28  N   UNL     1      -3.205 -13.276  -3.060  0.00  0.00    -0.380 N 
ATOM     29  C   UNL     1      -2.663 -12.219  -2.199  0.00  0.00    +0.144 C 
ATOM     30  H   UNL     1      -3.775 -14.006  -2.771  0.00  0.00    +0.160 HD
ENDBRANCH  20  21
ENDBRANCH  19  20
ENDBRANCH   4  19
TORSDOF 6
