REMARK  Name = ZINC59170744
REMARK  8 active torsions:
REMARK  status: ('A' for Active; 'I' for Inactive)
REMARK    1  A    between atoms: C_1  and  C_2
REMARK    2  A    between atoms: C_2  and  C_3
REMARK    3  A    between atoms: C_2  and  C_4
REMARK    4  A    between atoms: C_2  and  C_5
REMARK    5  A    between atoms: C_9  and  C_23
REMARK    6  A    between atoms: N_11  and  C_12
REMARK    7  A    between atoms: C_20  and  O_22
REMARK    8  A    between atoms: C_23  and  N_25
REMARK                            x       y       z     vdW  Elec       q    Type
REMARK                         _______ _______ _______ _____ _____    ______ ____
ROOT
ATOM      1  C   UNL     1       0.527  -1.238  -0.861  0.00  0.00    -0.038 A 
ATOM      2  C   UNL     1       0.700  -2.495  -1.395  0.00  0.00    +0.016 A 
ATOM      3  C   UNL     1       1.418  -2.650  -2.588  0.00  0.00    +0.022 A 
ATOM      4  C   UNL     1       1.623  -3.978  -3.172  0.00  0.00    +0.027 A 
ATOM      5  C   UNL     1       2.561  -4.089  -4.190  0.00  0.00    +0.064 A 
ATOM      6  C   UNL     1       3.267  -2.856  -4.592  0.00  0.00    +0.209 A 
ATOM      7  N   UNL     1       4.469  -2.906  -5.125  0.00  0.00    -0.325 N 
ATOM      8  O   UNL     1       2.638  -1.670  -4.396  0.00  0.00    -0.435 OA
ATOM      9  C   UNL     1       1.952  -1.521  -3.236  0.00  0.00    +0.179 A 
ATOM     10  C   UNL     1       1.767  -0.260  -2.679  0.00  0.00    +0.160 A 
ATOM     11  C   UNL     1       1.053  -0.124  -1.500  0.00  0.00    +0.053 A 
ATOM     12  H   UNL     1       4.943  -3.751  -5.174  0.00  0.00    +0.169 HD
ENDROOT
BRANCH   7  13
ATOM     13  C   UNL     1       5.050  -1.767  -5.609  0.00  0.00    +0.042 A 
ATOM     14  C   UNL     1       4.309  -0.880  -6.395  0.00  0.00    +0.026 A 
ATOM     15  C   UNL     1       4.902   0.267  -6.879  0.00  0.00    +0.002 A 
ATOM     16  C   UNL     1       6.227   0.541  -6.590  0.00  0.00    +0.000 A 
ATOM     17  C   UNL     1       6.967  -0.332  -5.812  0.00  0.00    +0.002 A 
ATOM     18  C   UNL     1       6.386  -1.481  -5.316  0.00  0.00    +0.026 A 
ENDBRANCH   7  13
BRANCH   1  20
ATOM     19  C   UNL     1      -0.296   0.414   0.795  0.00  0.00    +0.015 C 
ATOM     20  C   UNL     1      -0.243  -1.069   0.423  0.00  0.00    -0.013 C 
ATOM     21  C   UNL     1       0.451  -1.851   1.540  0.00  0.00    +0.015 C 
ATOM     22  C   UNL     1      -1.666  -1.600   0.237  0.00  0.00    +0.015 C 
ENDBRANCH   1  20
BRANCH  10  23
ATOM     23  O   UNL     1       2.282   0.839  -3.293  0.00  0.00    -0.503 OA
ATOM     24  H   UNL     1       1.683   1.250  -3.931  0.00  0.00    +0.292 HD
ENDBRANCH  10  23
BRANCH   5  25
ATOM     25  C   UNL     1       2.840  -5.380  -4.839  0.00  0.00    +0.082 C 
ATOM     26  S   UNL     1       3.887  -5.449  -6.192  0.00  0.00    -0.035 S 
BRANCH  25  27
ATOM     27  N   UNL     1       2.271  -6.507  -4.369  0.00  0.00    -0.352 N 
ATOM     28  H   UNL     1       1.677  -6.468  -3.602  0.00  0.00    +0.143 HD
ATOM     29  H   UNL     1       2.454  -7.358  -4.796  0.00  0.00    +0.143 HD
ENDBRANCH  25  27
ENDBRANCH   5  25
TORSDOF 5
