REMARK  Name = ZINC49098841
REMARK  3 active torsions:
REMARK  status: ('A' for Active; 'I' for Inactive)
REMARK    1  A    between atoms: C_1  and  C_2
REMARK    2  A    between atoms: C_6  and  C_19
REMARK    3  A    between atoms: C_10  and  C_12
REMARK                            x       y       z     vdW  Elec       q    Type
REMARK                         _______ _______ _______ _____ _____    ______ ____
ROOT
ATOM      1  C   UNL     1      -0.853   0.827   0.351  0.00  0.00    +0.028 C 
ATOM      2  C   UNL     1      -0.211  -0.510  -0.024  0.00  0.00    +0.073 C 
ATOM      3  C   UNL     1      -1.303  -1.514  -0.409  0.00  0.00    +0.023 C 
ATOM      4  C   UNL     1      -2.169  -1.813   0.817  0.00  0.00    +0.016 C 
ATOM      5  C   UNL     1      -1.305  -2.437   1.915  0.00  0.00    +0.092 C 
ATOM      6  C   UNL     1      -0.213  -1.444   2.326  0.00  0.00    +0.121 C 
ATOM      7  N   UNL     1       0.536  -1.038   1.126  0.00  0.00    -0.293 N 
ATOM      8  C   UNL     1       1.879  -1.149   1.080  0.00  0.00    +0.263 C 
ATOM      9  O   UNL     1       2.472  -0.929   0.040  0.00  0.00    -0.268 OA
ENDROOT
BRANCH   8  10
ATOM     10  C   UNL     1       2.624  -1.535   2.282  0.00  0.00    +0.103 A 
ATOM     11  C   UNL     1       3.876  -2.113   2.315  0.00  0.00    +0.052 A 
ATOM     12  C   UNL     1       4.203  -2.310   3.660  0.00  0.00    +0.059 A 
ATOM     13  C   UNL     1       3.168  -1.859   4.410  0.00  0.00    +0.103 A 
ATOM     14  N   UNL     1       2.204  -1.381   3.584  0.00  0.00    -0.356 N 
ATOM     15  H   UNL     1       1.359  -0.996   3.864  0.00  0.00    +0.166 HD
ATOM     16 CL   UNL     1       5.673  -3.009   4.263  0.00  0.00    -0.082 Cl
ENDBRANCH   8  10
BRANCH   5  17
ATOM     17  C   UNL     1      -2.166  -2.762   3.108  0.00  0.00    +0.215 C 
ATOM     18  O   UNL     1      -3.354  -2.519   3.084  0.00  0.00    -0.276 OA
ATOM     19  N   UNL     1      -1.615  -3.323   4.203  0.00  0.00    -0.329 N 
ATOM     20  H   UNL     1      -0.665  -3.517   4.223  0.00  0.00    +0.145 HD
ATOM     21  H   UNL     1      -2.169  -3.532   4.972  0.00  0.00    +0.145 HD
ENDBRANCH   5  17
TORSDOF 2
