REMARK  Name = ZINC10644864
REMARK  8 active torsions:
REMARK  status: ('A' for Active; 'I' for Inactive)
REMARK    1  A    between atoms: C_1  and  C_2
REMARK    2  A    between atoms: C_4  and  C_27
REMARK    3  A    between atoms: C_8  and  N_26
REMARK    4  A    between atoms: C_9  and  C_11
REMARK    5  A    between atoms: C_11  and  O_13
REMARK    6  A    between atoms: O_13  and  C_14
REMARK    7  A    between atoms: C_14  and  C_15
REMARK    8  A    between atoms: N_17  and  C_18
REMARK                            x       y       z     vdW  Elec       q    Type
REMARK                         _______ _______ _______ _____ _____    ______ ____
ROOT
ATOM      1  C   UNL     1       0.031   1.504  -0.499  0.00  0.00    +0.348 C 
ATOM      2  O   UNL     1      -1.154   1.390  -0.248  0.00  0.00    -0.244 OA
ENDROOT
BRANCH   1  11
ATOM      3  C   UNL     1      -0.428  -3.714  -2.281  0.00  0.00    +0.044 C 
ATOM      4  C   UNL     1       0.950  -3.116  -2.405  0.00  0.00    -0.037 A 
ATOM      5  C   UNL     1       1.986  -3.853  -2.929  0.00  0.00    +0.027 A 
ATOM      6  C   UNL     1       3.253  -3.301  -3.042  0.00  0.00    +0.040 A 
ATOM      7  N   UNL     1       3.480  -2.063  -2.648  0.00  0.00    -0.245 NA
ATOM      8  C   UNL     1       2.522  -1.318  -2.140  0.00  0.00    +0.111 A 
ATOM      9  C   UNL     1       1.198  -1.786  -1.983  0.00  0.00    +0.032 A 
ATOM     10  C   UNL     1       0.266  -0.827  -1.409  0.00  0.00    +0.056 A 
ATOM     11  C   UNL     1       0.742   0.421  -1.068  0.00  0.00    +0.119 A 
ATOM     12  S   UNL     1       2.463   0.346  -1.521  0.00  0.00    -0.060 S 
ATOM     13  C   UNL     1       4.378  -4.121  -3.619  0.00  0.00    +0.065 C 
BRANCH  10  14
ATOM     14  N   UNL     1      -1.065  -1.161  -1.208  0.00  0.00    -0.356 N 
ATOM     15  H   UNL     1      -1.593  -0.675  -0.556  0.00  0.00    +0.142 HD
ATOM     16  H   UNL     1      -1.467  -1.880  -1.720  0.00  0.00    +0.142 HD
ENDBRANCH  10  14
ENDBRANCH   1  11
BRANCH   1  17
ATOM     17  O   UNL     1       0.668   2.665  -0.235  0.00  0.00    -0.451 OA
BRANCH  17  18
ATOM     18  C   UNL     1      -0.111   3.716   0.340  0.00  0.00    +0.328 C 
BRANCH  18  19
ATOM     19  C   UNL     1       0.762   4.924   0.562  0.00  0.00    +0.255 C 
ATOM     20  O   UNL     1       1.936   4.888   0.259  0.00  0.00    -0.272 OA
ATOM     21  N   UNL     1       0.239   6.045   1.099  0.00  0.00    -0.281 N 
ATOM     22  H   UNL     1      -0.677   6.047   1.418  0.00  0.00    +0.155 HD
BRANCH  21  23
ATOM     23  C   UNL     1       1.017   7.204   1.195  0.00  0.00    +0.053 A 
ATOM     24  C   UNL     1       2.147   7.351   0.402  0.00  0.00    +0.044 A 
ATOM     25  C   UNL     1       2.910   8.500   0.495  0.00  0.00    +0.043 A 
ATOM     26  C   UNL     1       2.555   9.498   1.386  0.00  0.00    +0.021 A 
ATOM     27  C   UNL     1       1.434   9.352   2.181  0.00  0.00    +0.023 A 
ATOM     28  C   UNL     1       0.663   8.208   2.088  0.00  0.00    +0.062 A 
ATOM     29 CL   UNL     1      -0.745   8.025   3.087  0.00  0.00    -0.082 Cl
ATOM     30 CL   UNL     1       4.320   8.688  -0.501  0.00  0.00    -0.083 Cl
ENDBRANCH  21  23
ENDBRANCH  18  19
ENDBRANCH  17  18
ENDBRANCH   1  17
TORSDOF 6
