REMARK  Name = ZINC66135706
REMARK  6 active torsions:
REMARK  status: ('A' for Active; 'I' for Inactive)
REMARK    1  A    between atoms: C_1  and  C_2
REMARK    2  A    between atoms: C_7  and  O_8
REMARK    3  A    between atoms: O_8  and  C_9
REMARK    4  A    between atoms: C_9  and  C_10
REMARK    5  A    between atoms: C_11  and  C_18
REMARK    6  A    between atoms: C_12  and  C_17
REMARK                            x       y       z     vdW  Elec       q    Type
REMARK                         _______ _______ _______ _____ _____    ______ ____
ROOT
ATOM      1  C   UNL     1       0.045   0.091   4.775  0.00  0.00    +0.096 A 
ATOM      2  C   UNL     1       1.251   0.542   5.327  0.00  0.00    +0.082 A 
ATOM      3  C   UNL     1       1.196   1.387   6.443  0.00  0.00    +0.056 A 
ATOM      4  N   UNL     1       0.017   1.725   6.931  0.00  0.00    -0.219 NA
ATOM      5  C   UNL     1      -1.103   1.277   6.380  0.00  0.00    +0.213 A 
ATOM      6  N   UNL     1      -1.093   0.480   5.319  0.00  0.00    -0.215 NA
ATOM      7  N   UNL     1      -2.314   1.655   6.921  0.00  0.00    -0.327 N 
ATOM      8  C   UNL     1       2.462   1.901   7.077  0.00  0.00    +0.066 C 
ATOM      9  H   UNL     1      -2.338   2.241   7.694  0.00  0.00    +0.145 HD
ATOM     10  H   UNL     1      -3.142   1.336   6.529  0.00  0.00    +0.145 HD
ENDROOT
BRANCH   2  11
ATOM     11  C   UNL     1       2.547   0.138   4.748  0.00  0.00    +0.245 C 
ATOM     12  O   UNL     1       3.058   0.809   3.873  0.00  0.00    -0.270 OA
ATOM     13  N   UNL     1       3.163  -0.977   5.189  0.00  0.00    -0.325 N 
ATOM     14  H   UNL     1       2.755  -1.513   5.887  0.00  0.00    +0.145 HD
ATOM     15  H   UNL     1       4.015  -1.243   4.809  0.00  0.00    +0.145 HD
ENDBRANCH   2  11
BRANCH   1  16
ATOM     16  C   UNL     1       0.047  -0.819   3.574  0.00  0.00    +0.285 C 
BRANCH  16  17
ATOM     17  O   UNL     1       0.025  -0.033   2.381  0.00  0.00    -0.486 OA
BRANCH  17  24
ATOM     18  C   UNL     1      -0.018   1.503   0.010  0.00  0.00    +0.047 C 
ATOM     19  C   UNL     1       0.002  -0.004   0.002  0.00  0.00    -0.008 A 
ATOM     20  C   UNL     1       0.006  -0.689  -1.198  0.00  0.00    +0.022 A 
ATOM     21  C   UNL     1       0.025  -2.072  -1.206  0.00  0.00    +0.018 A 
ATOM     22  C   UNL     1       0.040  -2.772  -0.013  0.00  0.00    +0.019 A 
ATOM     23  C   UNL     1       0.036  -2.092   1.189  0.00  0.00    +0.047 A 
ATOM     24  C   UNL     1       0.023  -0.705   1.199  0.00  0.00    +0.124 A 
ATOM     25 BR   UNL     1       0.029  -3.006  -2.850  0.00  0.00    -0.050 Br
ENDBRANCH  17  24
ENDBRANCH  16  17
ENDBRANCH   1  16
TORSDOF 4
