REMARK  Name = ZINC05610008
REMARK  4 active torsions:
REMARK  status: ('A' for Active; 'I' for Inactive)
REMARK    1  A    between atoms: C_1  and  C_2
REMARK    2  A    between atoms: C_2  and  C_3
REMARK    3  A    between atoms: C_10  and  N_25
REMARK    4  A    between atoms: C_11  and  C_23
REMARK                            x       y       z     vdW  Elec       q    Type
REMARK                         _______ _______ _______ _____ _____    ______ ____
ROOT
ATOM      1  C   UNL     1       0.731  -0.503   1.223  0.00  0.00    +0.044 A 
ATOM      2  C   UNL     1       0.198  -0.697   2.438  0.00  0.00    +0.061 A 
ATOM      3  C   UNL     1       1.219  -1.172   3.294  0.00  0.00    +0.245 A 
ATOM      4  N   UNL     1       2.318  -1.253   2.602  0.00  0.00    -0.135 NA
ATOM      5  N   UNL     1       2.039  -0.842   1.289  0.00  0.00    -0.278 N 
ATOM      6  H   UNL     1       2.674  -0.806   0.556  0.00  0.00    +0.189 HD
ATOM      7  O   UNL     1       0.984  -1.463   4.601  0.00  0.00    -0.421 OA
ATOM      8  C   UNL     1      -0.299  -1.542   5.006  0.00  0.00    +0.201 C 
ATOM      9  C   UNL     1      -1.357  -1.111   4.282  0.00  0.00    +0.110 C 
ATOM     10  C   UNL     1      -1.208  -0.485   2.924  0.00  0.00    +0.145 C 
ATOM     11  C   UNL     1      -1.560   0.968   2.953  0.00  0.00    +0.001 A 
ATOM     12  C   UNL     1      -1.018   2.026   3.651  0.00  0.00    +0.045 A 
ATOM     13  C   UNL     1      -1.592   3.278   3.445  0.00  0.00    +0.124 A 
ATOM     14  C   UNL     1      -2.655   3.448   2.579  0.00  0.00    +0.040 A 
ATOM     15  C   UNL     1      -3.204   2.387   1.875  0.00  0.00    +0.026 A 
ATOM     16  C   UNL     1      -2.638   1.127   2.074  0.00  0.00    +0.038 A 
ATOM     17  N   UNL     1      -2.983  -0.090   1.510  0.00  0.00    -0.284 N 
ATOM     18  C   UNL     1      -2.196  -1.093   1.953  0.00  0.00    +0.238 C 
ATOM     19  O   UNL     1      -2.268  -2.261   1.634  0.00  0.00    -0.274 OA
ATOM     20  F   UNL     1      -1.099   4.349   4.106  0.00  0.00    -0.205 F 
ATOM     21  H   UNL     1      -3.704  -0.207   0.872  0.00  0.00    +0.155 HD
ENDROOT
BRANCH   8  22
ATOM     22  N   UNL     1      -0.549  -2.097   6.236  0.00  0.00    -0.328 N 
ATOM     23  H   UNL     1       0.185  -2.417   6.783  0.00  0.00    +0.145 HD
ATOM     24  H   UNL     1      -1.461  -2.170   6.559  0.00  0.00    +0.145 HD
ENDBRANCH   8  22
BRANCH   1  26
ATOM     25  C   UNL     1      -0.019   1.526   0.010  0.00  0.00    +0.010 C 
ATOM     26  C   UNL     1       0.002  -0.004   0.002  0.00  0.00    +0.052 C 
ENDBRANCH   1  26
BRANCH   9  27
ATOM     27  C   UNL     1      -2.671  -1.258   4.831  0.00  0.00    +0.102 C 
ATOM     28  N   UNL     1      -3.713  -1.375   5.267  0.00  0.00    -0.191 NA
ENDBRANCH   9  27
TORSDOF 3
