REMARK  Name = ZINC05496580
REMARK  7 active torsions:
REMARK  status: ('A' for Active; 'I' for Inactive)
REMARK    1  A    between atoms: C_3  and  C_6
REMARK    2  A    between atoms: C_6  and  N_7
REMARK    3  A    between atoms: N_11  and  C1*_15
REMARK    4  A    between atoms: C2*_17  and  O2*_27
REMARK    5  A    between atoms: C3*_19  and  O3*_26
REMARK    6  A    between atoms: C4*_21  and  C5*_24
REMARK    7  A    between atoms: C5*_24  and  O5*_25
REMARK                            x       y       z     vdW  Elec       q    Type
REMARK                         _______ _______ _______ _____ _____    ______ ____
ROOT
ATOM      1  N   UNL     1      -1.592   3.028  -1.355  0.00  0.00    -0.324 N 
ATOM      2  C   UNL     1      -2.657   3.865  -1.596  0.00  0.00    +0.126 A 
ATOM      3  C   UNL     1      -3.077   4.115  -2.919  0.00  0.00    +0.061 A 
ATOM      4  C   UNL     1      -4.131   4.939  -3.128  0.00  0.00    +0.096 A 
ATOM      5  N   UNL     1      -4.751   5.512  -2.059  0.00  0.00    -0.270 N 
ATOM      6  C   UNL     1      -4.324   5.258  -0.808  0.00  0.00    +0.352 A 
ATOM      7  O   UNL     1      -4.890   5.780   0.137  0.00  0.00    -0.244 OA
ATOM      8  N   UNL     1      -3.292   4.446  -0.586  0.00  0.00    -0.178 NA
ATOM      9  H   UNL     1      -0.841   3.437  -1.873  0.00  0.00    +0.148 HD
ENDROOT
BRANCH   5  10
ATOM     10  C1* UNL     1      -5.889   6.410  -2.271  0.00  0.00    +0.255 C 
ATOM     11  C2* UNL     1      -5.483   7.872  -1.977  0.00  0.00    +0.195 C 
ATOM     12  C3* UNL     1      -5.097   8.440  -3.361  0.00  0.00    +0.178 C 
ATOM     13  C4* UNL     1      -5.315   7.255  -4.328  0.00  0.00    +0.177 C 
ATOM     14  O4* UNL     1      -6.278   6.408  -3.662  0.00  0.00    -0.346 OA
BRANCH  12  15
ATOM     15  O3* UNL     1      -5.949   9.533  -3.709  0.00  0.00    -0.386 OA
ATOM     16  H3* UNL     1      -5.751   9.928  -4.569  0.00  0.00    +0.210 HD
ENDBRANCH  12  15
BRANCH  11  17
ATOM     17  O2* UNL     1      -4.364   7.912  -1.090  0.00  0.00    -0.385 OA
ATOM     18  H2* UNL     1      -4.067   8.805  -0.871  0.00  0.00    +0.210 HD
ENDBRANCH  11  17
BRANCH  13  19
ATOM     19  C5* UNL     1      -5.873   7.752  -5.663  0.00  0.00    +0.190 C 
BRANCH  19  20
ATOM     20  O5* UNL     1      -5.958   6.660  -6.580  0.00  0.00    -0.392 OA
ATOM     21  H5* UNL     1      -6.305   6.903  -7.450  0.00  0.00    +0.210 HD
ENDBRANCH  19  20
ENDBRANCH  13  19
ENDBRANCH   5  10
BRANCH   1  22
ATOM     22  C   UNL     1      -1.156   2.776   0.021  0.00  0.00    +0.145 C 
BRANCH  22  25
ATOM     23  C   UNL     1       2.254   1.079  -0.061  0.00  0.00    +0.008 A 
ATOM     24  C   UNL     1       1.343   2.119  -0.060  0.00  0.00    +0.013 A 
ATOM     25  C   UNL     1       0.019   1.833   0.010  0.00  0.00    +0.007 A 
ATOM     26  S   UNL     1       0.030   0.049   0.078  0.00  0.00    -0.100 S 
ATOM     27  C   UNL     1       1.797  -0.195   0.009  0.00  0.00    +0.045 A 
ENDBRANCH  22  25
ENDBRANCH   1  22
TORSDOF 7
