REMARK  Name = ZINC50670220
REMARK  3 active torsions:
REMARK  status: ('A' for Active; 'I' for Inactive)
REMARK    1  A    between atoms: C_1  and  C_2
REMARK    2  A    between atoms: N_11  and  S_12
REMARK    3  A    between atoms: S_12  and  C_15
REMARK                            x       y       z     vdW  Elec       q    Type
REMARK                         _______ _______ _______ _____ _____    ______ ____
ROOT
ATOM      1  S   UNL     1       1.775   0.533   1.986  0.00  0.00    +0.063 S 
ATOM      2  O   UNL     1       1.167   1.812   1.866  0.00  0.00    -0.153 OA
ATOM      3  O   UNL     1       2.049  -0.065   3.246  0.00  0.00    -0.153 OA
ENDROOT
BRANCH   1  13
ATOM      4  C   UNL     1       0.115   1.430  -0.146  0.00  0.00    +0.031 C 
ATOM      5  C   UNL     1       0.091  -0.096  -0.047  0.00  0.00    +0.107 C 
ATOM      6  C   UNL     1      -1.352  -0.584   0.070  0.00  0.00    -0.019 A 
ATOM      7  C   UNL     1      -2.379  -0.138  -0.760  0.00  0.00    +0.013 A 
ATOM      8  C   UNL     1      -3.634  -0.617  -0.602  0.00  0.00    +0.046 A 
ATOM      9  S   UNL     1      -3.425  -1.751   0.762  0.00  0.00    -0.101 S 
ATOM     10  C   UNL     1      -1.688  -1.500   1.019  0.00  0.00    -0.004 A 
ATOM     11  C   UNL     1      -0.799  -2.135   2.037  0.00  0.00    +0.060 C 
ATOM     12  C   UNL     1       0.663  -1.917   1.619  0.00  0.00    +0.115 C 
ATOM     13  N   UNL     1       0.811  -0.529   1.158  0.00  0.00    -0.169 NA
ENDBRANCH   1  13
BRANCH   1  14
ATOM     14  C   UNL     1       3.311   0.622   1.127  0.00  0.00    +0.124 A 
ATOM     15  C   UNL     1       4.295  -0.332   1.349  0.00  0.00    +0.033 A 
ATOM     16  C   UNL     1       5.486  -0.226   0.653  0.00  0.00    +0.045 A 
ATOM     17  C   UNL     1       5.657   0.827  -0.239  0.00  0.00    +0.116 A 
ATOM     18  N   UNL     1       4.694   1.717  -0.423  0.00  0.00    -0.239 NA
ATOM     19  C   UNL     1       3.545   1.637   0.222  0.00  0.00    +0.141 A 
ATOM     20  N   UNL     1       6.849   0.947  -0.944  0.00  0.00    -0.343 N 
ATOM     21  H   UNL     1       7.557   0.297  -0.813  0.00  0.00    +0.144 HD
ATOM     22  H   UNL     1       6.972   1.679  -1.568  0.00  0.00    +0.144 HD
ENDBRANCH   1  14
TORSDOF 2
