REMARK  Name = ZINC41027078
REMARK  4 active torsions:
REMARK  status: ('A' for Active; 'I' for Inactive)
REMARK    1  A    between atoms: C_3  and  N_18
REMARK    2  A    between atoms: C_4  and  S_8
REMARK    3  A    between atoms: S_8  and  C_9
REMARK    4  A    between atoms: C_15  and  N_17
REMARK                            x       y       z     vdW  Elec       q    Type
REMARK                         _______ _______ _______ _____ _____    ______ ____
ROOT
ATOM      1  S   UNL     1       3.938  -0.839  -0.042  0.00  0.00    -0.048 S 
ENDROOT
BRANCH   1   2
ATOM      2  C   UNL     1       4.328  -1.056   1.663  0.00  0.00    +0.176 A 
ATOM      3  N   UNL     1       5.480  -1.696   2.008  0.00  0.00    -0.302 N 
ATOM      4  H   UNL     1       6.076  -2.026   1.317  0.00  0.00    +0.171 HD
ATOM      5  C   UNL     1       5.795  -1.871   3.308  0.00  0.00    +0.254 A 
ATOM      6  O   UNL     1       6.826  -2.442   3.627  0.00  0.00    -0.268 OA
ATOM      7  C   UNL     1       4.920  -1.386   4.286  0.00  0.00    +0.113 A 
ATOM      8  C   UNL     1       3.759  -0.742   3.882  0.00  0.00    +0.124 A 
ATOM      9  N   UNL     1       3.501  -0.593   2.578  0.00  0.00    -0.208 NA
BRANCH   8  10
ATOM     10  N   UNL     1       2.875  -0.252   4.823  0.00  0.00    -0.343 N 
ATOM     11  H   UNL     1       3.065  -0.358   5.768  0.00  0.00    +0.144 HD
ATOM     12  H   UNL     1       2.064   0.198   4.539  0.00  0.00    +0.144 HD
ENDBRANCH   8  10
ENDBRANCH   1   2
BRANCH   1  16
ATOM     13  C   UNL     1      -0.017   1.378   0.010  0.00  0.00    +0.003 A 
ATOM     14  C   UNL     1       1.169   2.090   0.002  0.00  0.00    +0.024 A 
ATOM     15  C   UNL     1       2.382   1.418  -0.013  0.00  0.00    +0.040 A 
ATOM     16  C   UNL     1       2.401   0.023  -0.021  0.00  0.00    +0.054 A 
ATOM     17  C   UNL     1       1.207  -0.683  -0.013  0.00  0.00    +0.057 A 
ATOM     18  C   UNL     1       0.002  -0.004   0.002  0.00  0.00    +0.021 A 
ATOM     19 CL   UNL     1       1.226  -2.419  -0.023  0.00  0.00    -0.082 Cl
BRANCH  15  20
ATOM     20  N   UNL     1       3.582   2.137  -0.022  0.00  0.00    -0.357 N 
ATOM     21  H   UNL     1       3.567   3.107  -0.017  0.00  0.00    +0.142 HD
ATOM     22  H   UNL     1       4.430   1.665  -0.033  0.00  0.00    +0.142 HD
ENDBRANCH  15  20
ENDBRANCH   1  16
TORSDOF 4
