REMARK  Name = ZINC31862604
REMARK  6 active torsions:
REMARK  status: ('A' for Active; 'I' for Inactive)
REMARK    1  A    between atoms: C_1  and  C_2
REMARK    2  A    between atoms: C_2  and  C_3
REMARK    3  A    between atoms: C_2  and  C_4
REMARK    4  A    between atoms: C_2  and  C_5
REMARK    5  A    between atoms: C_10  and  C_17
REMARK    6  A    between atoms: N_19  and  N_20
REMARK                            x       y       z     vdW  Elec       q    Type
REMARK                         _______ _______ _______ _____ _____    ______ ____
ROOT
ATOM      1  C   UNL     1       0.669  -0.625  -1.227  0.00  0.00    -0.004 C 
ATOM      2  C   UNL     1       0.437  -2.131  -1.207  0.00  0.00    +0.008 C 
ATOM      3  C   UNL     1       0.842  -2.739  -2.556  0.00  0.00    +0.033 C 
ATOM      4  C   UNL     1       2.054  -1.944  -3.035  0.00  0.00    -0.042 C 
ATOM      5  C   UNL     1       2.385  -1.762  -4.302  0.00  0.00    +0.069 C 
ATOM      6  C   UNL     1       3.565  -0.943  -4.652  0.00  0.00    +0.101 C 
ATOM      7  N   UNL     1       4.038  -0.669  -5.837  0.00  0.00    -0.292 NA
ATOM      8  S   UNL     1       4.187  -0.420  -3.062  0.00  0.00    -0.098 S 
ATOM      9  C   UNL     1       2.967  -1.288  -2.002  0.00  0.00    +0.080 C 
ATOM     10  C   UNL     1       2.149  -0.266  -1.219  0.00  0.00    +0.023 C 
ATOM     11  H   UNL     1       4.828  -0.113  -5.926  0.00  0.00    +0.187 HD
ENDROOT
BRANCH   1  13
ATOM     12  C   UNL     1       0.292   1.498   0.036  0.00  0.00    +0.011 C 
ATOM     13  C   UNL     1       0.002  -0.004   0.002  0.00  0.00    -0.035 C 
ATOM     14  C   UNL     1       0.557  -0.659   1.268  0.00  0.00    +0.011 C 
ATOM     15  C   UNL     1      -1.510  -0.230  -0.069  0.00  0.00    +0.011 C 
ENDBRANCH   1  13
BRANCH   5  16
ATOM     16  C   UNL     1       1.573  -2.379  -5.370  0.00  0.00    +0.260 C 
ATOM     17  O   UNL     1       0.603  -3.053  -5.084  0.00  0.00    -0.269 OA
ATOM     18  N   UNL     1       1.909  -2.195  -6.663  0.00  0.00    -0.249 N 
ATOM     19  H   UNL     1       2.683  -1.658  -6.891  0.00  0.00    +0.169 HD
BRANCH  18  20
ATOM     20  N   UNL     1       1.158  -2.766  -7.651  0.00  0.00    -0.254 NA
ATOM     21  H   UNL     1       0.191  -2.489  -7.576  0.00  0.00    +0.140 HD
ATOM     22  H   UNL     1       1.529  -2.542  -8.562  0.00  0.00    +0.140 HD
ENDBRANCH  18  20
ENDBRANCH   5  16
TORSDOF 3
