REMARK  Name = ZINC01501574
REMARK  8 active torsions:
REMARK  status: ('A' for Active; 'I' for Inactive)
REMARK    1  A    between atoms: C_1  and  C_2
REMARK    2  A    between atoms: C_5  and  C_8
REMARK    3  A    between atoms: C_8  and  C_9
REMARK    4  A    between atoms: C_8  and  C_16
REMARK    5  A    between atoms: C_8  and  O_29
REMARK    6  A    between atoms: C_12  and  C_15
REMARK    7  A    between atoms: N_18  and  N_19
REMARK    8  A    between atoms: C_20  and  C_22
REMARK                            x       y       z     vdW  Elec       q    Type
REMARK                         _______ _______ _______ _____ _____    ______ ____
ROOT
ATOM      1  C   UNL     1      -7.288   4.197   0.095  0.00  0.00    +0.194 C 
ENDROOT
BRANCH   1   6
ATOM      2  C   UNL     1     -10.018   6.703  -4.338  0.00  0.00    +0.044 C 
ATOM      3  C   UNL     1      -9.306   6.050  -3.182  0.00  0.00    -0.050 A 
ATOM      4  C   UNL     1      -9.344   6.632  -1.929  0.00  0.00    +0.004 A 
ATOM      5  C   UNL     1      -8.691   6.032  -0.869  0.00  0.00    +0.007 A 
ATOM      6  C   UNL     1      -8.000   4.850  -1.061  0.00  0.00    -0.003 A 
ATOM      7  C   UNL     1      -7.958   4.271  -2.316  0.00  0.00    +0.007 A 
ATOM      8  C   UNL     1      -8.615   4.868  -3.375  0.00  0.00    +0.004 A 
ENDBRANCH   1   6
BRANCH   1   9
ATOM      9  C   UNL     1      -8.131   3.068   0.631  0.00  0.00    -0.003 A 
ATOM     10  C   UNL     1      -8.559   2.063  -0.215  0.00  0.00    +0.007 A 
ATOM     11  C   UNL     1      -9.329   1.026   0.277  0.00  0.00    +0.004 A 
ATOM     12  C   UNL     1      -9.678   0.999   1.615  0.00  0.00    -0.050 A 
ATOM     13  C   UNL     1      -9.253   2.007   2.460  0.00  0.00    +0.004 A 
ATOM     14  C   UNL     1      -8.480   3.042   1.968  0.00  0.00    +0.007 A 
ATOM     15  C   UNL     1     -10.521  -0.129   2.151  0.00  0.00    +0.044 C 
ENDBRANCH   1   9
BRANCH   1  16
ATOM     16  C   UNL     1      -5.962   3.655  -0.373  0.00  0.00    +0.270 C 
ATOM     17  O   UNL     1      -5.867   2.494  -0.712  0.00  0.00    -0.270 OA
ATOM     18  N   UNL     1      -4.882   4.459  -0.416  0.00  0.00    -0.231 N 
ATOM     19  H   UNL     1      -4.958   5.388  -0.145  0.00  0.00    +0.173 HD
BRANCH  18  20
ATOM     20  N   UNL     1      -3.649   3.955  -0.851  0.00  0.00    -0.230 N 
ATOM     21  C   UNL     1      -2.569   4.760  -0.894  0.00  0.00    +0.263 C 
ATOM     22  O   UNL     1      -2.664   5.924  -0.554  0.00  0.00    -0.269 OA
ATOM     23  H   UNL     1      -3.573   3.027  -1.122  0.00  0.00    +0.173 HD
BRANCH  21  24
ATOM     24  C   UNL     1      -1.269   4.229  -1.353  0.00  0.00    +0.075 A 
ATOM     25  C   UNL     1      -1.147   2.892  -1.753  0.00  0.00    +0.017 A 
ATOM     26  C   UNL     1       0.093   2.443  -2.169  0.00  0.00    +0.021 A 
ATOM     27  C   UNL     1       1.161   3.321  -2.188  0.00  0.00    +0.112 A 
ATOM     28  N   UNL     1       1.018   4.577  -1.811  0.00  0.00    -0.243 NA
ATOM     29  C   UNL     1      -0.142   5.053  -1.402  0.00  0.00    +0.141 A 
ATOM     30 CL   UNL     1      -0.269   6.715  -0.919  0.00  0.00    -0.061 Cl
ENDBRANCH  21  24
ENDBRANCH  18  20
ENDBRANCH   1  16
BRANCH   1  31
ATOM     31  O   UNL     1      -7.070   5.161   1.127  0.00  0.00    -0.371 OA
ATOM     32  H   UNL     1      -6.615   4.809   1.904  0.00  0.00    +0.212 HD
ENDBRANCH   1  31
TORSDOF 6
