REMARK  Name = ZINC06111954
REMARK  5 active torsions:
REMARK  status: ('A' for Active; 'I' for Inactive)
REMARK    1  A    between atoms: C_3  and  C_6
REMARK    2  A    between atoms: C_6  and  N_7
REMARK    3  A    between atoms: C_11  and  C_13
REMARK    4  A    between atoms: C_13  and  S_14
REMARK    5  A    between atoms: S_14  and  C_15
REMARK                            x       y       z     vdW  Elec       q    Type
REMARK                         _______ _______ _______ _____ _____    ______ ____
ROOT
ATOM      1  C   UNL     1      -6.226  -0.200  -3.435  0.00  0.00    +0.172 C 
ENDROOT
BRANCH   1   6
ATOM      2  N   UNL     1      -7.880  -1.290  -7.815  0.00  0.00    -0.292 N 
ATOM      3  C   UNL     1      -6.841  -0.968  -7.019  0.00  0.00    +0.306 C 
ATOM      4  O   UNL     1      -5.724  -0.869  -7.487  0.00  0.00    -0.252 OA
ATOM      5  N   UNL     1      -7.041  -0.757  -5.703  0.00  0.00    -0.239 N 
ATOM      6  C   UNL     1      -6.002  -0.436  -4.906  0.00  0.00    +0.231 C 
ATOM      7  O   UNL     1      -4.888  -0.337  -5.373  0.00  0.00    -0.274 OA
ATOM      8  H   UNL     1      -8.771  -1.369  -7.441  0.00  0.00    +0.151 HD
ATOM      9  H   UNL     1      -7.933  -0.837  -5.329  0.00  0.00    +0.159 HD
BRANCH   2  10
ATOM     10  C   UNL     1      -7.662  -1.519  -9.246  0.00  0.00    +0.180 C 
BRANCH  10  13
ATOM     11  C   UNL     1     -10.925  -1.729 -10.947  0.00  0.00    +0.041 A 
ATOM     12  C   UNL     1      -9.835  -0.980 -10.445  0.00  0.00    +0.046 A 
ATOM     13  C   UNL     1      -8.974  -1.861  -9.905  0.00  0.00    +0.122 A 
ATOM     14  O   UNL     1      -9.478  -3.096 -10.057  0.00  0.00    -0.466 OA
ATOM     15  C   UNL     1     -10.664  -3.022 -10.684  0.00  0.00    +0.195 A 
ENDBRANCH  10  13
ENDBRANCH   2  10
ENDBRANCH   1   6
BRANCH   1  16
ATOM     16  S   UNL     1      -4.651   0.210  -2.643  0.00  0.00    -0.096 S 
BRANCH  16  17
ATOM     17  C   UNL     1      -5.192   0.428  -0.980  0.00  0.00    +0.109 A 
ATOM     18  C   UNL     1      -4.291   0.773   0.070  0.00  0.00    +0.043 A 
ATOM     19  C   UNL     1      -2.859   0.992  -0.039  0.00  0.00    -0.025 A 
ATOM     20  C   UNL     1      -2.206   1.312   1.102  0.00  0.00    -0.004 A 
ATOM     21  S   UNL     1      -3.455   1.338   2.364  0.00  0.00    -0.073 S 
ATOM     22  C   UNL     1      -4.847   0.921   1.366  0.00  0.00    +0.113 A 
ATOM     23  N   UNL     1      -6.129   0.756   1.628  0.00  0.00    -0.228 NA
ATOM     24  C   UNL     1      -6.912   0.435   0.605  0.00  0.00    +0.223 A 
ATOM     25  N   UNL     1      -6.468   0.281  -0.626  0.00  0.00    -0.229 NA
ATOM     26  C   UNL     1      -0.738   1.584   1.266  0.00  0.00    +0.043 C 
ATOM     27  C   UNL     1      -0.013   1.086   0.008  0.00  0.00    +0.005 C 
ATOM     28  C   UNL     1      -0.760   1.597  -1.227  0.00  0.00    +0.005 C 
ATOM     29  C   UNL     1      -2.101   0.874  -1.358  0.00  0.00    +0.037 C 
ENDBRANCH  16  17
ENDBRANCH   1  16
TORSDOF 5
