REMARK  Name = ZINC13644811
REMARK  10 active torsions:
REMARK  status: ('A' for Active; 'I' for Inactive)
REMARK    1  A    between atoms: C_1  and  N_52
REMARK    2  A    between atoms: C_2  and  N_52
REMARK    3  A    between atoms: C_3  and  C_4
REMARK    4  A    between atoms: C_3  and  N_52
REMARK    5  A    between atoms: C_7  and  C_10
REMARK    6  A    between atoms: C_15  and  N_21
REMARK    7  A    between atoms: C_16  and  C_19
REMARK    8  A    between atoms: N_21  and  C_22
REMARK    9  A    between atoms: C_24  and  O_30
REMARK   10  A    between atoms: O_30  and  C_31
REMARK                            x       y       z     vdW  Elec       q    Type
REMARK                         _______ _______ _______ _____ _____    ______ ____
ROOT
ATOM      1  C   UNL     1      -2.395   5.080  -0.163  0.00  0.00    +0.022 A 
ATOM      2  C   UNL     1      -2.440   3.729  -0.016  0.00  0.00    +0.044 A 
ATOM      3  C   UNL     1      -1.247   2.991   0.075  0.00  0.00    +0.080 A 
ATOM      4  C   UNL     1      -0.060   3.752   0.002  0.00  0.00    +0.060 A 
ATOM      5  S   UNL     1      -0.643   5.418  -0.185  0.00  0.00    -0.085 S 
ATOM      6  C   UNL     1       1.191   3.167   0.076  0.00  0.00    +0.066 A 
ATOM      7  C   UNL     1       1.254   1.765   0.229  0.00  0.00    +0.092 A 
ATOM      8  C   UNL     1       0.047   1.056   0.296  0.00  0.00    +0.132 A 
ATOM      9  N   UNL     1      -1.112   1.650   0.217  0.00  0.00    -0.253 NA
ENDROOT
BRANCH   1  13
ATOM     10  C   UNL     1      -5.626   7.818  -0.489  0.00  0.00    -0.064 A 
ATOM     11  C   UNL     1      -4.323   8.282  -0.529  0.00  0.00    +0.002 A 
ATOM     12  C   UNL     1      -3.269   7.398  -0.423  0.00  0.00    +0.009 A 
ATOM     13  C   UNL     1      -3.520   6.033  -0.276  0.00  0.00    -0.011 A 
ATOM     14  C   UNL     1      -4.836   5.571  -0.242  0.00  0.00    +0.009 A 
ATOM     15  C   UNL     1      -5.881   6.466  -0.344  0.00  0.00    +0.002 A 
BRANCH  10  16
ATOM     16  C   UNL     1      -6.772   8.789  -0.606  0.00  0.00    -0.044 C 
BRANCH  16  19
ATOM     17  C   UNL     1      -8.389   9.703  -2.159  0.00  0.00    -0.096 C 
ATOM     18  C   UNL     1      -6.048   9.604  -2.768  0.00  0.00    -0.096 C 
ATOM     19  N   UNL     1      -7.137   8.928  -2.031  0.00  0.00    +0.379 N 
ATOM     20  H   UNL     1      -7.281   7.994  -2.432  0.00  0.00    -0.082 HD
ENDBRANCH  16  19
ENDBRANCH  10  16
ENDBRANCH   1  13
BRANCH   7  21
ATOM     21  C   UNL     1       2.513   1.088   0.313  0.00  0.00    +0.103 C 
ATOM     22  N   UNL     1       3.511   0.551   0.380  0.00  0.00    -0.191 NA
ENDBRANCH   7  21
BRANCH   6  23
ATOM     23  N   UNL     1       2.345   3.932   0.002  0.00  0.00    -0.311 N 
ATOM     24  H   UNL     1       3.195   3.510  -0.200  0.00  0.00    +0.152 HD
BRANCH  23  25
ATOM     25  C   UNL     1       2.284   5.312   0.220  0.00  0.00    +0.054 A 
ATOM     26  C   UNL     1       2.442   6.191  -0.844  0.00  0.00    +0.071 A 
ATOM     27  C   UNL     1       2.375   7.558  -0.625  0.00  0.00    +0.140 A 
ATOM     28  C   UNL     1       2.163   8.046   0.657  0.00  0.00    +0.084 A 
ATOM     29  C   UNL     1       2.012   7.170   1.716  0.00  0.00    +0.045 A 
ATOM     30  C   UNL     1       2.072   5.806   1.502  0.00  0.00    +0.064 A 
ATOM     31 CL   UNL     1       1.884   4.709   2.834  0.00  0.00    -0.082 Cl
ATOM     32 CL   UNL     1       2.087   9.759   0.931  0.00  0.00    -0.080 Cl
BRANCH  27  33
ATOM     33  O   UNL     1       2.522   8.420  -1.666  0.00  0.00    -0.494 OA
ATOM     34  C   UNL     1       2.627   7.849  -2.972  0.00  0.00    +0.277 C 
ENDBRANCH  27  33
ENDBRANCH  23  25
ENDBRANCH   6  23
TORSDOF 7
