REMARK  Name = ZINC37375984
REMARK  3 active torsions:
REMARK  status: ('A' for Active; 'I' for Inactive)
REMARK    1  A    between atoms: C_6  and  S_7
REMARK    2  A    between atoms: S_7  and  N_10
REMARK    3  A    between atoms: C_14  and  N_17
REMARK                            x       y       z     vdW  Elec       q    Type
REMARK                         _______ _______ _______ _____ _____    ______ ____
ROOT
ATOM      1  S   UNL     1      -1.512  -0.905   0.012  0.00  0.00    +0.101 S 
ATOM      2  O   UNL     1      -1.219  -2.186   0.553  0.00  0.00    -0.146 OA
ATOM      3  O   UNL     1      -2.492  -0.046   0.577  0.00  0.00    -0.146 OA
ENDROOT
BRANCH   1   9
ATOM      4  C   UNL     1      -0.017   1.378   0.010  0.00  0.00    +0.030 A 
ATOM      5  C   UNL     1       1.171   2.086   0.002  0.00  0.00    +0.023 A 
ATOM      6  C   UNL     1       2.378   1.412  -0.013  0.00  0.00    +0.059 A 
ATOM      7  C   UNL     1       2.397   0.027  -0.021  0.00  0.00    +0.061 A 
ATOM      8  C   UNL     1       1.208  -0.680  -0.013  0.00  0.00    +0.050 A 
ATOM      9  C   UNL     1       0.002  -0.004   0.002  0.00  0.00    +0.114 A 
ATOM     10 CL   UNL     1       3.912  -0.821  -0.040  0.00  0.00    -0.082 Cl
ATOM     11 CL   UNL     1       3.869   2.301  -0.023  0.00  0.00    -0.082 Cl
ENDBRANCH   1   9
BRANCH   1  12
ATOM     12  N   UNL     1      -1.948  -1.147  -1.567  0.00  0.00    -0.111 NA
ATOM     13  C   UNL     1      -3.056  -1.803  -1.852  0.00  0.00    +0.153 A 
ATOM     14  C   UNL     1      -3.428  -2.016  -3.199  0.00  0.00    +0.049 A 
ATOM     15  C   UNL     1      -4.572  -2.695  -3.475  0.00  0.00    +0.028 A 
ATOM     16  C   UNL     1      -5.371  -3.175  -2.418  0.00  0.00    +0.041 A 
ATOM     17  C   UNL     1      -5.001  -2.963  -1.132  0.00  0.00    +0.107 A 
ATOM     18  N   UNL     1      -3.849  -2.287  -0.842  0.00  0.00    -0.343 N 
ATOM     19  H   UNL     1      -3.593  -2.144   0.083  0.00  0.00    +0.167 HD
BRANCH  16  20
ATOM     20  N   UNL     1      -6.554  -3.877  -2.698  0.00  0.00    -0.357 N 
ATOM     21  H   UNL     1      -6.821  -4.029  -3.618  0.00  0.00    +0.142 HD
ATOM     22  H   UNL     1      -7.105  -4.208  -1.972  0.00  0.00    +0.142 HD
ENDBRANCH  16  20
ENDBRANCH   1  12
TORSDOF 3
