REMARK  Name = ZINC39918720
REMARK  11 active torsions:
REMARK  status: ('A' for Active; 'I' for Inactive)
REMARK    1  A    between atoms: C_1  and  C_2
REMARK    2  A    between atoms: N_8  and  C_9
REMARK    3  A    between atoms: C_9  and  C_10
REMARK    4  A    between atoms: C_10  and  O_11
REMARK    5  A    between atoms: O_11  and  C_12
REMARK    6  A    between atoms: N_20  and  C_23
REMARK    7  A    between atoms: C_23  and  C_24
REMARK    8  A    between atoms: C_24  and  C_25
REMARK    9  A    between atoms: C_24  and  C_26
REMARK   10  A    between atoms: C_27  and  C_31
REMARK   11  A    between atoms: C_28  and  N_30
REMARK                            x       y       z     vdW  Elec       q    Type
REMARK                         _______ _______ _______ _____ _____    ______ ____
ROOT
ATOM      1  C   UNL     1      -0.018   1.503   0.010  0.00  0.00    +0.064 C 
ATOM      2  C   UNL     1       0.002  -0.004   0.002  0.00  0.00    +0.023 A 
ATOM      3  C   UNL     1       0.005  -0.663  -1.176  0.00  0.00    +0.068 A 
ATOM      4  C   UNL     1       0.025  -2.074  -1.190  0.00  0.00    +0.142 A 
ATOM      5  C   UNL     1       0.042  -2.753   0.011  0.00  0.00    +0.084 A 
ATOM      6  C   UNL     1       0.038  -2.026   1.208  0.00  0.00    +0.260 A 
ATOM      7  O   UNL     1       0.053  -2.614   2.278  0.00  0.00    -0.267 OA
ATOM      8  N   UNL     1       0.022  -0.680   1.180  0.00  0.00    -0.310 N 
ATOM      9  C   UNL     1       0.067  -4.254   0.038  0.00  0.00    +0.147 C 
ATOM     10  C   UNL     1      -1.250  -4.802   0.494  0.00  0.00    -0.001 A 
ATOM     11  C   UNL     1      -2.515  -4.702  -0.043  0.00  0.00    +0.007 A 
ATOM     12  C   UNL     1      -3.543  -5.341   0.641  0.00  0.00    +0.000 A 
ATOM     13  C   UNL     1      -3.304  -6.043   1.805  0.00  0.00    +0.002 A 
ATOM     14  C   UNL     1      -2.035  -6.149   2.351  0.00  0.00    +0.024 A 
ATOM     15  C   UNL     1      -0.994  -5.511   1.673  0.00  0.00    +0.041 A 
ATOM     16  N   UNL     1       0.352  -5.452   1.988  0.00  0.00    -0.270 N 
ATOM     17  C   UNL     1       1.052  -4.735   1.084  0.00  0.00    +0.240 C 
ATOM     18  O   UNL     1       2.244  -4.516   1.106  0.00  0.00    -0.274 OA
ATOM     19  C   UNL     1       0.442  -4.803  -1.308  0.00  0.00    +0.110 C 
ATOM     20  C   UNL     1       0.401  -4.025  -2.416  0.00  0.00    +0.199 C 
ATOM     21  O   UNL     1       0.025  -2.736  -2.366  0.00  0.00    -0.441 OA
ENDROOT
BRANCH  20  22
ATOM     22  N   UNL     1       0.756  -4.569  -3.625  0.00  0.00    -0.328 N 
ATOM     23  H   UNL     1       1.030  -5.498  -3.678  0.00  0.00    +0.145 HD
ATOM     24  H   UNL     1       0.732  -4.025  -4.428  0.00  0.00    +0.145 HD
ENDBRANCH  20  22
BRANCH  19  25
ATOM     25  C   UNL     1       0.849  -6.172  -1.422  0.00  0.00    +0.102 C 
ATOM     26  N   UNL     1       1.172  -7.257  -1.512  0.00  0.00    -0.191 NA
ENDBRANCH  19  25
BRANCH   8  27
ATOM     27  C   UNL     1       0.022   0.067   2.441  0.00  0.00    +0.153 C 
BRANCH  27  28
ATOM     28  C   UNL     1      -1.421   0.304   2.892  0.00  0.00    +0.181 C 
BRANCH  28  29
ATOM     29  O   UNL     1      -2.038  -0.949   3.194  0.00  0.00    -0.381 OA
ATOM     30  C   UNL     1      -3.395  -0.838   3.628  0.00  0.00    +0.194 C 
ENDBRANCH  28  29
ENDBRANCH  27  28
ENDBRANCH   8  27
BRANCH  16  31
ATOM     31  C   UNL     1       0.948  -6.094   3.162  0.00  0.00    +0.116 C 
BRANCH  31  32
ATOM     32  C   UNL     1       1.388  -7.514   2.800  0.00  0.00    +0.001 C 
ATOM     33  C   UNL     1       2.509  -7.451   1.761  0.00  0.00    +0.009 C 
ATOM     34  C   UNL     1       1.895  -8.226   4.056  0.00  0.00    +0.009 C 
ENDBRANCH  31  32
ENDBRANCH  16  31
TORSDOF 7
