REMARK  Name = ZINC21999930
REMARK  5 active torsions:
REMARK  status: ('A' for Active; 'I' for Inactive)
REMARK    1  A    between atoms: N_9  and  C1*_10
REMARK    2  A    between atoms: C2*_12  and  O2*_22
REMARK    3  A    between atoms: C3*_14  and  O3*_21
REMARK    4  A    between atoms: C4*_16  and  C5*_19
REMARK    5  A    between atoms: C5*_19  and  O5*_20
REMARK                            x       y       z     vdW  Elec       q    Type
REMARK                         _______ _______ _______ _____ _____    ______ ____
ROOT
ATOM      1  C1* UNL     1      -0.811   1.623  -1.200  0.00  0.00    +0.255 C 
ATOM      2  C2* UNL     1      -0.013   1.086   0.008  0.00  0.00    +0.195 C 
ATOM      3  C3* UNL     1      -0.788   1.610   1.237  0.00  0.00    +0.178 C 
ATOM      4  C4* UNL     1      -1.968   2.402   0.623  0.00  0.00    +0.177 C 
ATOM      5  O4* UNL     1      -1.513   2.779  -0.694  0.00  0.00    -0.346 OA
ENDROOT
BRANCH   1  14
ATOM      6  C   UNL     1       0.070   1.331  -3.469  0.00  0.00    +0.118 A 
ATOM      7  C   UNL     1       0.909   1.689  -4.465  0.00  0.00    +0.121 A 
ATOM      8  C   UNL     1       1.804   2.767  -4.257  0.00  0.00    +0.272 A 
ATOM      9  O   UNL     1       2.570   3.109  -5.141  0.00  0.00    -0.266 OA
ATOM     10  N   UNL     1       1.801   3.411  -3.073  0.00  0.00    -0.274 N 
ATOM     11  H   UNL     1       2.494   4.247  -2.899  0.00  0.00    +0.173 HD
ATOM     12  C   UNL     1       0.951   3.036  -2.099  0.00  0.00    +0.331 A 
ATOM     13  O   UNL     1       0.956   3.630  -1.038  0.00  0.00    -0.246 OA
ATOM     14  N   UNL     1       0.099   2.011  -2.281  0.00  0.00    -0.270 N 
ATOM     15 CL   UNL     1       0.889   0.841  -5.980  0.00  0.00    -0.076 Cl
ENDBRANCH   1  14
BRANCH   3  16
ATOM     16  O3* UNL     1       0.040   2.470   2.022  0.00  0.00    -0.386 OA
ATOM     17  H3* UNL     1      -0.358   2.931   2.938  0.00  0.00    +0.210 HD
ENDBRANCH   3  16
BRANCH   2  18
ATOM     18  O2* UNL     1       1.319   1.603  -0.002  0.00  0.00    -0.385 OA
ATOM     19  H2* UNL     1       2.025   1.320   0.792  0.00  0.00    +0.210 HD
ENDBRANCH   2  18
BRANCH   4  20
ATOM     20  C5* UNL     1      -2.265   3.647   1.461  0.00  0.00    +0.190 C 
BRANCH  20  21
ATOM     21  O5* UNL     1      -3.383   4.341   0.903  0.00  0.00    -0.392 OA
ATOM     22  H5* UNL     1      -3.746   5.267   1.373  0.00  0.00    +0.210 HD
ENDBRANCH  20  21
ENDBRANCH   4  20
TORSDOF 5
