REMARK  Name = ZINC04327243
REMARK  6 active torsions:
REMARK  status: ('A' for Active; 'I' for Inactive)
REMARK    1  A    between atoms: C_1  and  C_2
REMARK    2  A    between atoms: C_2  and  C_31
REMARK    3  A    between atoms: N_16  and  C_19
REMARK    4  A    between atoms: C_19  and  N_58
REMARK    5  A    between atoms: C_25  and  C_29
REMARK    6  A    between atoms: C_26  and  N_28
REMARK                            x       y       z     vdW  Elec       q    Type
REMARK                         _______ _______ _______ _____ _____    ______ ____
ROOT
ATOM      1  C   UNL     1       1.746  -2.908   3.126  0.00  0.00    +0.012 C 
ATOM      2  C   UNL     1       2.432  -3.520   1.903  0.00  0.00    -0.021 C 
ATOM      3  C   UNL     1       2.611  -2.450   0.824  0.00  0.00    +0.081 C 
ATOM      4  C   UNL     1       1.260  -1.924   0.400  0.00  0.00    +0.116 C 
ATOM      5  C   UNL     1       0.172  -2.718   0.433  0.00  0.00    +0.058 C 
ATOM      6  C   UNL     1       0.256  -4.056   0.863  0.00  0.00    +0.165 C 
ATOM      7  O   UNL     1      -0.742  -4.749   0.855  0.00  0.00    -0.292 OA
ATOM      8  C   UNL     1       1.559  -4.644   1.331  0.00  0.00    +0.086 C 
ATOM      9  C   UNL     1      -1.172  -2.185   0.011  0.00  0.00    +0.144 C 
ATOM     10  C   UNL     1      -1.559  -2.724  -1.331  0.00  0.00    -0.001 A 
ATOM     11  C   UNL     1      -0.972  -2.594  -2.571  0.00  0.00    +0.007 A 
ATOM     12  C   UNL     1      -1.598  -3.232  -3.636  0.00  0.00    +0.000 A 
ATOM     13  C   UNL     1      -2.755  -3.962  -3.456  0.00  0.00    +0.002 A 
ATOM     14  C   UNL     1      -3.352  -4.097  -2.212  0.00  0.00    +0.024 A 
ATOM     15  C   UNL     1      -2.733  -3.461  -1.135  0.00  0.00    +0.039 A 
ATOM     16  N   UNL     1      -3.104  -3.429   0.198  0.00  0.00    -0.287 N 
ATOM     17  C   UNL     1      -2.245  -2.704   0.945  0.00  0.00    +0.239 C 
ATOM     18  O   UNL     1      -2.319  -2.506   2.139  0.00  0.00    -0.274 OA
ATOM     19  C   UNL     1      -1.171  -0.685   0.015  0.00  0.00    +0.110 C 
ATOM     20  C   UNL     1       0.002  -0.004   0.002  0.00  0.00    +0.199 C 
ATOM     21  O   UNL     1       1.181  -0.645  -0.013  0.00  0.00    -0.445 OA
ATOM     22  C   UNL     1       3.796  -4.083   2.306  0.00  0.00    +0.012 C 
ENDROOT
BRANCH  20  23
ATOM     23  N   UNL     1      -0.017   1.369   0.010  0.00  0.00    -0.328 N 
ATOM     24  H   UNL     1       0.817   1.865   0.004  0.00  0.00    +0.145 HD
ATOM     25  H   UNL     1      -0.863   1.842   0.016  0.00  0.00    +0.145 HD
ENDBRANCH  20  23
BRANCH  19  26
ATOM     26  C   UNL     1      -2.412   0.031   0.029  0.00  0.00    +0.102 C 
ATOM     27  N   UNL     1      -3.396   0.598   0.040  0.00  0.00    -0.191 NA
ENDBRANCH  19  26
BRANCH  16  28
ATOM     28  C   UNL     1      -4.290  -4.102   0.734  0.00  0.00    +0.038 C 
BRANCH  28  34
ATOM     29  C   UNL     1      -3.911  -6.379  -0.001  0.00  0.00    -0.048 C 
ATOM     30  C   UNL     1      -3.478  -7.771   0.467  0.00  0.00    +0.141 C 
ATOM     31  O   UNL     1      -4.363  -8.218   1.498  0.00  0.00    -0.383 OA
ATOM     32  C   UNL     1      -4.408  -7.352   2.635  0.00  0.00    +0.141 C 
ATOM     33  C   UNL     1      -4.851  -5.956   2.188  0.00  0.00    -0.048 C 
ATOM     34  N   UNL     1      -3.908  -5.466   1.161  0.00  0.00    +0.393 N 
ATOM     35  H   UNL     1      -2.962  -5.438   1.561  0.00  0.00    -0.079 HD
ENDBRANCH  28  34
ENDBRANCH  16  28
TORSDOF 4
