REMARK  Name = ZINC61122483
REMARK  4 active torsions:
REMARK  status: ('A' for Active; 'I' for Inactive)
REMARK    1  A    between atoms: C_1  and  O_2
REMARK    2  A    between atoms: O_2  and  C_3
REMARK    3  A    between atoms: C_3  and  C_4
REMARK    4  A    between atoms: C_6  and  N_17
REMARK                            x       y       z     vdW  Elec       q    Type
REMARK                         _______ _______ _______ _____ _____    ______ ____
ROOT
ATOM      1  C   UNL     1       0.423  -2.095  -1.162  0.00  0.00    +0.069 A 
ATOM      2  C   UNL     1      -0.200  -2.687  -0.072  0.00  0.00    +0.049 A 
ATOM      3  C   UNL     1      -0.047  -4.047   0.152  0.00  0.00    +0.038 A 
ATOM      4  C   UNL     1       0.751  -4.782  -0.756  0.00  0.00    +0.059 A 
ATOM      5  C   UNL     1       1.353  -4.104  -1.843  0.00  0.00    +0.079 A 
ATOM      6  N   UNL     1       1.157  -2.789  -2.001  0.00  0.00    -0.249 NA
ATOM      7  C   UNL     1       2.146  -4.830  -2.747  0.00  0.00    +0.069 A 
ATOM      8  C   UNL     1       2.325  -6.170  -2.567  0.00  0.00    +0.163 A 
ATOM      9  C   UNL     1       1.731  -6.837  -1.495  0.00  0.00    +0.194 A 
ATOM     10  C   UNL     1       0.954  -6.162  -0.598  0.00  0.00    +0.172 A 
ATOM     11  F   UNL     1       0.384  -6.818   0.437  0.00  0.00    -0.202 F 
ATOM     12  F   UNL     1       1.927  -8.165  -1.343  0.00  0.00    -0.199 F 
ATOM     13  F   UNL     1       3.089  -6.862  -3.441  0.00  0.00    -0.202 F 
ENDROOT
BRANCH   3  14
ATOM     14  N   UNL     1      -0.656  -4.667   1.232  0.00  0.00    -0.357 N 
ATOM     15  H   UNL     1      -0.998  -4.134   1.968  0.00  0.00    +0.142 HD
ATOM     16  H   UNL     1      -0.742  -5.633   1.252  0.00  0.00    +0.142 HD
ENDBRANCH   3  14
BRANCH   1  17
ATOM     17  C   UNL     1       0.248  -0.617  -1.393  0.00  0.00    +0.214 C 
BRANCH  17  19
ATOM     18  C   UNL     1      -0.813   1.335  -0.491  0.00  0.00    +0.194 C 
ATOM     19  O   UNL     1      -0.582  -0.070  -0.366  0.00  0.00    -0.377 OA
ENDBRANCH  17  19
ENDBRANCH   1  17
TORSDOF 3
