REMARK  Name = ZINC41069931
REMARK  4 active torsions:
REMARK  status: ('A' for Active; 'I' for Inactive)
REMARK    1  A    between atoms: N_7  and  S_10
REMARK    2  A    between atoms: S_10  and  C_13
REMARK    3  A    between atoms: C_18  and  N_19
REMARK    4  A    between atoms: N_19  and  N_20
REMARK                            x       y       z     vdW  Elec       q    Type
REMARK                         _______ _______ _______ _____ _____    ______ ____
ROOT
ATOM      1  S   UNL     1      -1.729  -3.094  -1.417  0.00  0.00    +0.064 S 
ATOM      2  O   UNL     1      -1.472  -4.475  -1.208  0.00  0.00    -0.153 OA
ATOM      3  O   UNL     1      -3.039  -2.546  -1.361  0.00  0.00    -0.153 OA
ENDROOT
BRANCH   1  10
ATOM      4  C   UNL     1       0.256   1.301  -0.004  0.00  0.00    +0.013 A 
ATOM      5  C   UNL     1       1.458   1.921  -0.011  0.00  0.00    +0.046 A 
ATOM      6  S   UNL     1       2.587   0.536  -0.018  0.00  0.00    -0.101 S 
ATOM      7  C   UNL     1       1.375  -0.759  -0.013  0.00  0.00    -0.004 A 
ATOM      8  C   UNL     1       0.190  -0.091  -0.003  0.00  0.00    -0.021 A 
ATOM      9  C   UNL     1      -1.126  -0.867   0.013  0.00  0.00    +0.145 C 
ATOM     10  N   UNL     1      -0.825  -2.270  -0.300  0.00  0.00    -0.172 NA
ATOM     11  C   UNL     1       0.291  -2.933   0.391  0.00  0.00    +0.115 C 
ATOM     12  C   UNL     1       1.597  -2.237  -0.023  0.00  0.00    +0.060 C 
ENDBRANCH   1  10
BRANCH   1  13
ATOM     13  C   UNL     1      -1.083  -2.695  -3.007  0.00  0.00    +0.147 A 
ATOM     14  C   UNL     1      -1.831  -1.948  -3.900  0.00  0.00    +0.048 A 
ATOM     15  C   UNL     1      -1.282  -1.657  -5.142  0.00  0.00    +0.038 A 
ATOM     16  C   UNL     1      -0.017  -2.119  -5.448  0.00  0.00    +0.128 A 
ATOM     17  N   UNL     1       0.673  -2.830  -4.576  0.00  0.00    -0.236 NA
ATOM     18  C   UNL     1       0.187  -3.122  -3.379  0.00  0.00    +0.159 A 
ATOM     19 BR   UNL     1      -2.258  -0.640  -6.403  0.00  0.00    -0.049 Br
BRANCH  18  20
ATOM     20  N   UNL     1       0.951  -3.869  -2.489  0.00  0.00    -0.266 N 
ATOM     21  H   UNL     1       0.569  -4.156  -1.645  0.00  0.00    +0.167 HD
BRANCH  20  22
ATOM     22  N   UNL     1       2.239  -4.198  -2.804  0.00  0.00    -0.255 NA
ATOM     23  H   UNL     1       2.783  -3.373  -3.009  0.00  0.00    +0.140 HD
ATOM     24  H   UNL     1       2.664  -4.738  -2.065  0.00  0.00    +0.140 HD
ENDBRANCH  20  22
ENDBRANCH  18  20
ENDBRANCH   1  13
TORSDOF 4
