REMARK  Name = ZINC40713944
REMARK  3 active torsions:
REMARK  status: ('A' for Active; 'I' for Inactive)
REMARK    1  A    between atoms: C_5  and  O_7
REMARK    2  A    between atoms: O_7  and  C_8
REMARK    3  A    between atoms: C_9  and  N_15
REMARK                            x       y       z     vdW  Elec       q    Type
REMARK                         _______ _______ _______ _____ _____    ______ ____
ROOT
ATOM      1  C   UNL     1       0.051  -2.696   0.091  0.00  0.00    +0.242 A 
ATOM      2  C   UNL     1       0.040  -4.087   0.199  0.00  0.00    +0.088 A 
ATOM      3  C   UNL     1      -1.179  -4.743   0.314  0.00  0.00    +0.045 A 
ATOM      4  C   UNL     1      -2.342  -3.983   0.316  0.00  0.00    +0.038 A 
ATOM      5  C   UNL     1      -2.252  -2.609   0.206  0.00  0.00    +0.130 A 
ATOM      6  N   UNL     1      -1.079  -2.011   0.104  0.00  0.00    -0.218 NA
ATOM      7 BR   UNL     1      -4.030  -4.820   0.469  0.00  0.00    -0.049 Br
ENDROOT
BRANCH   2   8
ATOM      8  N   UNL     1       1.238  -4.810   0.191  0.00  0.00    -0.354 N 
ATOM      9  H   UNL     1       2.085  -4.345   0.110  0.00  0.00    +0.142 HD
ATOM     10  H   UNL     1       1.221  -5.777   0.266  0.00  0.00    +0.142 HD
ENDBRANCH   2   8
BRANCH   1  11
ATOM     11  O   UNL     1       1.234  -2.039  -0.021  0.00  0.00    -0.435 OA
BRANCH  11  16
ATOM     12  C   UNL     1       1.157   1.383  -1.254  0.00  0.00    +0.004 A 
ATOM     13  C   UNL     1       1.165   2.086  -0.063  0.00  0.00    +0.001 A 
ATOM     14  C   UNL     1       1.196   1.409   1.142  0.00  0.00    +0.019 A 
ATOM     15  C   UNL     1       1.219   0.027   1.160  0.00  0.00    +0.060 A 
ATOM     16  C   UNL     1       1.212  -0.680  -0.035  0.00  0.00    +0.144 A 
ATOM     17  C   UNL     1       1.181   0.002  -1.242  0.00  0.00    +0.047 A 
ATOM     18 BR   UNL     1       1.262  -0.898   2.808  0.00  0.00    -0.046 Br
ENDBRANCH  11  16
ENDBRANCH   1  11
TORSDOF 3
