REMARK  Name = ZINC36893667
REMARK  5 active torsions:
REMARK  status: ('A' for Active; 'I' for Inactive)
REMARK    1  A    between atoms: C_1  and  C_2
REMARK    2  A    between atoms: C_5  and  C_7
REMARK    3  A    between atoms: C_7  and  S_8
REMARK    4  A    between atoms: S_8  and  C_11
REMARK    5  A    between atoms: C_15  and  C_18
REMARK                            x       y       z     vdW  Elec       q    Type
REMARK                         _______ _______ _______ _____ _____    ______ ____
ROOT
ATOM      1  C   UNL     1       1.658  -5.269   2.744  0.00  0.00    +0.126 A 
ATOM      2  C   UNL     1       2.128  -6.467   2.240  0.00  0.00    +0.045 A 
ATOM      3  C   UNL     1       2.041  -7.626   2.995  0.00  0.00    +0.021 A 
ATOM      4  C   UNL     1       1.484  -7.593   4.256  0.00  0.00    +0.033 A 
ATOM      5  C   UNL     1       1.006  -6.386   4.774  0.00  0.00    +0.101 A 
ATOM      6  C   UNL     1       1.103  -5.217   4.009  0.00  0.00    +0.162 A 
ATOM      7  F   UNL     1       0.648  -4.044   4.503  0.00  0.00    -0.203 F 
ATOM      8 BR   UNL     1       2.688  -9.258   2.293  0.00  0.00    -0.050 Br
ENDROOT
BRANCH   1   9
ATOM      9  S   UNL     1       1.774  -3.802   1.774  0.00  0.00    +0.008 S 
ATOM     10  O   UNL     1       2.405  -4.213   0.569  0.00  0.00    -0.169 OA
ATOM     11  O   UNL     1       2.394  -2.851   2.628  0.00  0.00    -0.169 OA
BRANCH   9  12
ATOM     12  C   UNL     1       0.055  -3.322   1.448  0.00  0.00    +0.269 C 
BRANCH  12  17
ATOM     13  C   UNL     1      -0.018   1.503   0.010  0.00  0.00    +0.111 C 
ATOM     14  C   UNL     1       0.002  -0.004   0.002  0.00  0.00    +0.214 A 
ATOM     15  N   UNL     1       0.008  -0.769  -1.052  0.00  0.00    -0.113 NA
ATOM     16  N   UNL     1       0.027  -2.002  -0.685  0.00  0.00    -0.111 NA
ATOM     17  C   UNL     1       0.034  -2.066   0.616  0.00  0.00    +0.238 A 
ATOM     18  O   UNL     1       0.023  -0.805   1.081  0.00  0.00    -0.423 OA
ENDBRANCH  12  17
ENDBRANCH   9  12
ENDBRANCH   1   9
BRANCH   5  19
ATOM     19  C   UNL     1       0.410  -6.342   6.121  0.00  0.00    +0.389 C 
ATOM     20  O   UNL     1       0.332  -7.364   6.789  0.00  0.00    -0.240 OA
ATOM     21  O   UNL     1      -0.008  -5.284   6.571  0.00  0.00    -0.240 OA
ENDBRANCH   5  19
TORSDOF 4
