REMARK  Name = ZINC05190748
REMARK  3 active torsions:
REMARK  status: ('A' for Active; 'I' for Inactive)
REMARK    1  A    between atoms: C_1  and  C_2
REMARK    2  A    between atoms: C_2  and  C_28
REMARK    3  A    between atoms: C_6  and  C_15
REMARK                            x       y       z     vdW  Elec       q    Type
REMARK                         _______ _______ _______ _____ _____    ______ ____
ROOT
ATOM      1  C   UNL     1       1.074   3.507   0.370  0.00  0.00    +0.011 C 
ATOM      2  C   UNL     1       1.165   1.980   0.333  0.00  0.00    -0.023 C 
ATOM      3  C   UNL     1       1.852   1.535  -0.957  0.00  0.00    +0.058 C 
ATOM      4  C   UNL     1       1.929   0.018  -1.005  0.00  0.00    +0.017 C 
ATOM      5  C   UNL     1       0.963  -0.731  -0.448  0.00  0.00    +0.037 C 
ATOM      6  C   UNL     1       0.903  -2.240  -0.443  0.00  0.00    +0.139 C 
ATOM      7  N   UNL     1       2.123  -2.892  -0.869  0.00  0.00    -0.318 N 
ATOM      8  C   UNL     1       2.598  -2.755  -2.166  0.00  0.00    +0.119 A 
ATOM      9  C   UNL     1       2.991  -1.491  -2.589  0.00  0.00    +0.070 A 
ATOM     10  C   UNL     1       3.341  -1.285  -3.912  0.00  0.00    +0.028 A 
ATOM     11  C   UNL     1       3.317  -2.383  -4.766  0.00  0.00    +0.019 A 
ATOM     12  C   UNL     1       2.956  -3.619  -4.270  0.00  0.00    +0.084 A 
ATOM     13  N   UNL     1       3.022  -0.476  -1.642  0.00  0.00    -0.315 N 
ATOM     14  C   UNL     1      -0.126  -0.114   0.211  0.00  0.00    +0.163 C 
ATOM     15  O   UNL     1      -0.997  -0.815   0.686  0.00  0.00    -0.292 OA
ATOM     16  C   UNL     1      -0.244   1.375   0.344  0.00  0.00    +0.086 C 
ATOM     17  C   UNL     1       1.955   1.477   1.542  0.00  0.00    +0.011 C 
ATOM     18  H   UNL     1       2.619  -3.434  -0.235  0.00  0.00    +0.148 HD
ATOM     19  H   UNL     1       3.885  -0.093  -1.420  0.00  0.00    +0.152 HD
ATOM     20  N   UNL     1       2.592  -3.847  -2.979  0.00  0.00    -0.348 N 
ATOM     21  H   UNL     1       2.331  -4.780  -2.640  0.00  0.00    +0.167 HD
ENDROOT
BRANCH   6  22
ATOM     22  C   UNL     1      -0.214  -2.676  -1.356  0.00  0.00    +0.002 A 
ATOM     23  C   UNL     1      -0.826  -1.925  -2.285  0.00  0.00    +0.089 A 
ATOM     24  N   UNL     1      -1.791  -2.660  -2.918  0.00  0.00    -0.360 N 
ATOM     25  H   UNL     1      -2.365  -2.332  -3.627  0.00  0.00    +0.165 HD
ATOM     26  C   UNL     1      -1.825  -3.934  -2.398  0.00  0.00    +0.047 A 
ATOM     27  C   UNL     1      -0.834  -4.003  -1.401  0.00  0.00    +0.005 A 
ATOM     28  C   UNL     1      -0.642  -5.189  -0.690  0.00  0.00    +0.010 A 
ATOM     29  C   UNL     1      -1.411  -6.282  -0.975  0.00  0.00    +0.001 A 
ATOM     30  C   UNL     1      -2.385  -6.222  -1.962  0.00  0.00    +0.002 A 
ATOM     31  C   UNL     1      -2.595  -5.060  -2.671  0.00  0.00    +0.026 A 
ENDBRANCH   6  22
TORSDOF 1
