REMARK  Name = ZINC43406649
REMARK  4 active torsions:
REMARK  status: ('A' for Active; 'I' for Inactive)
REMARK    1  A    between atoms: C_1  and  C_2
REMARK    2  A    between atoms: C_2  and  O_3
REMARK    3  A    between atoms: O_3  and  C_4
REMARK    4  A    between atoms: C_11  and  C_19
REMARK                            x       y       z     vdW  Elec       q    Type
REMARK                         _______ _______ _______ _____ _____    ______ ____
ROOT
ATOM      1  C   UNL     1      -0.837  -2.201  -0.790  0.00  0.00    +0.121 C 
ATOM      2  C   UNL     1      -0.489  -3.676  -1.003  0.00  0.00    +0.050 C 
ATOM      3  C   UNL     1      -1.503  -4.548  -0.258  0.00  0.00    +0.109 C 
ATOM      4  N   UNL     1      -2.857  -4.179  -0.695  0.00  0.00    -0.314 N 
ATOM      5  C   UNL     1      -3.263  -2.769  -0.618  0.00  0.00    +0.109 C 
ATOM      6  C   UNL     1      -2.229  -1.916  -1.359  0.00  0.00    +0.050 C 
ATOM      7  C   UNL     1      -3.731  -5.139  -1.170  0.00  0.00    +0.132 A 
ATOM      8  C   UNL     1      -4.672  -5.718  -0.303  0.00  0.00    +0.052 A 
ATOM      9  C   UNL     1      -5.543  -6.686  -0.810  0.00  0.00    +0.020 A 
ATOM     10  C   UNL     1      -5.441  -7.034  -2.147  0.00  0.00    -0.025 A 
ATOM     11  C   UNL     1      -4.490  -6.422  -2.943  0.00  0.00    +0.047 A 
ATOM     12  N   UNL     1      -3.679  -5.504  -2.440  0.00  0.00    -0.236 NA
ATOM     13  C   UNL     1      -4.581  -6.969  -4.353  0.00  0.00    +0.056 C 
ATOM     14  C   UNL     1      -5.383  -8.282  -4.228  0.00  0.00    +0.011 C 
ATOM     15  C   UNL     1      -6.233  -8.031  -2.964  0.00  0.00    +0.037 C 
ENDROOT
BRANCH   8  16
ATOM     16  C   UNL     1      -4.739  -5.312   1.115  0.00  0.00    +0.098 C 
ATOM     17  N   UNL     1      -5.881  -4.849   1.622  0.00  0.00    -0.387 N 
ATOM     18  N   UNL     1      -3.657  -5.410   1.888  0.00  0.00    -0.344 N 
ATOM     19  H   UNL     1      -6.685  -4.842   1.080  0.00  0.00    +0.157 HD
ATOM     20  H   UNL     1      -2.826  -5.747   1.519  0.00  0.00    +0.144 HD
ATOM     21  H   UNL     1      -3.701  -5.143   2.820  0.00  0.00    +0.144 HD
ATOM     22  H   UNL     1      -5.908  -4.518   2.534  0.00  0.00    +0.157 HD
ENDBRANCH   8  16
BRANCH   1  23
ATOM     23  O   UNL     1       0.127  -1.383  -1.458  0.00  0.00    -0.377 OA
BRANCH  23  25
ATOM     24  C   UNL     1       2.213  -0.163  -1.462  0.00  0.00    +0.034 C 
ATOM     25  C   UNL     1       1.253  -1.035  -0.649  0.00  0.00    +0.157 C 
ENDBRANCH  23  25
ENDBRANCH   1  23
TORSDOF 3
