REMARK  Name = ZINC40176868
REMARK  3 active torsions:
REMARK  status: ('A' for Active; 'I' for Inactive)
REMARK    1  A    between atoms: C_1  and  C_2
REMARK    2  A    between atoms: C_5  and  N_9
REMARK    3  A    between atoms: C_10  and  C_12
REMARK                            x       y       z     vdW  Elec       q    Type
REMARK                         _______ _______ _______ _____ _____    ______ ____
ROOT
ATOM      1  N   UNL     1       0.076  -4.171  -0.024  0.00  0.00    -0.280 N 
ATOM      2  C   UNL     1      -0.041  -4.838  -1.189  0.00  0.00    +0.253 C 
ATOM      3  O   UNL     1      -0.070  -4.226  -2.240  0.00  0.00    -0.270 OA
ATOM      4  H   UNL     1       0.167  -4.661   0.809  0.00  0.00    +0.155 HD
ENDROOT
BRANCH   2   5
ATOM      5  C   UNL     1      -0.132  -6.307  -1.190  0.00  0.00    +0.100 A 
ATOM      6  C   UNL     1      -0.130  -7.009  -2.377  0.00  0.00    +0.100 A 
ATOM      7  N   UNL     1      -0.212  -8.345  -2.417  0.00  0.00    -0.360 N 
ATOM      8  C   UNL     1      -0.304  -9.121  -1.282  0.00  0.00    +0.050 A 
ATOM      9  C   UNL     1      -0.387 -10.508  -1.378  0.00  0.00    +0.026 A 
ATOM     10  C   UNL     1      -0.478 -11.273  -0.236  0.00  0.00    +0.002 A 
ATOM     11  C   UNL     1      -0.489 -10.677   1.017  0.00  0.00    +0.001 A 
ATOM     12  C   UNL     1      -0.409  -9.308   1.136  0.00  0.00    +0.014 A 
ATOM     13  C   UNL     1      -0.315  -8.521  -0.012  0.00  0.00    +0.046 A 
ATOM     14  C   UNL     1      -0.221  -7.051   0.076  0.00  0.00    +0.201 A 
ATOM     15  O   UNL     1      -0.222  -6.478   1.151  0.00  0.00    -0.286 OA
ATOM     16  H   UNL     1      -0.207  -8.785  -3.281  0.00  0.00    +0.165 HD
ENDBRANCH   2   5
BRANCH   1  21
ATOM     17  C   UNL     1       0.033   1.502   0.012  0.00  0.00    +0.044 C 
ATOM     18  C   UNL     1       0.044  -0.005   0.003  0.00  0.00    -0.049 A 
ATOM     19  C   UNL     1       0.511  -0.685  -1.107  0.00  0.00    +0.005 A 
ATOM     20  C   UNL     1       0.523  -2.066  -1.119  0.00  0.00    +0.025 A 
ATOM     21  C   UNL     1       0.066  -2.772  -0.015  0.00  0.00    +0.048 A 
ATOM     22  C   UNL     1      -0.403  -2.087   1.099  0.00  0.00    +0.039 A 
ATOM     23  C   UNL     1      -0.407  -0.705   1.107  0.00  0.00    +0.020 A 
ATOM     24 BR   UNL     1      -1.028  -3.043   2.606  0.00  0.00    -0.048 Br
ENDBRANCH   1  21
TORSDOF 2
