REMARK  Name = ZINC58210474
REMARK  3 active torsions:
REMARK  status: ('A' for Active; 'I' for Inactive)
REMARK    1  A    between atoms: C_4  and  N_11
REMARK    2  A    between atoms: C_5  and  C_7
REMARK    3  A    between atoms: C_18  and  C_20
REMARK                            x       y       z     vdW  Elec       q    Type
REMARK                         _______ _______ _______ _____ _____    ______ ____
ROOT
ATOM      1  N   UNL     1       3.622  -0.651  -0.036  0.00  0.00    -0.269 N 
ATOM      2  C   UNL     1       4.776   0.037  -0.146  0.00  0.00    +0.307 C 
ATOM      3  O   UNL     1       4.762   1.253  -0.139  0.00  0.00    -0.252 OA
ATOM      4  N   UNL     1       5.945  -0.623  -0.263  0.00  0.00    -0.277 N 
ATOM      5  C   UNL     1       6.106  -2.088  -0.291  0.00  0.00    +0.110 C 
ATOM      6  C   UNL     1       7.559  -2.337   0.183  0.00  0.00    +0.021 C 
ATOM      7  C   UNL     1       8.307  -1.142  -0.465  0.00  0.00    +0.030 C 
ATOM      8  C   UNL     1       7.271  -0.001  -0.389  0.00  0.00    +0.124 C 
ATOM      9  H   UNL     1       3.638  -1.619   0.024  0.00  0.00    +0.156 HD
ENDROOT
BRANCH   1  13
ATOM     10  C   UNL     1      -0.015   1.381   0.041  0.00  0.00    +0.001 A 
ATOM     11  C   UNL     1       1.104   1.945   0.627  0.00  0.00    +0.002 A 
ATOM     12  C   UNL     1       2.310   1.274   0.603  0.00  0.00    +0.024 A 
ATOM     13  C   UNL     1       2.400   0.031  -0.010  0.00  0.00    +0.046 A 
ATOM     14  C   UNL     1       1.276  -0.532  -0.598  0.00  0.00    +0.076 A 
ATOM     15  C   UNL     1       0.071   0.144  -0.571  0.00  0.00    +0.014 A 
BRANCH  14  16
ATOM     16  C   UNL     1       1.369  -1.881  -1.265  0.00  0.00    +0.419 C 
ATOM     17  F   UNL     1       0.116  -2.234  -1.778  0.00  0.00    -0.166 F 
ATOM     18  F   UNL     1       2.300  -1.822  -2.307  0.00  0.00    -0.166 F 
ATOM     19  F   UNL     1       1.776  -2.837  -0.328  0.00  0.00    -0.166 F 
ENDBRANCH  14  16
ENDBRANCH   1  13
BRANCH   8  20
ATOM     20  C   UNL     1       7.329   0.832  -1.644  0.00  0.00    +0.037 A 
ATOM     21  C   UNL     1       6.689   0.564  -2.800  0.00  0.00    +0.024 A 
ATOM     22  C   UNL     1       7.014   1.590  -3.709  0.00  0.00    +0.019 A 
ATOM     23  C   UNL     1       7.840   2.446  -3.074  0.00  0.00    +0.083 A 
ATOM     24  N   UNL     1       8.032   1.989  -1.803  0.00  0.00    -0.363 N 
ATOM     25  H   UNL     1       8.580   2.415  -1.126  0.00  0.00    +0.165 HD
ENDBRANCH   8  20
TORSDOF 3
