REMARK  Name = ZINC44592664
REMARK  5 active torsions:
REMARK  status: ('A' for Active; 'I' for Inactive)
REMARK    1  A    between atoms: C_6  and  C_20
REMARK    2  A    between atoms: C_11  and  CA_13
REMARK    3  A    between atoms: CA_13  and  CB_15
REMARK    4  A    between atoms: CA_13  and  N_19
REMARK    5  A    between atoms: CB_15  and  CG_16
REMARK                            x       y       z     vdW  Elec       q    Type
REMARK                         _______ _______ _______ _____ _____    ______ ____
ROOT
ATOM      1  C   UNK A   2       0.655   0.752  -0.793  0.00  0.00    +0.014 A 
ATOM      2  C   UNK A   2       1.954   0.943  -1.120  0.00  0.00    +0.046 A 
ATOM      3  S   UNK A   2       2.643  -0.683  -0.854  0.00  0.00    -0.101 S 
ATOM      4  C   UNK A   2       1.153  -1.492  -0.331  0.00  0.00    -0.003 A 
ATOM      5  C   UNK A   2       0.218  -0.504  -0.378  0.00  0.00    -0.006 A 
ATOM      6  C   UNK A   2      -1.228  -0.799   0.017  0.00  0.00    +0.220 C 
ATOM      7  N   UNK A   2      -1.384  -2.258   0.093  0.00  0.00    -0.285 N 
ATOM      8  C   UNK A   2      -0.374  -3.049   0.813  0.00  0.00    +0.114 C 
ATOM      9  C   UNK A   2       0.962  -2.920   0.065  0.00  0.00    +0.062 C 
ATOM     10  C   ASN A   1      -2.439  -2.863  -0.488  0.00  0.00    +0.202 C 
ATOM     11  O   ASN A   1      -3.229  -2.212  -1.138  0.00  0.00    -0.277 OA
ENDROOT
BRANCH   6  12
ATOM     12  C   UNK A   2      -2.165  -0.238  -1.020  0.00  0.00    +0.381 C 
ATOM     13  O   UNK A   2      -2.081  -0.604  -2.180  0.00  0.00    -0.244 OA
ATOM     14  O   UNK A   2      -3.008   0.583  -0.700  0.00  0.00    -0.244 OA
ENDBRANCH   6  12
BRANCH  10  15
ATOM     15  CA  ASN A   1      -2.635  -4.349  -0.331  0.00  0.00    +0.022 C 
BRANCH  15  16
ATOM     16  N   ASN A   1      -4.035  -4.691  -0.617  0.00  0.00    +0.386 N 
ATOM     17  H1  ASN A   1      -4.261  -4.420  -1.562  0.00  0.00    -0.089 HD
ATOM     18  H2  ASN A   1      -4.167  -5.686  -0.512  0.00  0.00    -0.089 HD
ATOM     19  H3  ASN A   1      -4.639  -4.202   0.027  0.00  0.00    -0.089 HD
ENDBRANCH  15  16
BRANCH  15  20
ATOM     20  CB  ASN A   1      -1.720  -5.091  -1.308  0.00  0.00    +0.088 C 
BRANCH  20  21
ATOM     21  CG  ASN A   1      -1.825  -6.575  -1.067  0.00  0.00    +0.209 C 
ATOM     22  OD1 ASN A   1      -2.560  -6.997  -0.200  0.00  0.00    -0.276 OA
ATOM     23  ND2 ASN A   1      -1.103  -7.432  -1.815  0.00  0.00    -0.329 N 
ATOM     24 HD21 ASN A   1      -0.515  -7.094  -2.509  0.00  0.00    +0.145 HD
ATOM     25 HD22 ASN A   1      -1.171  -8.387  -1.660  0.00  0.00    +0.145 HD
ENDBRANCH  20  21
ENDBRANCH  15  20
ENDBRANCH  10  15
TORSDOF 5
