REMARK  Name = ZINC37291340
REMARK  4 active torsions:
REMARK  status: ('A' for Active; 'I' for Inactive)
REMARK    1  A    between atoms: C_1  and  C_2
REMARK    2  A    between atoms: C_7  and  N_8
REMARK    3  A    between atoms: C_9  and  N_19
REMARK    4  A    between atoms: C_11  and  C_13
REMARK                            x       y       z     vdW  Elec       q    Type
REMARK                         _______ _______ _______ _____ _____    ______ ____
ROOT
ATOM      1  N   UNL     1       0.180   0.117   2.333  0.00  0.00    -0.218 N 
ATOM      2  C   UNL     1       0.379  -0.372   3.589  0.00  0.00    +0.120 A 
ATOM      3  C   UNL     1       0.371   0.680   4.449  0.00  0.00    +0.076 A 
ATOM      4  C   UNL     1       0.160   1.852   3.694  0.00  0.00    +0.130 A 
ATOM      5  N   UNL     1       0.052   1.509   2.426  0.00  0.00    -0.162 NA
ENDROOT
BRANCH   1  12
ATOM      6  C   UNL     1      -1.970   0.601   0.532  0.00  0.00    +0.046 C 
ATOM      7  C   UNL     1      -0.911  -0.434   0.249  0.00  0.00    -0.025 A 
ATOM      8  C   UNL     1      -0.964  -1.177  -0.914  0.00  0.00    +0.005 A 
ATOM      9  C   UNL     1       0.007  -2.126  -1.174  0.00  0.00    +0.000 A 
ATOM     10  C   UNL     1       1.033  -2.336  -0.271  0.00  0.00    +0.002 A 
ATOM     11  C   UNL     1       1.091  -1.596   0.893  0.00  0.00    +0.028 A 
ATOM     12  C   UNL     1       0.121  -0.638   1.155  0.00  0.00    +0.070 A 
ENDBRANCH   1  12
BRANCH   4  13
ATOM     13  C   UNL     1       0.081   3.226   4.231  0.00  0.00    +0.156 A 
ATOM     14  C   UNL     1      -0.128   4.356   3.504  0.00  0.00    +0.052 A 
ATOM     15  C   UNL     1      -0.131   5.431   4.415  0.00  0.00    +0.057 A 
ATOM     16  C   UNL     1       0.074   4.910   5.642  0.00  0.00    +0.171 A 
ATOM     17  O   UNL     1       0.196   3.577   5.527  0.00  0.00    -0.447 OA
ATOM     18 BR   UNL     1       0.168   5.891   7.255  0.00  0.00    -0.008 Br
ENDBRANCH   4  13
BRANCH   2  19
ATOM     19  N   UNL     1       0.558  -1.710   3.929  0.00  0.00    -0.343 N 
ATOM     20  H   UNL     1       0.611  -2.384   3.235  0.00  0.00    +0.144 HD
ATOM     21  H   UNL     1       0.630  -1.967   4.862  0.00  0.00    +0.144 HD
ENDBRANCH   2  19
TORSDOF 3
