REMARK  Name = ZINC55334341
REMARK  3 active torsions:
REMARK  status: ('A' for Active; 'I' for Inactive)
REMARK    1  A    between atoms: C_5  and  C_7
REMARK    2  A    between atoms: C_8  and  C_13
REMARK    3  A    between atoms: C_11  and  N_12
REMARK                            x       y       z     vdW  Elec       q    Type
REMARK                         _______ _______ _______ _____ _____    ______ ____
ROOT
ATOM      1  C   UNL     1       1.247  -2.164  -0.023  0.00  0.00    +0.067 A 
ATOM      2  C   UNL     1       1.268  -3.006   1.110  0.00  0.00    +0.096 A 
ATOM      3  N   UNL     1       1.288  -4.242   0.698  0.00  0.00    -0.080 NA
ATOM      4  O   UNL     1       1.281  -4.249  -0.717  0.00  0.00    -0.339 OA
ATOM      5  C   UNL     1       1.249  -2.975  -1.142  0.00  0.00    +0.223 A 
ENDROOT
BRANCH   1  10
ATOM      6  C   UNL     1      -0.017   1.376   0.010  0.00  0.00    +0.001 A 
ATOM      7  C   UNL     1       1.170   2.087   0.002  0.00  0.00    +0.001 A 
ATOM      8  C   UNL     1       2.382   1.420  -0.013  0.00  0.00    +0.016 A 
ATOM      9  C   UNL     1       2.414   0.040  -0.022  0.00  0.00    +0.026 A 
ATOM     10  C   UNL     1       1.220  -0.682  -0.014  0.00  0.00    +0.003 A 
ATOM     11  C   UNL     1       0.002  -0.004   0.002  0.00  0.00    +0.010 A 
ATOM     12 BR   UNL     1       4.071  -0.870  -0.044  0.00  0.00    -0.050 Br
ENDBRANCH   1  10
BRANCH   2  13
ATOM     13  C   UNL     1       1.268  -2.554   2.547  0.00  0.00    +0.042 C 
ATOM     14  C   UNL     1       2.579  -3.015   3.216  0.00  0.00    +0.010 C 
ATOM     15  C   UNL     1       2.819  -2.164   4.434  0.00  0.00    +0.001 C 
ATOM     16  C   UNL     1       2.270  -2.809   5.721  0.00  0.00    +0.000 C 
ATOM     17  C   UNL     1       0.889  -3.461   5.521  0.00  0.00    +0.000 C 
ATOM     18  C   UNL     1      -0.028  -2.619   4.675  0.00  0.00    +0.001 C 
ATOM     19  C   UNL     1       0.088  -3.090   3.210  0.00  0.00    +0.010 C 
ENDBRANCH   2  13
BRANCH   5  20
ATOM     20  N   UNL     1       1.228  -2.554  -2.455  0.00  0.00    -0.327 N 
ATOM     21  H   UNL     1       1.208  -1.605  -2.660  0.00  0.00    +0.145 HD
ATOM     22  H   UNL     1       1.232  -3.205  -3.174  0.00  0.00    +0.145 HD
ENDBRANCH   5  20
TORSDOF 3
