REMARK  Name = ZINC03984873
REMARK  6 active torsions:
REMARK  status: ('A' for Active; 'I' for Inactive)
REMARK    1  A    between atoms: C_1  and  C_2
REMARK    2  A    between atoms: C_4  and  C_29
REMARK    3  A    between atoms: C_5  and  N_9
REMARK    4  A    between atoms: C_6  and  C_8
REMARK    5  A    between atoms: C_12  and  C_19
REMARK    6  A    between atoms: C_13  and  O_18
REMARK                            x       y       z     vdW  Elec       q    Type
REMARK                         _______ _______ _______ _____ _____    ______ ____
ROOT
ATOM      1  N   UNL     1       4.004   2.935   3.154  0.00  0.00    -0.228 N 
ATOM      2  C   UNL     1       3.169   2.287   2.317  0.00  0.00    +0.267 A 
ATOM      3  O   UNL     1       2.208   1.680   2.757  0.00  0.00    -0.267 OA
ATOM      4  C   UNL     1       3.418   2.312   0.934  0.00  0.00    +0.067 A 
ATOM      5  C   UNL     1       4.497   3.003   0.466  0.00  0.00    +0.201 A 
ATOM      6  N   UNL     1       5.317   3.653   1.353  0.00  0.00    -0.278 N 
ATOM      7  H   UNL     1       6.110   4.161   1.015  0.00  0.00    +0.173 HD
ATOM      8  C   UNL     1       5.063   3.612   2.673  0.00  0.00    +0.337 A 
ATOM      9  O   UNL     1       5.802   4.194   3.444  0.00  0.00    -0.246 OA
ENDROOT
BRANCH   4  10
ATOM     10  C   UNL     1       2.502   1.589  -0.020  0.00  0.00    +0.001 C 
ATOM     11  C   UNL     1       1.145   2.242   0.003  0.00  0.00    -0.054 A 
ATOM     12  C   UNL     1       1.079   3.628   0.015  0.00  0.00    +0.002 A 
ATOM     13  C   UNL     1      -0.143   4.269   0.032  0.00  0.00    +0.000 A 
ATOM     14  C   UNL     1      -1.310   3.526   0.036  0.00  0.00    +0.000 A 
ATOM     15  C   UNL     1      -1.246   2.148   0.031  0.00  0.00    +0.004 A 
ATOM     16  C   UNL     1      -0.018   1.503   0.010  0.00  0.00    -0.047 A 
ATOM     17  C   UNL     1       0.002  -0.004   0.002  0.00  0.00    +0.016 C 
ATOM     18  C   UNL     1       1.381  -0.505  -0.430  0.00  0.00    -0.077 C 
ATOM     19  N   UNL     1       2.404   0.179   0.382  0.00  0.00    +0.387 N 
ATOM     20  H   UNL     1       2.143   0.126   1.374  0.00  0.00    -0.085 HD
ATOM     21  H   UNL     1       3.312  -0.279   0.242  0.00  0.00    -0.085 HD
ENDBRANCH   4  10
BRANCH   1  26
ATOM     22  C   UNL     1       3.029   2.829   8.744  0.00  0.00    +0.044 C 
ATOM     23  C   UNL     1       3.288   2.857   7.259  0.00  0.00    -0.050 A 
ATOM     24  C   UNL     1       2.733   3.856   6.481  0.00  0.00    +0.008 A 
ATOM     25  C   UNL     1       2.968   3.884   5.120  0.00  0.00    -0.026 A 
ATOM     26  C   UNL     1       3.764   2.909   4.534  0.00  0.00    +0.060 A 
ATOM     27  C   UNL     1       4.316   1.905   5.318  0.00  0.00    -0.026 A 
ATOM     28  C   UNL     1       4.081   1.884   6.678  0.00  0.00    +0.008 A 
ATOM     29  C   UNL     1       5.174   0.840   4.684  0.00  0.00    +0.046 C 
ATOM     30  C   UNL     1       2.362   4.973   4.273  0.00  0.00    +0.046 C 
ENDBRANCH   1  26
BRANCH   5  31
ATOM     31  O   UNL     1       4.755   3.046  -0.858  0.00  0.00    -0.493 OA
ATOM     32  H   UNL     1       5.540   3.561  -1.089  0.00  0.00    +0.294 HD
ENDBRANCH   5  31
TORSDOF 3
