REMARK  Name = ZINC44502334
REMARK  6 active torsions:
REMARK  status: ('A' for Active; 'I' for Inactive)
REMARK    1  A    between atoms: C_1  and  C_2
REMARK    2  A    between atoms: C_5  and  C_21
REMARK    3  A    between atoms: C_6  and  S_9
REMARK    4  A    between atoms: S_9  and  N_12
REMARK    5  A    between atoms: N_12  and  C_13
REMARK    6  A    between atoms: C_13  and  C_14
REMARK                            x       y       z     vdW  Elec       q    Type
REMARK                         _______ _______ _______ _____ _____    ______ ____
ROOT
ATOM      1  S   UNL     1      -0.541  -2.590   2.846  0.00  0.00    +0.060 S 
ATOM      2  O   UNL     1      -1.127  -1.550   3.617  0.00  0.00    -0.153 OA
ATOM      3  O   UNL     1      -1.183  -3.840   2.640  0.00  0.00    -0.153 OA
ENDROOT
BRANCH   1   9
ATOM      4  C   UNL     1       0.311  -3.145  -2.283  0.00  0.00    +0.045 C 
ATOM      5  C   UNL     1       0.160  -2.229  -1.096  0.00  0.00    -0.029 A 
ATOM      6  C   UNL     1       0.270  -0.861  -1.260  0.00  0.00    +0.025 A 
ATOM      7  C   UNL     1       0.132  -0.020  -0.170  0.00  0.00    +0.046 A 
ATOM      8  C   UNL     1      -0.116  -0.549   1.085  0.00  0.00    -0.004 A 
ATOM      9  C   UNL     1      -0.226  -1.916   1.249  0.00  0.00    +0.128 A 
ATOM     10  C   UNL     1      -0.093  -2.757   0.157  0.00  0.00    +0.070 A 
ATOM     11 CL   UNL     1      -0.238  -4.475   0.362  0.00  0.00    -0.081 Cl
ATOM     12  C   UNL     1      -0.266   0.367   2.272  0.00  0.00    +0.047 C 
ATOM     13 CL   UNL     1       0.270   1.698  -0.376  0.00  0.00    -0.083 Cl
ENDBRANCH   1   9
BRANCH   1  14
ATOM     14  N   UNL     1       0.928  -2.920   3.536  0.00  0.00    -0.190 NA
ATOM     15  H   UNL     1       1.177  -3.837   3.731  0.00  0.00    +0.148 HD
BRANCH  14  16
ATOM     16  C   UNL     1       1.851  -1.828   3.853  0.00  0.00    +0.107 C 
BRANCH  16  17
ATOM     17  C   UNL     1       2.940  -2.338   4.799  0.00  0.00    -0.013 C 
ATOM     18  C   UNL     1       2.310  -2.733   6.138  0.00  0.00    +0.001 C 
ATOM     19  C   UNL     1       3.416  -3.168   7.103  0.00  0.00    -0.019 C 
ATOM     20  C   UNL     1       4.431  -2.032   7.252  0.00  0.00    -0.083 C 
ATOM     21  N   UNL     1       5.016  -1.719   5.943  0.00  0.00    +0.379 N 
ATOM     22  C   UNL     1       3.972  -1.233   5.033  0.00  0.00    -0.078 C 
ATOM     23  H   UNL     1       5.723  -1.007   6.054  0.00  0.00    -0.086 HD
ATOM     24  H   UNL     1       5.437  -2.550   5.557  0.00  0.00    -0.086 HD
ENDBRANCH  16  17
ENDBRANCH  14  16
ENDBRANCH   1  14
TORSDOF 4
