REMARK  Name = ZINC08777716
REMARK  8 active torsions:
REMARK  status: ('A' for Active; 'I' for Inactive)
REMARK    1  A    between atoms: C_1  and  C_2
REMARK    2  A    between atoms: C_2  and  C_4
REMARK    3  A    between atoms: C_2  and  N_42
REMARK    4  A    between atoms: C_11  and  C_13
REMARK    5  A    between atoms: C_11  and  C_14
REMARK    6  A    between atoms: C_11  and  N_42
REMARK    7  A    between atoms: N_20  and  C_21
REMARK    8  A    between atoms: N_20  and  C_22
REMARK                            x       y       z     vdW  Elec       q    Type
REMARK                         _______ _______ _______ _____ _____    ______ ____
ROOT
ATOM      1  C   UNL     1       0.002  -0.004   0.002  0.00  0.00    -0.005 C 
ATOM      2  C   UNL     1      -0.019   1.526   0.010  0.00  0.00    -0.006 C 
ENDROOT
BRANCH   1   3
ATOM      3  C   UNL     1       0.731  -0.503   1.223  0.00  0.00    +0.122 A 
ATOM      4  N   UNL     1       2.049  -0.431   1.279  0.00  0.00    -0.201 NA
ATOM      5  C   UNL     1       2.696  -0.867   2.357  0.00  0.00    +0.217 A 
ATOM      6  N   UNL     1       2.016  -1.384   3.374  0.00  0.00    -0.181 NA
ATOM      7  C   UNL     1       0.691  -1.460   3.312  0.00  0.00    +0.222 A 
ATOM      8  N   UNL     1       0.051  -1.017   2.232  0.00  0.00    -0.201 NA
ATOM      9  N   UNL     1      -0.021  -1.996   4.366  0.00  0.00    -0.306 N 
ATOM     10  C   UNL     1      -1.482  -2.078   4.297  0.00  0.00    +0.132 C 
ATOM     11  C   UNL     1       0.685  -2.482   5.554  0.00  0.00    +0.132 C 
ATOM     12  N   UNL     1       4.073  -0.786   2.417  0.00  0.00    -0.327 N 
ATOM     13  H   UNL     1       4.544  -1.107   3.202  0.00  0.00    +0.145 HD
ATOM     14  H   UNL     1       4.569  -0.408   1.674  0.00  0.00    +0.145 HD
ENDBRANCH   1   3
BRANCH   1  15
ATOM     15  N   UNL     1       0.700  -0.480  -1.207  0.00  0.00    +0.390 N 
ATOM     16  H   UNL     1       1.464   0.167  -1.434  0.00  0.00    -0.084 HD
ATOM     17  H   UNL     1       1.085  -1.416  -1.030  0.00  0.00    -0.084 HD
BRANCH  15  19
ATOM     18  C   UNL     1      -0.975  -1.886  -2.321  0.00  0.00    -0.009 C 
ATOM     19  C   UNL     1      -0.235  -0.547  -2.346  0.00  0.00    -0.042 C 
BRANCH  19  20
ATOM     20  C   UNL     1       0.541  -0.425  -3.631  0.00  0.00    -0.048 A 
ATOM     21  C   UNL     1       1.875  -0.787  -3.671  0.00  0.00    +0.003 A 
ATOM     22  C   UNL     1       2.587  -0.676  -4.850  0.00  0.00    +0.000 A 
ATOM     23  C   UNL     1       1.966  -0.204  -5.991  0.00  0.00    +0.001 A 
ATOM     24  C   UNL     1       0.633   0.158  -5.953  0.00  0.00    +0.015 A 
ATOM     25  C   UNL     1      -0.082   0.043  -4.774  0.00  0.00    +0.019 A 
ATOM     26 BR   UNL     1      -1.908   0.531  -4.723  0.00  0.00    -0.050 Br
ENDBRANCH  19  20
ENDBRANCH  15  19
ENDBRANCH   1  15
TORSDOF 4
