REMARK  Name = ZINC15305595
REMARK  4 active torsions:
REMARK  status: ('A' for Active; 'I' for Inactive)
REMARK    1  A    between atoms: C_4  and  C_7
REMARK    2  A    between atoms: C_10  and  C_36
REMARK    3  A    between atoms: C_15  and  C_17
REMARK    4  A    between atoms: N_22  and  C_25
REMARK                            x       y       z     vdW  Elec       q    Type
REMARK                         _______ _______ _______ _____ _____    ______ ____
ROOT
ATOM      1  C   UNL     1       1.820  -8.090   5.988  0.00  0.00    +0.104 C 
ATOM      2  C   UNL     1       0.453  -8.715   5.692  0.00  0.00    +0.058 C 
ATOM      3  C   UNL     1       0.395  -9.175   4.231  0.00  0.00    +0.141 C 
ATOM      4  N   UNL     1       0.839  -8.075   3.369  0.00  0.00    -0.243 N 
ATOM      5  C   UNL     1       1.575  -7.014   3.814  0.00  0.00    +0.119 A 
ATOM      6  C   UNL     1       1.804  -6.195   2.769  0.00  0.00    +0.078 A 
ATOM      7  C   UNL     1       1.189  -6.769   1.633  0.00  0.00    +0.149 A 
ATOM      8  N   UNL     1       0.612  -7.898   2.005  0.00  0.00    -0.164 NA
ATOM      9  N   UNL     1       1.983  -6.886   5.149  0.00  0.00    -0.322 N 
ATOM     10  H   UNL     1       2.346  -6.059   5.502  0.00  0.00    +0.148 HD
ENDROOT
BRANCH   7  11
ATOM     11  C   UNL     1       1.191  -6.205   0.268  0.00  0.00    +0.267 C 
ATOM     12  O   UNL     1       1.653  -5.098   0.069  0.00  0.00    -0.268 OA
ATOM     13  N   UNL     1       0.680  -6.917  -0.756  0.00  0.00    -0.300 N 
ATOM     14  C   UNL     1       0.752  -6.414  -2.137  0.00  0.00    +0.089 C 
ATOM     15  C   UNL     1       1.327  -7.521  -3.027  0.00  0.00    -0.059 C 
ATOM     16  N   UNL     1       0.526  -8.742  -2.867  0.00  0.00    +0.385 N 
ATOM     17  C   UNL     1       0.644  -9.240  -1.491  0.00  0.00    -0.059 C 
ATOM     18  C   UNL     1       0.041  -8.222  -0.525  0.00  0.00    +0.089 C 
ATOM     19  H   UNL     1      -0.441  -8.537  -3.067  0.00  0.00    -0.081 HD
BRANCH  16  20
ATOM     20  C   UNL     1       1.009  -9.767  -3.801  0.00  0.00    -0.065 C 
ATOM     21  C   UNL     1       2.478 -10.077  -3.504  0.00  0.00    -0.009 C 
ATOM     22  C   UNL     1       2.981 -11.145  -4.477  0.00  0.00    -0.012 C 
ATOM     23  C   UNL     1       2.148 -12.418  -4.312  0.00  0.00    +0.007 C 
ATOM     24  C   UNL     1       0.679 -12.108  -4.609  0.00  0.00    -0.012 C 
ATOM     25  C   UNL     1       0.176 -11.040  -3.636  0.00  0.00    -0.009 C 
ATOM     26  C   UNL     1       0.546 -11.595  -6.044  0.00  0.00    +0.007 C 
ATOM     27  C   UNL     1       1.379 -10.322  -6.209  0.00  0.00    -0.012 C 
ATOM     28  C   UNL     1       2.848 -10.631  -5.912  0.00  0.00    +0.007 C 
ATOM     29  C   UNL     1       0.876  -9.254  -5.236  0.00  0.00    -0.009 C 
ENDBRANCH  16  20
ENDBRANCH   7  11
BRANCH   1  33
ATOM     30  C   UNL     1       4.908 -10.899   5.082  0.00  0.00    +0.000 A 
ATOM     31  C   UNL     1       4.507 -10.712   6.391  0.00  0.00    +0.000 A 
ATOM     32  C   UNL     1       3.508  -9.803   6.685  0.00  0.00    +0.005 A 
ATOM     33  C   UNL     1       2.910  -9.081   5.669  0.00  0.00    -0.027 A 
ATOM     34  C   UNL     1       3.312  -9.268   4.359  0.00  0.00    +0.005 A 
ATOM     35  C   UNL     1       4.310 -10.178   4.065  0.00  0.00    +0.000 A 
ENDBRANCH   1  33
BRANCH   3  36
ATOM     36  C   UNL     1      -1.019  -9.557   3.877  0.00  0.00    -0.023 A 
ATOM     37  C   UNL     1      -2.031  -8.620   3.966  0.00  0.00    +0.006 A 
ATOM     38  C   UNL     1      -3.329  -8.971   3.643  0.00  0.00    +0.000 A 
ATOM     39  C   UNL     1      -3.614 -10.259   3.229  0.00  0.00    +0.000 A 
ATOM     40  C   UNL     1      -2.601 -11.196   3.139  0.00  0.00    +0.000 A 
ATOM     41  C   UNL     1      -1.303 -10.844   3.459  0.00  0.00    +0.006 A 
ENDBRANCH   3  36
TORSDOF 4
