REMARK  Name = ZINC39691352
REMARK  8 active torsions:
REMARK  status: ('A' for Active; 'I' for Inactive)
REMARK    1  A    between atoms: C_1  and  N_2
REMARK    2  A    between atoms: C_6  and  C_7
REMARK    3  A    between atoms: C_11  and  C_20
REMARK    4  A    between atoms: N_22  and  C_23
REMARK    5  A    between atoms: C_23  and  C_24
REMARK    6  A    between atoms: C_24  and  N_25
REMARK    7  A    between atoms: C_26  and  C_28
REMARK    8  A    between atoms: C_28  and  C_29
REMARK                            x       y       z     vdW  Elec       q    Type
REMARK                         _______ _______ _______ _____ _____    ______ ____
ROOT
ATOM      1  C   UNL     1      -1.440   4.372   2.240  0.00  0.00    +0.218 C 
ATOM      2  O   UNL     1      -0.299   4.776   2.164  0.00  0.00    -0.275 OA
ATOM      3  N   UNL     1      -2.470   5.227   2.082  0.00  0.00    -0.314 N 
ATOM      4  H   UNL     1      -3.382   4.904   2.143  0.00  0.00    +0.149 HD
ENDROOT
BRANCH   1   9
ATOM      5  C   UNL     1      -0.176  -0.368   2.552  0.00  0.00    +0.263 C 
ATOM      6  O   UNL     1      -0.133  -1.178   3.459  0.00  0.00    -0.268 OA
ATOM      7  N   UNL     1      -0.391   0.935   2.821  0.00  0.00    -0.295 N 
ATOM      8  C   UNL     1      -0.617   2.036   1.856  0.00  0.00    +0.121 C 
ATOM      9  C   UNL     1      -1.706   2.914   2.512  0.00  0.00    +0.100 C 
ATOM     10  C   UNL     1      -1.594   2.618   4.017  0.00  0.00    -0.004 C 
ATOM     11  C   UNL     1      -0.462   1.589   4.150  0.00  0.00    +0.115 C 
ATOM     12  C   UNL     1      -1.245   3.891   4.781  0.00  0.00    -0.010 C 
ATOM     13  C   UNL     1      -1.196   3.583   6.281  0.00  0.00    -0.082 C 
ATOM     14  N   UNL     1      -2.499   3.068   6.719  0.00  0.00    +0.379 N 
ATOM     15  C   UNL     1      -2.785   1.794   6.047  0.00  0.00    -0.082 C 
ATOM     16  C   UNL     1      -2.901   2.026   4.538  0.00  0.00    -0.010 C 
ATOM     17  H   UNL     1      -2.483   2.924   7.718  0.00  0.00    -0.086 HD
ATOM     18  H   UNL     1      -3.218   3.737   6.490  0.00  0.00    -0.086 HD
BRANCH   5  24
ATOM     19  C   UNL     1      -0.010  -3.305   1.579  0.00  0.00    +0.149 C 
ATOM     20  N   UNL     1       0.081  -2.114   0.730  0.00  0.00    -0.346 N 
ATOM     21  C   UNL     1       0.246  -2.113  -0.615  0.00  0.00    +0.086 A 
ATOM     22  C   UNL     1       0.285  -0.831  -1.051  0.00  0.00    +0.020 A 
ATOM     23  C   UNL     1       0.138   0.004   0.061  0.00  0.00    +0.032 A 
ATOM     24  C   UNL     1       0.007  -0.810   1.165  0.00  0.00    +0.104 A 
ENDBRANCH   5  24
ENDBRANCH   1   9
BRANCH   3  25
ATOM     25  C   UNL     1      -2.211   6.644   1.818  0.00  0.00    +0.123 C 
BRANCH  25  26
ATOM     26  C   UNL     1      -3.540   7.389   1.681  0.00  0.00    +0.123 C 
BRANCH  26  27
ATOM     27  N   UNL     1      -3.281   8.806   1.417  0.00  0.00    -0.314 N 
ATOM     28  C   UNL     1      -4.311   9.662   1.259  0.00  0.00    +0.217 C 
ATOM     29  O   UNL     1      -5.452   9.257   1.336  0.00  0.00    -0.275 OA
ATOM     30  H   UNL     1      -2.369   9.130   1.356  0.00  0.00    +0.149 HD
BRANCH  28  31
ATOM     31  C   UNL     1      -4.045  11.120   0.988  0.00  0.00    +0.131 C 
BRANCH  31  32
ATOM     32  C   UNL     1      -5.355  11.853   0.853  0.00  0.00    -0.031 A 
ATOM     33  C   UNL     1      -5.902  12.054  -0.377  0.00  0.00    +0.005 A 
ATOM     34  C   UNL     1      -7.112  12.730  -0.522  0.00  0.00    +0.001 A 
ATOM     35  C   UNL     1      -7.782  13.209   0.562  0.00  0.00    +0.008 A 
ATOM     36  C   UNL     1      -7.247  13.020   1.848  0.00  0.00    -0.018 A 
ATOM     37  C   UNL     1      -6.019  12.327   1.996  0.00  0.00    -0.014 A 
ATOM     38  C   UNL     1      -5.488  12.134   3.282  0.00  0.00    +0.009 A 
ATOM     39  C   UNL     1      -6.160  12.607   4.367  0.00  0.00    +0.001 A 
ATOM     40  C   UNL     1      -7.370  13.283   4.222  0.00  0.00    +0.001 A 
ATOM     41  C   UNL     1      -7.909  13.501   2.991  0.00  0.00    +0.008 A 
ENDBRANCH  31  32
ENDBRANCH  28  31
ENDBRANCH  26  27
ENDBRANCH  25  26
ENDBRANCH   3  25
TORSDOF 7
