REMARK  Name = ZINC06704468
REMARK  4 active torsions:
REMARK  status: ('A' for Active; 'I' for Inactive)
REMARK    1  A    between atoms: C_1  and  C_2
REMARK    2  A    between atoms: C_5  and  N_8
REMARK    3  A    between atoms: C_9  and  C_15
REMARK    4  A    between atoms: C_18  and  N_21
REMARK                            x       y       z     vdW  Elec       q    Type
REMARK                         _______ _______ _______ _____ _____    ______ ____
ROOT
ATOM      1  N   UNL     1      -2.456   3.823   0.044  0.00  0.00    -0.254 N 
ATOM      2  C   UNL     1      -3.728   3.084  -0.064  0.00  0.00    +0.170 C 
ATOM      3  S   UNL     1      -4.939   4.372   0.470  0.00  0.00    -0.124 S 
ATOM      4  C   UNL     1      -3.842   5.824   0.165  0.00  0.00    +0.167 C 
ATOM      5  C   UNL     1      -2.482   5.146   0.150  0.00  0.00    +0.231 C 
ATOM      6  O   UNL     1      -1.457   5.789   0.231  0.00  0.00    -0.274 OA
ENDROOT
BRANCH   1  11
ATOM      7  C   UNL     1       2.490   1.045  -0.016  0.00  0.00    +0.044 C 
ATOM      8  C   UNL     1       1.176   1.783  -0.000  0.00  0.00    -0.050 A 
ATOM      9  C   UNL     1       0.834   2.558   1.092  0.00  0.00    +0.005 A 
ATOM     10  C   UNL     1      -0.372   3.232   1.112  0.00  0.00    +0.024 A 
ATOM     11  C   UNL     1      -1.236   3.138   0.029  0.00  0.00    +0.038 A 
ATOM     12  C   UNL     1      -0.889   2.358  -1.066  0.00  0.00    +0.024 A 
ATOM     13  C   UNL     1       0.316   1.683  -1.078  0.00  0.00    +0.005 A 
ENDBRANCH   1  11
BRANCH   2  14
ATOM     14  C   UNL     1      -3.749   1.903   0.871  0.00  0.00    -0.017 A 
ATOM     15  C   UNL     1      -3.037   1.947   2.056  0.00  0.00    +0.008 A 
ATOM     16  C   UNL     1      -3.058   0.868   2.917  0.00  0.00    +0.023 A 
ATOM     17  C   UNL     1      -3.787  -0.267   2.588  0.00  0.00    +0.025 A 
ATOM     18  C   UNL     1      -4.497  -0.311   1.395  0.00  0.00    +0.023 A 
ATOM     19  C   UNL     1      -4.476   0.774   0.540  0.00  0.00    +0.008 A 
BRANCH  17  20
ATOM     20  N   UNL     1      -3.806  -1.363   3.454  0.00  0.00    -0.358 N 
ATOM     21  H   UNL     1      -4.315  -2.155   3.223  0.00  0.00    +0.142 HD
ATOM     22  H   UNL     1      -3.310  -1.331   4.287  0.00  0.00    +0.142 HD
ENDBRANCH  17  20
ENDBRANCH   2  14
TORSDOF 3
