REMARK  Name = ZINC10273129
REMARK  9 active torsions:
REMARK  status: ('A' for Active; 'I' for Inactive)
REMARK    1  A    between atoms: C_1  and  C_2
REMARK    2  A    between atoms: C_4  and  C_31
REMARK    3  A    between atoms: C_5  and  N_9
REMARK    4  A    between atoms: C_6  and  C_8
REMARK    5  A    between atoms: C_10  and  C_12
REMARK    6  A    between atoms: C_12  and  N_13
REMARK    7  A    between atoms: C_14  and  N_30
REMARK    8  A    between atoms: C_15  and  C_18
REMARK    9  A    between atoms: C_20  and  C_23
REMARK                            x       y       z     vdW  Elec       q    Type
REMARK                         _______ _______ _______ _____ _____    ______ ____
ROOT
ATOM      1  N   UNL     1      -5.999   2.899  -1.138  0.00  0.00    -0.222 N 
ATOM      2  C   UNL     1      -6.821   2.135  -0.379  0.00  0.00    +0.148 A 
ATOM      3  C   UNL     1      -7.598   1.399  -1.261  0.00  0.00    +0.191 A 
ATOM      4  N   UNL     1      -7.234   1.728  -2.513  0.00  0.00    -0.123 NA
ATOM      5  N   UNL     1      -6.300   2.613  -2.476  0.00  0.00    -0.063 NA
ENDROOT
BRANCH   3   6
ATOM      6  C   UNL     1      -8.639   0.426  -0.892  0.00  0.00    +0.282 A 
ATOM      7  N   UNL     1      -9.387  -0.282  -1.722  0.00  0.00    -0.186 NA
ATOM      8  C   UNL     1     -10.190  -1.028  -0.935  0.00  0.00    +0.202 A 
ATOM      9  N   UNL     1      -9.896  -0.742   0.307  0.00  0.00    -0.056 NA
ATOM     10  O   UNL     1      -9.008   0.083   0.353  0.00  0.00    -0.331 OA
BRANCH   8  11
ATOM     11  C   UNL     1     -11.218  -1.995  -1.395  0.00  0.00    +0.023 A 
ATOM     12  C   UNL     1     -11.428  -2.196  -2.758  0.00  0.00    +0.014 A 
ATOM     13  C   UNL     1     -12.381  -3.099  -3.181  0.00  0.00    +0.039 A 
ATOM     14  C   UNL     1     -13.136  -3.798  -2.253  0.00  0.00    +0.123 A 
ATOM     15  C   UNL     1     -12.934  -3.598  -0.897  0.00  0.00    +0.039 A 
ATOM     16  C   UNL     1     -11.979  -2.700  -0.465  0.00  0.00    +0.014 A 
ATOM     17  F   UNL     1     -14.073  -4.677  -2.671  0.00  0.00    -0.205 F 
ENDBRANCH   8  11
ENDBRANCH   3   6
BRANCH   2  18
ATOM     18  N   UNL     1      -6.875   2.096   1.003  0.00  0.00    -0.341 N 
ATOM     19  H   UNL     1      -6.282   2.657   1.527  0.00  0.00    +0.144 HD
ATOM     20  H   UNL     1      -7.506   1.509   1.447  0.00  0.00    +0.144 HD
ENDBRANCH   2  18
BRANCH   1  21
ATOM     21  C   UNL     1      -4.993   3.846  -0.652  0.00  0.00    +0.243 C 
BRANCH  21  23
ATOM     22  N   UNL     1      -2.597   3.812  -0.036  0.00  0.00    -0.284 N 
ATOM     23  C   UNL     1      -3.676   3.135  -0.477  0.00  0.00    +0.239 C 
ATOM     24  O   UNL     1      -3.587   1.952  -0.732  0.00  0.00    -0.273 OA
ATOM     25  H   UNL     1      -2.684   4.739   0.235  0.00  0.00    +0.155 HD
BRANCH  22  30
ATOM     26  C   UNL     1       2.452   1.240   0.233  0.00  0.00    +0.044 C 
ATOM     27  C   UNL     1       1.111   1.923   0.162  0.00  0.00    -0.050 A 
ATOM     28  C   UNL     1       0.499   2.116  -1.063  0.00  0.00    +0.008 A 
ATOM     29  C   UNL     1      -0.728   2.746  -1.133  0.00  0.00    -0.029 A 
ATOM     30  C   UNL     1      -1.352   3.178   0.030  0.00  0.00    +0.039 A 
ATOM     31  C   UNL     1      -0.735   2.982   1.259  0.00  0.00    -0.029 A 
ATOM     32  C   UNL     1       0.494   2.356   1.321  0.00  0.00    +0.008 A 
ATOM     33  C   UNL     1      -1.406   3.454   2.523  0.00  0.00    +0.045 C 
ATOM     34  C   UNL     1      -1.391   2.962  -2.469  0.00  0.00    +0.045 C 
ENDBRANCH  22  30
ENDBRANCH  21  23
ENDBRANCH   1  21
TORSDOF 6
