REMARK  Name = ZINC13591435
REMARK  7 active torsions:
REMARK  status: ('A' for Active; 'I' for Inactive)
REMARK    1  A    between atoms: C_1  and  C_2
REMARK    2  A    between atoms: C_7  and  N_8
REMARK    3  A    between atoms: C_9  and  C_11
REMARK    4  A    between atoms: C_11  and  S_12
REMARK    5  A    between atoms: S_12  and  C_13
REMARK    6  A    between atoms: C_15  and  C_19
REMARK    7  A    between atoms: C_16  and  N_18
REMARK                            x       y       z     vdW  Elec       q    Type
REMARK                         _______ _______ _______ _____ _____    ______ ____
ROOT
ATOM      1  C   UNL     1       3.777  -0.720   0.654  0.00  0.00    +0.137 A 
ATOM      2  N   UNL     1       2.632  -0.066   0.665  0.00  0.00    -0.231 NA
ATOM      3  C   UNL     1       2.495   1.097   0.022  0.00  0.00    +0.100 A 
ATOM      4  C   UNL     1       3.568   1.609  -0.664  0.00  0.00    +0.092 A 
ATOM      5  S   UNL     1       4.800   0.354  -0.342  0.00  0.00    -0.046 S 
ENDROOT
BRANCH   3   6
ATOM      6  C   UNL     1       1.202   1.819   0.044  0.00  0.00    +0.003 A 
ATOM      7  C   UNL     1       0.002   1.107   0.047  0.00  0.00    +0.013 A 
ATOM      8  C   UNL     1      -1.199   1.786   0.061  0.00  0.00    +0.039 A 
ATOM      9  C   UNL     1      -1.215   3.171   0.085  0.00  0.00    +0.123 A 
ATOM     10  C   UNL     1      -0.026   3.882   0.083  0.00  0.00    +0.039 A 
ATOM     11  C   UNL     1       1.181   3.214   0.063  0.00  0.00    +0.013 A 
ATOM     12  F   UNL     1      -2.394   3.830   0.104  0.00  0.00    -0.205 F 
ENDBRANCH   3   6
BRANCH   4  13
ATOM     13  N   UNL     1       3.669   2.785  -1.407  0.00  0.00    -0.351 N 
ATOM     14  H   UNL     1       2.902   3.374  -1.490  0.00  0.00    +0.143 HD
ATOM     15  H   UNL     1       4.506   3.015  -1.840  0.00  0.00    +0.143 HD
ENDBRANCH   4  13
BRANCH   1  16
ATOM     16  S   UNL     1       4.189  -2.252   1.420  0.00  0.00    -0.089 S 
BRANCH  16  17
ATOM     17  C   UNL     1       5.918  -2.405   0.907  0.00  0.00    +0.172 C 
BRANCH  17  19
ATOM     18  N   UNL     1       7.779  -4.006   1.208  0.00  0.00    -0.285 N 
ATOM     19  C   UNL     1       6.497  -3.680   1.462  0.00  0.00    +0.227 C 
ATOM     20  O   UNL     1       5.808  -4.414   2.139  0.00  0.00    -0.275 OA
ATOM     21  H   UNL     1       8.307  -3.462   0.602  0.00  0.00    +0.155 HD
BRANCH  18  28
ATOM     22  C   UNL     1       9.989  -5.255  -0.079  0.00  0.00    +0.045 C 
ATOM     23  C   UNL     1       9.430  -5.769   1.223  0.00  0.00    -0.029 A 
ATOM     24  C   UNL     1       9.992  -6.877   1.827  0.00  0.00    +0.005 A 
ATOM     25  C   UNL     1       9.480  -7.349   3.022  0.00  0.00    +0.000 A 
ATOM     26  C   UNL     1       8.405  -6.713   3.616  0.00  0.00    +0.002 A 
ATOM     27  C   UNL     1       7.843  -5.602   3.020  0.00  0.00    +0.023 A 
ATOM     28  C   UNL     1       8.351  -5.129   1.817  0.00  0.00    +0.036 A 
ENDBRANCH  18  28
ENDBRANCH  17  19
ENDBRANCH  16  17
ENDBRANCH   1  16
TORSDOF 6
