REMARK  Name = ZINC01218938
REMARK  5 active torsions:
REMARK  status: ('A' for Active; 'I' for Inactive)
REMARK    1  A    between atoms: C_1  and  C_2
REMARK    2  A    between atoms: N_4  and  C_5
REMARK    3  A    between atoms: C_5  and  C_7
REMARK    4  A    between atoms: C_5  and  C_14
REMARK    5  A    between atoms: C_23  and  O_24
REMARK                            x       y       z     vdW  Elec       q    Type
REMARK                         _______ _______ _______ _____ _____    ______ ____
ROOT
ATOM      1  C   UNL     1       2.602   3.788  -0.010  0.00  0.00    +0.137 C 
ENDROOT
BRANCH   1   2
ATOM      2  C   UNL     1       1.378   2.912  -0.088  0.00  0.00    +0.021 A 
ATOM      3  C   UNL     1       1.526   1.529  -0.141  0.00  0.00    +0.010 A 
ATOM      4  C   UNL     1       0.441   0.710  -0.212  0.00  0.00    +0.010 A 
ATOM      5  C   UNL     1      -0.849   1.265  -0.238  0.00  0.00    +0.004 A 
ATOM      6  C   UNL     1      -1.995   0.451  -0.317  0.00  0.00    +0.011 A 
ATOM      7  C   UNL     1      -3.218   1.060  -0.339  0.00  0.00    +0.020 A 
ATOM      8  C   UNL     1      -3.303   2.449  -0.284  0.00  0.00    +0.111 A 
ATOM      9  N   UNL     1      -2.234   3.203  -0.200  0.00  0.00    -0.251 NA
ATOM     10  C   UNL     1      -1.009   2.671  -0.180  0.00  0.00    +0.113 A 
ATOM     11  C   UNL     1       0.139   3.488  -0.107  0.00  0.00    +0.148 A 
BRANCH  11  12
ATOM     12  O   UNL     1       0.013   4.840  -0.054  0.00  0.00    -0.504 OA
ATOM     13  H   UNL     1       0.007   5.268  -0.921  0.00  0.00    +0.292 HD
ENDBRANCH  11  12
ENDBRANCH   1   2
BRANCH   1  14
ATOM     14  C   UNL     1       2.916   4.083   1.434  0.00  0.00    -0.023 A 
ATOM     15  C   UNL     1       3.506   3.115   2.225  0.00  0.00    +0.007 A 
ATOM     16  C   UNL     1       3.799   3.388   3.548  0.00  0.00    +0.015 A 
ATOM     17  C   UNL     1       3.492   4.625   4.084  0.00  0.00    +0.018 A 
ATOM     18  C   UNL     1       2.896   5.592   3.293  0.00  0.00    +0.015 A 
ATOM     19  C   UNL     1       2.609   5.321   1.969  0.00  0.00    +0.007 A 
ATOM     20 BR   UNL     1       3.885   4.996   5.896  0.00  0.00    -0.050 Br
ENDBRANCH   1  14
BRANCH   1  24
ATOM     21  C   UNL     1       5.186   2.589  -2.565  0.00  0.00    +0.109 C 
ATOM     22  C   UNL     1       3.957   3.208  -1.950  0.00  0.00    +0.211 C 
ATOM     23  O   UNL     1       3.166   3.808  -2.647  0.00  0.00    -0.276 OA
ATOM     24  N   UNL     1       3.737   3.096  -0.625  0.00  0.00    -0.305 N 
ATOM     25  H   UNL     1       4.331   2.557  -0.079  0.00  0.00    +0.150 HD
ENDBRANCH   1  24
TORSDOF 4
