REMARK  Name = ZINC55135139
REMARK  4 active torsions:
REMARK  status: ('A' for Active; 'I' for Inactive)
REMARK    1  A    between atoms: C_1  and  C_2
REMARK    2  A    between atoms: C_4  and  C_12
REMARK    3  A    between atoms: C_9  and  N_11
REMARK    4  A    between atoms: C_19  and  C_21
REMARK                            x       y       z     vdW  Elec       q    Type
REMARK                         _______ _______ _______ _____ _____    ______ ____
ROOT
ATOM      1  C   UNL     1       0.076   0.101  -2.472  0.00  0.00    +0.219 C 
ATOM      2  O   UNL     1      -0.986   0.673  -2.338  0.00  0.00    -0.275 OA
ATOM      3  N   UNL     1       0.546  -0.167  -3.706  0.00  0.00    -0.290 N 
ATOM      4  C   UNL     1       1.752  -0.986  -3.886  0.00  0.00    +0.108 C 
ATOM      5  C   UNL     1       2.747  -0.214  -4.758  0.00  0.00    +0.019 C 
ATOM      6  C   UNL     1       2.063   0.193  -6.066  0.00  0.00    +0.004 C 
ATOM      7  C   UNL     1       0.876   1.110  -5.759  0.00  0.00    +0.032 C 
ATOM      8  C   UNL     1      -0.142   0.348  -4.898  0.00  0.00    +0.162 C 
ENDROOT
BRANCH   1  11
ATOM      9  C   UNL     1       0.587   1.982  -0.301  0.00  0.00    +0.006 C 
ATOM     10  C   UNL     1       0.389   0.487  -0.042  0.00  0.00    -0.017 C 
ATOM     11  C   UNL     1       0.869  -0.308  -1.258  0.00  0.00    +0.076 C 
ATOM     12  C   UNL     1       0.670  -1.803  -0.999  0.00  0.00    +0.013 C 
ATOM     13  C   UNL     1       1.476  -2.219   0.233  0.00  0.00    -0.001 C 
ATOM     14  C   UNL     1       0.995  -1.423   1.449  0.00  0.00    -0.016 C 
ATOM     15  C   UNL     1       1.194   0.072   1.190  0.00  0.00    -0.072 C 
BRANCH  15  16
ATOM     16  N   UNL     1       0.733   0.836   2.357  0.00  0.00    +0.380 N 
ATOM     17  H   UNL     1      -0.246   0.649   2.516  0.00  0.00    -0.090 HD
ATOM     18  H   UNL     1       1.264   0.561   3.170  0.00  0.00    -0.090 HD
ATOM     19  H   UNL     1       0.864   1.821   2.187  0.00  0.00    -0.090 HD
ENDBRANCH  15  16
ENDBRANCH   1  11
BRANCH   8  20
ATOM     20  C   UNL     1      -1.250   1.280  -4.478  0.00  0.00    +0.231 C 
ATOM     21  O   UNL     1      -0.989   2.294  -3.866  0.00  0.00    -0.274 OA
ATOM     22  N   UNL     1      -2.529   0.987  -4.784  0.00  0.00    -0.328 N 
ATOM     23  H   UNL     1      -2.737   0.176  -5.274  0.00  0.00    +0.145 HD
ATOM     24  H   UNL     1      -3.242   1.587  -4.514  0.00  0.00    +0.145 HD
ENDBRANCH   8  20
TORSDOF 3
