REMARK  Name = ZINC57933618
REMARK  5 active torsions:
REMARK  status: ('A' for Active; 'I' for Inactive)
REMARK    1  A    between atoms: N_9  and  C_14
REMARK    2  A    between atoms: C_14  and  C_15
REMARK    3  A    between atoms: C_15  and  C_17
REMARK    4  A    between atoms: C_15  and  O_19
REMARK    5  A    between atoms: C_17  and  O_18
REMARK                            x       y       z     vdW  Elec       q    Type
REMARK                         _______ _______ _______ _____ _____    ______ ____
ROOT
ATOM      1  C   UNL     1      -0.017   1.380   0.010  0.00  0.00    +0.046 A 
ATOM      2  C   UNL     1       1.175   2.083   0.002  0.00  0.00    +0.051 A 
ATOM      3  C   UNL     1       2.393   1.401  -0.016  0.00  0.00    +0.059 A 
ATOM      4  C   UNL     1       2.404   0.015  -0.021  0.00  0.00    +0.046 A 
ATOM      5  C   UNL     1       1.209  -0.683  -0.012  0.00  0.00    +0.061 A 
ATOM      6  C   UNL     1       0.002  -0.004   0.002  0.00  0.00    +0.061 A 
ATOM      7 CL   UNL     1      -1.490  -0.891   0.011  0.00  0.00    -0.082 Cl
ATOM      8 CL   UNL     1       1.223  -2.419  -0.019  0.00  0.00    -0.082 Cl
ATOM      9  N   UNL     1       3.591   2.126  -0.035  0.00  0.00    -0.266 N 
ATOM     10  C   UNL     1       3.602   3.442   0.249  0.00  0.00    +0.237 C 
ATOM     11  O   UNL     1       4.643   4.061   0.185  0.00  0.00    -0.274 OA
ATOM     12  C   UNL     1       2.335   4.156   0.647  0.00  0.00    +0.198 C 
ATOM     13  N   UNL     1       1.188   3.485   0.016  0.00  0.00    -0.334 N 
ATOM     14  H   UNL     1       0.465   3.997  -0.379  0.00  0.00    +0.147 HD
ENDROOT
BRANCH   9  15
ATOM     15  C   UNL     1       4.845   1.446  -0.367  0.00  0.00    +0.147 C 
BRANCH  15  16
ATOM     16  C   UNL     1       5.076   1.512  -1.878  0.00  0.00    +0.157 C 
BRANCH  16  17
ATOM     17  O   UNL     1       5.268   2.872  -2.272  0.00  0.00    -0.388 OA
ATOM     18  H   UNL     1       6.024   3.301  -1.849  0.00  0.00    +0.210 HD
ENDBRANCH  16  17
BRANCH  16  19
ATOM     19  C   UNL     1       6.318   0.696  -2.240  0.00  0.00    +0.188 C 
BRANCH  19  20
ATOM     20  O   UNL     1       6.468   0.661  -3.661  0.00  0.00    -0.392 OA
ATOM     21  H   UNL     1       7.237   0.159  -3.963  0.00  0.00    +0.210 HD
ENDBRANCH  19  20
ENDBRANCH  16  19
ENDBRANCH  15  16
ENDBRANCH   9  15
TORSDOF 5
