REMARK  Name = ZINC48065871
REMARK  10 active torsions:
REMARK  status: ('A' for Active; 'I' for Inactive)
REMARK    1  A    between atoms: C_1  and  C_2
REMARK    2  A    between atoms: C_2  and  O_3
REMARK    3  A    between atoms: O_3  and  C_4
REMARK    4  A    between atoms: C_4  and  C_6
REMARK    5  A    between atoms: C_7  and  C_8
REMARK    6  A    between atoms: C_11  and  N_14
REMARK    7  A    between atoms: N_17  and  C_18
REMARK    8  A    between atoms: C_18  and  C_19
REMARK    9  A    between atoms: C_19  and  C_21
REMARK   10  A    between atoms: C_19  and  N_22
REMARK                            x       y       z     vdW  Elec       q    Type
REMARK                         _______ _______ _______ _____ _____    ______ ____
ROOT
ATOM      1  N   UNL     1       4.588  -5.239  -7.706  0.00  0.00    -0.269 N 
ATOM      2  C   UNL     1       4.671  -6.580  -7.602  0.00  0.00    +0.304 C 
ATOM      3  O   UNL     1       4.212  -7.143  -6.628  0.00  0.00    -0.253 OA
ATOM      4  N   UNL     1       5.263  -7.296  -8.578  0.00  0.00    -0.301 N 
ATOM      5  H   UNL     1       4.894  -4.795  -8.513  0.00  0.00    +0.156 HD
ATOM      6  H   UNL     1       5.629  -6.846  -9.356  0.00  0.00    +0.150 HD
ENDROOT
BRANCH   1  10
ATOM      7  C   UNL     1       3.017  -2.998  -4.564  0.00  0.00    -0.025 A 
ATOM      8  C   UNL     1       3.744  -4.165  -4.300  0.00  0.00    +0.010 A 
ATOM      9  C   UNL     1       4.261  -4.902  -5.341  0.00  0.00    +0.024 A 
ATOM     10  C   UNL     1       4.062  -4.489  -6.655  0.00  0.00    +0.035 A 
ATOM     11  C   UNL     1       3.340  -3.329  -6.923  0.00  0.00    +0.024 A 
ATOM     12  C   UNL     1       2.814  -2.590  -5.888  0.00  0.00    +0.010 A 
BRANCH   7  14
ATOM     13  C   UNL     1       2.659  -2.604  -2.180  0.00  0.00    +0.092 C 
ATOM     14  C   UNL     1       2.462  -2.208  -3.457  0.00  0.00    +0.015 C 
BRANCH  13  15
ATOM     15  C   UNL     1       2.124  -1.842  -1.111  0.00  0.00    +0.332 C 
ATOM     16  O   UNL     1       1.488  -0.831  -1.343  0.00  0.00    -0.246 OA
BRANCH  15  17
ATOM     17  O   UNL     1       2.320  -2.238   0.164  0.00  0.00    -0.462 OA
BRANCH  17  19
ATOM     18  C   UNL     1       2.078  -2.025   2.559  0.00  0.00    +0.048 C 
ATOM     19  C   UNL     1       1.753  -1.422   1.191  0.00  0.00    +0.229 C 
ENDBRANCH  17  19
ENDBRANCH  15  17
ENDBRANCH  13  15
ENDBRANCH   7  14
ENDBRANCH   1  10
BRANCH   4  20
ATOM     20  C   UNL     1       5.353  -8.754  -8.465  0.00  0.00    +0.090 C 
BRANCH  20  21
ATOM     21  C   UNL     1       6.156  -9.308  -9.644  0.00  0.00    -0.054 C 
ATOM     22  C   UNL     1       6.170 -10.837  -9.577  0.00  0.00    -0.012 C 
BRANCH  21  23
ATOM     23  N   UNL     1       5.536  -8.879 -10.904  0.00  0.00    +0.385 N 
ATOM     24  C   UNL     1       4.197  -9.474 -11.011  0.00  0.00    -0.073 C 
ATOM     25  C   UNL     1       3.430  -8.771 -12.146  0.00  0.00    +0.024 C 
ATOM     26  C   UNL     1       4.339  -8.704 -13.329  0.00  0.00    -0.011 A 
ATOM     27  C   UNL     1       5.682  -8.936 -13.332  0.00  0.00    -0.054 A 
ATOM     28  C   UNL     1       6.330  -8.821 -14.560  0.00  0.00    +0.009 A 
ATOM     29  C   UNL     1       5.627  -8.491 -15.668  0.00  0.00    +0.045 A 
ATOM     30  S   UNL     1       3.971  -8.321 -15.017  0.00  0.00    -0.101 S 
ATOM     31  C   UNL     1       6.385  -9.296 -12.027  0.00  0.00    -0.042 C 
ATOM     32  H   UNL     1       5.453  -7.873 -10.907  0.00  0.00    -0.081 HD
ENDBRANCH  21  23
ENDBRANCH  20  21
ENDBRANCH   4  20
TORSDOF 8
