REMARK  Name = ZINC35937769
REMARK  5 active torsions:
REMARK  status: ('A' for Active; 'I' for Inactive)
REMARK    1  A    between atoms: C_1  and  C_2
REMARK    2  A    between atoms: C_2  and  C_3
REMARK    3  A    between atoms: C_3  and  C_5
REMARK    4  A    between atoms: C_3  and  C_11
REMARK    5  A    between atoms: C_24  and  C_29
REMARK                            x       y       z     vdW  Elec       q    Type
REMARK                         _______ _______ _______ _____ _____    ______ ____
ROOT
ATOM      1  C   UNL     1      -1.538  -2.033   0.127  0.00  0.00    +0.223 C 
ATOM      2  O   UNL     1      -2.032  -2.677  -0.773  0.00  0.00    -0.275 OA
ATOM      3  N   UNL     1      -1.083  -2.657   1.232  0.00  0.00    -0.301 N 
ATOM      4  C   UNL     1      -0.590  -1.884   2.380  0.00  0.00    +0.111 C 
ATOM      5  C   UNL     1       0.818  -2.373   2.735  0.00  0.00    +0.064 C 
ATOM      6  C   UNL     1       0.784  -3.886   2.966  0.00  0.00    +0.102 C 
ATOM      7  C   UNL     1       0.341  -4.588   1.680  0.00  0.00    +0.064 C 
ATOM      8  C   UNL     1      -1.077  -4.124   1.313  0.00  0.00    +0.111 C 
ATOM      9  N   UNL     1       2.129  -4.348   3.330  0.00  0.00    -0.323 N 
ATOM     10  C   UNL     1       2.270  -5.607   3.902  0.00  0.00    +0.041 A 
ATOM     11  C   UNL     1       3.417  -6.364   3.736  0.00  0.00    +0.024 A 
ATOM     12  C   UNL     1       3.504  -7.612   4.323  0.00  0.00    +0.002 A 
ATOM     13  C   UNL     1       2.453  -8.111   5.076  0.00  0.00    +0.004 A 
ATOM     14  C   UNL     1       1.303  -7.369   5.253  0.00  0.00    -0.037 A 
ATOM     15  C   UNL     1       1.203  -6.109   4.669  0.00  0.00    +0.060 A 
ATOM     16  C   UNL     1       0.002  -5.270   4.833  0.00  0.00    +0.248 C 
ATOM     17  O   UNL     1      -0.831  -5.547   5.675  0.00  0.00    -0.270 OA
ATOM     18  N   UNL     1      -0.163  -4.192   4.039  0.00  0.00    -0.290 N 
ATOM     19  C   UNL     1       0.164  -7.918   6.072  0.00  0.00    +0.044 C 
ATOM     20  H   UNL     1       2.904  -3.785   3.175  0.00  0.00    +0.148 HD
ATOM     21  H   UNL     1      -0.925  -3.608   4.182  0.00  0.00    +0.151 HD
ENDROOT
BRANCH   1  22
ATOM     22  C   UNL     1      -1.431  -0.534   0.012  0.00  0.00    +0.105 C 
BRANCH  22  23
ATOM     23  C   UNL     1      -2.615   0.108   0.687  0.00  0.00    -0.036 A 
ATOM     24  C   UNL     1      -3.896  -0.175   0.250  0.00  0.00    +0.004 A 
ATOM     25  C   UNL     1      -4.983   0.414   0.870  0.00  0.00    +0.000 A 
ATOM     26  C   UNL     1      -4.789   1.285   1.925  0.00  0.00    +0.000 A 
ATOM     27  C   UNL     1      -3.508   1.567   2.362  0.00  0.00    +0.000 A 
ATOM     28  C   UNL     1      -2.421   0.975   1.746  0.00  0.00    +0.004 A 
ENDBRANCH  22  23
BRANCH  22  30
ATOM     29  C   UNL     1      -1.159   1.368  -1.586  0.00  0.00    +0.005 C 
ATOM     30  C   UNL     1      -1.409  -0.137  -1.466  0.00  0.00    +0.014 C 
ENDBRANCH  22  30
ENDBRANCH   1  22
TORSDOF 3
