REMARK  Name = ZINC01093524
REMARK  2 active torsions:
REMARK  status: ('A' for Active; 'I' for Inactive)
REMARK    1  A    between atoms: C_3  and  C_8
REMARK    2  A    between atoms: N_12  and  N_16
REMARK                            x       y       z     vdW  Elec       q    Type
REMARK                         _______ _______ _______ _____ _____    ______ ____
ROOT
ATOM      1  C   UNL     1      -0.013   1.076   0.008  0.00  0.00    +0.028 C 
ATOM      2  C   UNL     1      -0.973   1.830  -0.582  0.00  0.00    +0.078 C 
ATOM      3  C   UNL     1      -2.417   1.557  -0.748  0.00  0.00    +0.272 C 
ATOM      4  O   UNL     1      -2.926   0.533  -0.331  0.00  0.00    -0.268 OA
ATOM      5  N   UNL     1      -3.126   2.482  -1.373  0.00  0.00    -0.189 N 
ATOM      6  C   UNL     1      -2.557   3.615  -1.833  0.00  0.00    +0.135 C 
ATOM      7  S   UNL     1      -3.300   4.918  -2.658  0.00  0.00    -0.026 S 
ATOM      8  S   UNL     1      -0.843   3.431  -1.366  0.00  0.00    -0.060 S 
ENDROOT
BRANCH   1  11
ATOM      9  C   UNL     1       3.106   2.847  -1.087  0.00  0.00    +0.002 A 
ATOM     10  C   UNL     1       1.779   2.489  -0.983  0.00  0.00    +0.008 A 
ATOM     11  C   UNL     1       1.401   1.460  -0.113  0.00  0.00    -0.023 A 
ATOM     12  C   UNL     1       2.377   0.796   0.638  0.00  0.00    +0.023 A 
ATOM     13  C   UNL     1       3.702   1.163   0.519  0.00  0.00    +0.018 A 
ATOM     14  C   UNL     1       4.066   2.186  -0.341  0.00  0.00    +0.015 A 
ATOM     15 BR   UNL     1       5.023   0.267   1.532  0.00  0.00    -0.050 Br
ENDBRANCH   1  11
BRANCH   5  16
ATOM     16  N   UNL     1      -4.465   2.285  -1.556  0.00  0.00    -0.246 NA
ATOM     17  H   UNL     1      -4.881   3.064  -2.044  0.00  0.00    +0.141 HD
ATOM     18  H   UNL     1      -4.640   1.419  -2.043  0.00  0.00    +0.141 HD
ENDBRANCH   5  16
TORSDOF 2
