REMARK  Name = ZINC02234366
REMARK  6 active torsions:
REMARK  status: ('A' for Active; 'I' for Inactive)
REMARK    1  A    between atoms: C_1  and  C_2
REMARK    2  A    between atoms: C_2  and  C_26
REMARK    3  A    between atoms: C_12  and  C_15
REMARK    4  A    between atoms: C_18  and  N_21
REMARK    5  A    between atoms: N_21  and  C_22
REMARK    6  A    between atoms: N_21  and  C_23
REMARK                            x       y       z     vdW  Elec       q    Type
REMARK                         _______ _______ _______ _____ _____    ______ ____
ROOT
ATOM      1  C   UNL     1      -0.014   1.573  -0.072  0.00  0.00    +0.041 C 
ATOM      2  C   UNL     1       0.004   0.044  -0.062  0.00  0.00    +0.068 C 
ATOM      3  C   UNL     1       0.708  -0.464  -1.325  0.00  0.00    +0.071 C 
ATOM      4  C   UNL     1       0.927  -1.963  -1.171  0.00  0.00    -0.018 A 
ATOM      5  C   UNL     1       0.847  -2.535   0.053  0.00  0.00    +0.021 A 
ATOM      6  S   UNL     1       1.161  -4.253  -0.228  0.00  0.00    -0.075 S 
ATOM      7  C   UNL     1       1.383  -4.227  -1.873  0.00  0.00    +0.080 A 
ATOM      8  C   UNL     1       1.227  -2.884  -2.250  0.00  0.00    +0.068 A 
ATOM      9  C   UNL     1       1.387  -2.550  -3.684  0.00  0.00    +0.248 C 
ATOM     10  O   UNL     1       1.445  -1.395  -4.063  0.00  0.00    -0.270 OA
ATOM     11  N   UNL     1       1.467  -3.580  -4.554  0.00  0.00    -0.289 N 
ATOM     12  C   UNL     1       1.247  -4.971  -4.176  0.00  0.00    +0.190 C 
ATOM     13  N   UNL     1       1.657  -5.220  -2.782  0.00  0.00    -0.316 N 
ATOM     14  C   UNL     1       0.554  -1.826   1.338  0.00  0.00    +0.203 C 
ATOM     15  O   UNL     1       0.693  -0.415   1.104  0.00  0.00    -0.368 OA
ATOM     16  C   UNL     1      -1.434  -0.480  -0.041  0.00  0.00    +0.041 C 
ATOM     17  H   UNL     1       1.682  -3.384  -5.479  0.00  0.00    +0.151 HD
ATOM     18  H   UNL     1       2.097  -6.043  -2.519  0.00  0.00    +0.149 HD
ENDROOT
BRANCH  12  19
ATOM     19  C   UNL     1      -0.216  -5.298  -4.324  0.00  0.00    -0.009 A 
ATOM     20  C   UNL     1      -0.799  -6.244  -3.501  0.00  0.00    +0.009 A 
ATOM     21  C   UNL     1      -2.140  -6.545  -3.634  0.00  0.00    +0.023 A 
ATOM     22  C   UNL     1      -2.904  -5.897  -4.596  0.00  0.00    +0.029 A 
ATOM     23  C   UNL     1      -2.316  -4.947  -5.421  0.00  0.00    +0.023 A 
ATOM     24  C   UNL     1      -0.975  -4.646  -5.279  0.00  0.00    +0.009 A 
BRANCH  22  25
ATOM     25  N   UNL     1      -4.261  -6.199  -4.734  0.00  0.00    -0.336 N 
ATOM     26  C   UNL     1      -4.851  -7.288  -3.952  0.00  0.00    +0.129 C 
ATOM     27  C   UNL     1      -5.093  -5.428  -5.661  0.00  0.00    +0.129 C 
ENDBRANCH  22  25
ENDBRANCH  12  19
TORSDOF 2
