REMARK  Name = ZINC40218224
REMARK  5 active torsions:
REMARK  status: ('A' for Active; 'I' for Inactive)
REMARK    1  A    between atoms: C_1  and  C_2
REMARK    2  A    between atoms: C_7  and  C_8
REMARK    3  A    between atoms: C_8  and  C_9
REMARK    4  A    between atoms: C_15  and  S_18
REMARK    5  A    between atoms: S_18  and  N_21
REMARK                            x       y       z     vdW  Elec       q    Type
REMARK                         _______ _______ _______ _____ _____    ______ ____
ROOT
ATOM      1  C   UNL     1      -1.391   0.382   2.893  0.00  0.00    +0.220 C 
ATOM      2  O   UNL     1      -2.312   0.049   2.177  0.00  0.00    -0.275 OA
ATOM      3  N   UNL     1      -1.635   1.054   4.036  0.00  0.00    -0.299 N 
ATOM      4  C   UNL     1      -0.529   1.469   4.910  0.00  0.00    +0.108 C 
ATOM      5  C   UNL     1      -0.800   0.952   6.326  0.00  0.00    +0.021 C 
ATOM      6  C   UNL     1      -2.179   1.431   6.785  0.00  0.00    +0.031 C 
ATOM      7  C   UNL     1      -3.253   0.868   5.852  0.00  0.00    +0.165 C 
ATOM      8  C   UNL     1      -3.010   1.390   4.428  0.00  0.00    +0.135 C 
ENDROOT
BRANCH   7   9
ATOM      9  S   UNL     1      -4.890   1.405   6.421  0.00  0.00    +0.031 S 
ATOM     10  O   UNL     1      -5.202   0.790   7.664  0.00  0.00    -0.158 OA
ATOM     11  O   UNL     1      -5.032   2.808   6.251  0.00  0.00    -0.158 OA
BRANCH   9  12
ATOM     12  N   UNL     1      -5.955   0.739   5.342  0.00  0.00    -0.208 NA
ATOM     13  H   UNL     1      -5.626   0.197   4.607  0.00  0.00    +0.144 HD
ATOM     14  H   UNL     1      -6.908   0.890   5.444  0.00  0.00    +0.144 HD
ENDBRANCH   9  12
ENDBRANCH   7   9
BRANCH   1  15
ATOM     15  C   UNL     1       0.025   0.045   2.504  0.00  0.00    +0.131 C 
BRANCH  15  22
ATOM     16  C   UNL     1      -0.018   1.503   0.010  0.00  0.00    +0.044 C 
ATOM     17  C   UNL     1       0.002  -0.004   0.002  0.00  0.00    -0.047 A 
ATOM     18  C   UNL     1       0.006  -0.689  -1.199  0.00  0.00    +0.003 A 
ATOM     19  C   UNL     1       0.025  -2.071  -1.207  0.00  0.00    +0.000 A 
ATOM     20  C   UNL     1       0.040  -2.768  -0.013  0.00  0.00    +0.000 A 
ATOM     21  C   UNL     1       0.037  -2.084   1.188  0.00  0.00    +0.004 A 
ATOM     22  C   UNL     1       0.023  -0.702   1.195  0.00  0.00    -0.036 A 
ENDBRANCH  15  22
ENDBRANCH   1  15
TORSDOF 4
