REMARK  Name = ZINC61121094
REMARK  5 active torsions:
REMARK  status: ('A' for Active; 'I' for Inactive)
REMARK    1  A    between atoms: C_1  and  C_2
REMARK    2  A    between atoms: C_3  and  C_19
REMARK    3  A    between atoms: N_4  and  C_10
REMARK    4  A    between atoms: C_5  and  N_9
REMARK    5  A    between atoms: C_6  and  C_7
REMARK                            x       y       z     vdW  Elec       q    Type
REMARK                         _______ _______ _______ _____ _____    ______ ____
ROOT
ATOM      1  C   UNL     1      -0.018   1.503   0.010  0.00  0.00    +0.047 C 
ATOM      2  C   UNL     1       0.002  -0.004   0.002  0.00  0.00    -0.010 A 
ATOM      3  C   UNL     1       0.008  -0.799  -1.079  0.00  0.00    +0.027 A 
ATOM      4  N   UNL     1       0.028  -2.112  -0.678  0.00  0.00    -0.301 N 
ATOM      5  C   UNL     1       0.035  -2.185   0.680  0.00  0.00    +0.119 A 
ATOM      6  C   UNL     1       0.026  -0.887   1.176  0.00  0.00    +0.094 A 
ATOM      7  C   UNL     1      -0.006  -0.325  -2.510  0.00  0.00    +0.064 C 
ENDROOT
BRANCH   4   8
ATOM      8  C   UNL     1       0.040  -3.216  -1.542  0.00  0.00    +0.054 A 
ATOM      9  C   UNL     1      -1.048  -3.462  -2.369  0.00  0.00    +0.067 A 
ATOM     10  C   UNL     1      -1.036  -4.552  -3.221  0.00  0.00    +0.163 A 
ATOM     11  C   UNL     1       0.062  -5.398  -3.249  0.00  0.00    +0.193 A 
ATOM     12  C   UNL     1       1.148  -5.154  -2.424  0.00  0.00    +0.163 A 
ATOM     13  C   UNL     1       1.140  -4.061  -1.575  0.00  0.00    +0.067 A 
ATOM     14  F   UNL     1       2.217  -5.979  -2.452  0.00  0.00    -0.202 F 
ATOM     15  F   UNL     1       0.072  -6.463  -4.082  0.00  0.00    -0.199 F 
ATOM     16  F   UNL     1      -2.094  -4.792  -4.026  0.00  0.00    -0.202 F 
ENDBRANCH   4   8
BRANCH   5  17
ATOM     17  N   UNL     1       0.055  -3.344   1.433  0.00  0.00    -0.343 N 
ATOM     18  H   UNL     1       0.065  -4.208   0.993  0.00  0.00    +0.144 HD
ATOM     19  H   UNL     1       0.059  -3.293   2.402  0.00  0.00    +0.144 HD
ENDBRANCH   5  17
BRANCH   6  20
ATOM     20  C   UNL     1       0.034  -0.490   2.552  0.00  0.00    +0.103 C 
ATOM     21  N   UNL     1       0.040  -0.176   3.644  0.00  0.00    -0.191 NA
ENDBRANCH   6  20
TORSDOF 3
