REMARK  Name = ZINC59139618
REMARK  9 active torsions:
REMARK  status: ('A' for Active; 'I' for Inactive)
REMARK    1  A    between atoms: C_1  and  C_2
REMARK    2  A    between atoms: C_2  and  O_3
REMARK    3  A    between atoms: O_3  and  C_4
REMARK    4  A    between atoms: C_6  and  C_15
REMARK    5  A    between atoms: C_9  and  O_10
REMARK    6  A    between atoms: O_10  and  C_11
REMARK    7  A    between atoms: C_11  and  C_12
REMARK    8  A    between atoms: N_19  and  C_26
REMARK    9  A    between atoms: N_22  and  C_25
REMARK                            x       y       z     vdW  Elec       q    Type
REMARK                         _______ _______ _______ _____ _____    ______ ____
ROOT
ATOM      1  C   UNL     1       0.700  -1.959   1.569  0.00  0.00    +0.162 A 
ATOM      2  C   UNL     1       0.061  -2.766   0.650  0.00  0.00    +0.057 A 
ATOM      3  C   UNL     1       0.480  -4.094   0.478  0.00  0.00    -0.020 A 
ATOM      4  C   UNL     1       1.547  -4.592   1.242  0.00  0.00    +0.012 A 
ATOM      5  C   UNL     1       2.177  -3.778   2.155  0.00  0.00    +0.050 A 
ATOM      6  C   UNL     1       1.763  -2.461   2.320  0.00  0.00    +0.163 A 
ENDROOT
BRANCH   3   7
ATOM      7  C   UNL     1      -0.193  -4.956  -0.493  0.00  0.00    +0.026 C 
ATOM      8  C   UNL     1      -0.551  -6.244  -0.142  0.00  0.00    +0.100 C 
ATOM      9  C   UNL     1      -0.480  -6.710   1.257  0.00  0.00    +0.257 C 
ATOM     10  O   UNL     1      -0.103  -5.968   2.144  0.00  0.00    -0.269 OA
ATOM     11  N   UNL     1      -0.846  -7.981   1.524  0.00  0.00    -0.252 N 
ATOM     12  C   UNL     1      -1.264  -8.808   0.556  0.00  0.00    +0.148 C 
ATOM     13  S   UNL     1      -1.708 -10.403   0.990  0.00  0.00    -0.018 S 
ATOM     14  N   UNL     1      -1.353  -8.454  -0.734  0.00  0.00    -0.252 N 
ATOM     15  C   UNL     1      -1.027  -7.213  -1.149  0.00  0.00    +0.257 C 
ATOM     16  O   UNL     1      -1.117  -6.903  -2.322  0.00  0.00    -0.269 OA
ATOM     17  C   UNL     1      -1.823  -9.437  -1.714  0.00  0.00    +0.140 C 
ATOM     18  C   UNL     1      -0.784  -8.468   2.904  0.00  0.00    +0.140 C 
ENDBRANCH   3   7
BRANCH   1  19
ATOM     19  O   UNL     1       0.296  -0.671   1.738  0.00  0.00    -0.489 OA
BRANCH  19  21
ATOM     20  C   UNL     1      -1.106   1.239   1.264  0.00  0.00    +0.048 C 
ATOM     21  C   UNL     1      -0.798  -0.224   0.936  0.00  0.00    +0.226 C 
ENDBRANCH  19  21
ENDBRANCH   1  19
BRANCH   6  22
ATOM     22  O   UNL     1       2.393  -1.663   3.219  0.00  0.00    -0.477 OA
BRANCH  22  23
ATOM     23  C   UNL     1       3.474  -2.240   3.954  0.00  0.00    +0.354 C 
BRANCH  23  24
ATOM     24  C   UNL     1       4.046  -1.212   4.896  0.00  0.00    +0.393 C 
ATOM     25  O   UNL     1       3.572  -0.089   4.934  0.00  0.00    -0.243 OA
ATOM     26  O   UNL     1       4.982  -1.503   5.620  0.00  0.00    -0.243 OA
ENDBRANCH  23  24
ENDBRANCH  22  23
ENDBRANCH   6  22
TORSDOF 6
