REMARK  Name = ZINC03110295
REMARK  4 active torsions:
REMARK  status: ('A' for Active; 'I' for Inactive)
REMARK    1  A    between atoms: C_4  and  C_6
REMARK    2  A    between atoms: N_8  and  N_9
REMARK    3  A    between atoms: C_10  and  C_11
REMARK    4  A    between atoms: C_16  and  O_17
REMARK                            x       y       z     vdW  Elec       q    Type
REMARK                         _______ _______ _______ _____ _____    ______ ____
ROOT
ATOM      1  N   UNL     1       0.002  -0.004   0.002  0.00  0.00    -0.188 NA
ATOM      2  C   UNL     1       1.135  -0.638  -0.012  0.00  0.00    +0.142 C 
ENDROOT
BRANCH   2   3
ATOM      3  C   UNL     1       1.155  -2.111  -0.020  0.00  0.00    +0.039 A 
ATOM      4  C   UNL     1       2.372  -2.797  -0.036  0.00  0.00    +0.033 A 
ATOM      5  C   UNL     1       2.384  -4.177  -0.043  0.00  0.00    +0.043 A 
ATOM      6  C   UNL     1       1.194  -4.886  -0.035  0.00  0.00    +0.043 A 
ATOM      7  C   UNL     1      -0.017  -4.218  -0.020  0.00  0.00    +0.084 A 
ATOM      8  C   UNL     1      -0.047  -2.832  -0.007  0.00  0.00    +0.144 A 
ATOM      9 CL   UNL     1      -1.503  -5.117  -0.011  0.00  0.00    -0.080 Cl
ATOM     10 CL   UNL     1       3.897  -5.028  -0.062  0.00  0.00    -0.083 Cl
BRANCH   8  11
ATOM     11  O   UNL     1      -1.236  -2.175   0.014  0.00  0.00    -0.505 OA
ATOM     12  H   UNL     1      -1.593  -1.980  -0.864  0.00  0.00    +0.292 HD
ENDBRANCH   8  11
ENDBRANCH   2   3
BRANCH   1  15
ATOM     13  C   UNL     1      -1.193   2.055   0.019  0.00  0.00    +0.236 C 
ATOM     14  O   UNL     1      -2.235   1.434   0.020  0.00  0.00    -0.274 OA
ATOM     15  N   UNL     1      -0.017   1.397   0.010  0.00  0.00    -0.207 N 
ATOM     16  H   UNL     1       0.816   1.893   0.004  0.00  0.00    +0.177 HD
BRANCH  13  20
ATOM     17  C   UNL     1      -2.423   6.396   1.384  0.00  0.00    +0.007 C 
ATOM     18  C   UNL     1      -2.101   5.178   1.028  0.00  0.00    -0.075 C 
ATOM     19  C   UNL     1      -2.631   4.160   0.037  0.00  0.00    +0.043 C 
ATOM     20  C   UNL     1      -1.214   3.562   0.027  0.00  0.00    +0.085 C 
ATOM     21  C   UNL     1      -1.038   4.174   1.428  0.00  0.00    +0.043 C 
ENDBRANCH  13  20
ENDBRANCH   1  15
TORSDOF 4
