REMARK  Name = ZINC39671935
REMARK  5 active torsions:
REMARK  status: ('A' for Active; 'I' for Inactive)
REMARK    1  A    between atoms: C_6  and  C_10
REMARK    2  A    between atoms: C_10  and  N_11
REMARK    3  A    between atoms: C_12  and  C_14
REMARK    4  A    between atoms: C_25  and  C_27
REMARK    5  A    between atoms: C_30  and  C_34
REMARK                            x       y       z     vdW  Elec       q    Type
REMARK                         _______ _______ _______ _____ _____    ______ ____
ROOT
ATOM      1  C   UNL     1       4.633  -5.694   2.377  0.00  0.00    +0.100 C 
ATOM      2  C   UNL     1       3.326  -5.737   3.199  0.00  0.00    +0.121 C 
ATOM      3  N   UNL     1       2.943  -7.168   3.219  0.00  0.00    -0.296 N 
ATOM      4  C   UNL     1       4.227  -7.891   3.377  0.00  0.00    +0.115 C 
ATOM      5  C   UNL     1       5.223  -7.109   2.499  0.00  0.00    -0.004 C 
ATOM      6  C   UNL     1       5.332  -7.756   1.121  0.00  0.00    -0.010 C 
ATOM      7  C   UNL     1       5.974  -9.139   1.263  0.00  0.00    -0.082 C 
ATOM      8  N   UNL     1       7.304  -9.004   1.869  0.00  0.00    +0.379 N 
ATOM      9  C   UNL     1       7.182  -8.466   3.229  0.00  0.00    -0.082 C 
ATOM     10  C   UNL     1       6.591  -7.054   3.171  0.00  0.00    -0.010 C 
ATOM     11  C   UNL     1       1.706  -7.694   3.116  0.00  0.00    +0.249 C 
ATOM     12  O   UNL     1       1.542  -8.892   3.244  0.00  0.00    -0.270 OA
ATOM     13  H   UNL     1       7.750  -9.909   1.905  0.00  0.00    -0.086 HD
ATOM     14  H   UNL     1       7.865  -8.378   1.310  0.00  0.00    -0.086 HD
ENDROOT
BRANCH  11  15
ATOM     15  C   UNL     1       0.550  -6.815   2.848  0.00  0.00    +0.072 A 
ATOM     16  C   UNL     1       0.509  -5.526   3.385  0.00  0.00    +0.016 A 
ATOM     17  C   UNL     1      -0.573  -4.710   3.130  0.00  0.00    +0.013 A 
ATOM     18  C   UNL     1      -1.619  -5.165   2.346  0.00  0.00    +0.058 A 
ATOM     19  C   UNL     1      -1.588  -6.439   1.811  0.00  0.00    +0.051 A 
ATOM     20  C   UNL     1      -0.507  -7.266   2.052  0.00  0.00    +0.136 A 
ATOM     21  F   UNL     1      -0.474  -8.510   1.524  0.00  0.00    -0.205 F 
BRANCH  18  22
ATOM     22  C   UNL     1      -2.798  -4.266   2.074  0.00  0.00    +0.418 C 
ATOM     23  F   UNL     1      -2.558  -3.521   0.914  0.00  0.00    -0.166 F 
ATOM     24  F   UNL     1      -3.947  -5.044   1.899  0.00  0.00    -0.166 F 
ATOM     25  F   UNL     1      -2.982  -3.398   3.156  0.00  0.00    -0.166 F 
ENDBRANCH  18  22
ENDBRANCH  11  15
BRANCH   1  27
ATOM     26  N   UNL     1       5.263  -4.755   0.176  0.00  0.00    -0.309 N 
ATOM     27  C   UNL     1       4.335  -5.372   0.935  0.00  0.00    +0.219 C 
ATOM     28  O   UNL     1       3.260  -5.668   0.457  0.00  0.00    -0.275 OA
ATOM     29  H   UNL     1       6.123  -4.519   0.558  0.00  0.00    +0.149 HD
BRANCH  26  30
ATOM     30  C   UNL     1       4.974  -4.443  -1.225  0.00  0.00    +0.161 C 
BRANCH  30  36
ATOM     31  C   UNL     1       9.430  -1.075  -3.403  0.00  0.00    +0.005 A 
ATOM     32  C   UNL     1       9.887  -2.309  -3.894  0.00  0.00    +0.018 A 
ATOM     33  C   UNL     1       9.188  -3.438  -3.654  0.00  0.00    +0.092 A 
ATOM     34  N   UNL     1       8.030  -3.398  -2.933  0.00  0.00    -0.306 N 
ATOM     35  C   UNL     1       7.144  -4.368  -2.551  0.00  0.00    +0.117 A 
ATOM     36  C   UNL     1       6.166  -3.760  -1.844  0.00  0.00    +0.077 A 
ATOM     37  N   UNL     1       6.432  -2.453  -1.786  0.00  0.00    -0.231 NA
ATOM     38  C   UNL     1       7.559  -2.209  -2.440  0.00  0.00    +0.138 A 
ATOM     39  C   UNL     1       8.278  -1.021  -2.682  0.00  0.00    +0.047 A 
ENDBRANCH  30  36
ENDBRANCH  26  30
ENDBRANCH   1  27
TORSDOF 5
