REMARK  Name = ZINC40469539
REMARK  4 active torsions:
REMARK  status: ('A' for Active; 'I' for Inactive)
REMARK    1  A    between atoms: C_3  and  N_11
REMARK    2  A    between atoms: C_4  and  C_8
REMARK    3  A    between atoms: C_12  and  C_14
REMARK    4  A    between atoms: C_14  and  N_20
REMARK                            x       y       z     vdW  Elec       q    Type
REMARK                         _______ _______ _______ _____ _____    ______ ____
ROOT
ATOM      1  N   UNL     1       3.479   2.149   0.143  0.00  0.00    -0.286 N 
ATOM      2  C   UNL     1       3.415   3.451  -0.200  0.00  0.00    +0.206 C 
ATOM      3  O   UNL     1       2.338   3.976  -0.390  0.00  0.00    -0.277 OA
ATOM      4  H   UNL     1       4.333   1.748   0.368  0.00  0.00    +0.155 HD
ENDROOT
BRANCH   1   7
ATOM      5  C   UNL     1       0.094   0.942  -0.609  0.00  0.00    +0.022 A 
ATOM      6  C   UNL     1       1.243   1.706  -0.641  0.00  0.00    +0.025 A 
ATOM      7  C   UNL     1       2.319   1.380   0.174  0.00  0.00    +0.048 A 
ATOM      8  C   UNL     1       2.231   0.270   1.031  0.00  0.00    +0.086 A 
ATOM      9  C   UNL     1       1.060  -0.494   1.052  0.00  0.00    +0.037 A 
ATOM     10  C   UNL     1       0.003  -0.155   0.235  0.00  0.00    +0.042 A 
ATOM     11 CL   UNL     1      -1.450  -1.105   0.263  0.00  0.00    -0.084 Cl
BRANCH   8  12
ATOM     12  C   UNL     1       3.364  -0.086   1.900  0.00  0.00    +0.388 C 
ATOM     13  O   UNL     1       3.329  -1.116   2.559  0.00  0.00    -0.241 OA
ATOM     14  O   UNL     1       4.341   0.648   1.963  0.00  0.00    -0.241 OA
ENDBRANCH   8  12
ENDBRANCH   1   7
BRANCH   2  15
ATOM     15  C   UNL     1       4.681   4.255  -0.347  0.00  0.00    +0.007 C 
ATOM     16  C   UNL     1       5.178   4.682   1.036  0.00  0.00    -0.004 C 
ATOM     17  C   UNL     1       4.108   5.536   1.720  0.00  0.00    -0.001 C 
ATOM     18  C   UNL     1       3.829   6.778   0.872  0.00  0.00    -0.000 C 
ATOM     19  C   UNL     1       3.332   6.351  -0.511  0.00  0.00    -0.001 C 
ATOM     20  C   UNL     1       4.401   5.497  -1.195  0.00  0.00    -0.004 C 
BRANCH  15  21
ATOM     21  N   UNL     1       5.708   3.434  -1.004  0.00  0.00    +0.388 N 
ATOM     22  H   UNL     1       5.380   3.153  -1.916  0.00  0.00    -0.089 HD
ATOM     23  H   UNL     1       6.556   3.973  -1.103  0.00  0.00    -0.089 HD
ATOM     24  H   UNL     1       5.892   2.615  -0.445  0.00  0.00    -0.089 HD
ENDBRANCH  15  21
ENDBRANCH   2  15
TORSDOF 4
