REMARK  Name = ZINC39688543
REMARK  12 active torsions:
REMARK  status: ('A' for Active; 'I' for Inactive)
REMARK    1  A    between atoms: C_1  and  C_2
REMARK    2  A    between atoms: C_2  and  C_4
REMARK    3  A    between atoms: C_2  and  N_12
REMARK    4  A    between atoms: C_4  and  C_5
REMARK    5  A    between atoms: C_13  and  C_15
REMARK    6  A    between atoms: C_26  and  C_28
REMARK    7  A    between atoms: C_30  and  O_38
REMARK    8  A    between atoms: C_31  and  O_36
REMARK    9  A    between atoms: C_32  and  O_34
REMARK   10  A    between atoms: O_34  and  C_35
REMARK   11  A    between atoms: O_36  and  C_37
REMARK   12  A    between atoms: O_38  and  C_39
REMARK                            x       y       z     vdW  Elec       q    Type
REMARK                         _______ _______ _______ _____ _____    ______ ____
ROOT
ATOM      1  C   UNL     1       0.566  -0.458  -3.532  0.00  0.00    +0.100 C 
ATOM      2  C   UNL     1       1.779   0.319  -4.090  0.00  0.00    +0.121 C 
ATOM      3  N   UNL     1       1.670   0.180  -5.561  0.00  0.00    -0.296 N 
ATOM      4  C   UNL     1       0.217   0.298  -5.835  0.00  0.00    +0.115 C 
ATOM      5  C   UNL     1      -0.457  -0.470  -4.681  0.00  0.00    -0.004 C 
ATOM      6  C   UNL     1      -0.759  -1.904  -5.105  0.00  0.00    -0.010 C 
ATOM      7  C   UNL     1      -1.820  -1.891  -6.209  0.00  0.00    -0.082 C 
ATOM      8  N   UNL     1      -3.038  -1.240  -5.712  0.00  0.00    +0.379 N 
ATOM      9  C   UNL     1      -2.761   0.165  -5.393  0.00  0.00    -0.082 C 
ATOM     10  C   UNL     1      -1.739   0.240  -4.255  0.00  0.00    -0.010 C 
ATOM     11  C   UNL     1       2.665  -0.011  -6.449  0.00  0.00    +0.247 C 
ATOM     12  O   UNL     1       3.799  -0.210  -6.058  0.00  0.00    -0.270 OA
ATOM     13  H   UNL     1      -3.756  -1.288  -6.419  0.00  0.00    -0.086 HD
ATOM     14  H   UNL     1      -3.357  -1.716  -4.881  0.00  0.00    -0.086 HD
ENDROOT
BRANCH  11  15
ATOM     15  C   UNL     1       2.379   0.021  -7.897  0.00  0.00    +0.044 A 
ATOM     16  C   UNL     1       1.238   0.672  -8.370  0.00  0.00    +0.062 A 
ATOM     17  C   UNL     1       0.972   0.702  -9.726  0.00  0.00    +0.166 A 
ATOM     18  C   UNL     1       1.841   0.082 -10.620  0.00  0.00    +0.204 A 
ATOM     19  C   UNL     1       2.979  -0.568 -10.151  0.00  0.00    +0.166 A 
ATOM     20  C   UNL     1       3.253  -0.595  -8.796  0.00  0.00    +0.062 A 
BRANCH  19  21
ATOM     21  O   UNL     1       3.826  -1.173 -11.027  0.00  0.00    -0.491 OA
ATOM     22  C   UNL     1       4.975  -1.821 -10.477  0.00  0.00    +0.277 C 
ENDBRANCH  19  21
BRANCH  18  23
ATOM     23  O   UNL     1       1.578   0.112 -11.953  0.00  0.00    -0.488 OA
ATOM     24  C   UNL     1       2.114   1.208 -12.696  0.00  0.00    +0.277 C 
ENDBRANCH  18  23
BRANCH  17  25
ATOM     25  O   UNL     1      -0.139   1.335 -10.188  0.00  0.00    -0.491 OA
ATOM     26  C   UNL     1      -0.987   1.949  -9.215  0.00  0.00    +0.277 C 
ENDBRANCH  17  25
ENDBRANCH  11  15
BRANCH   1  28
ATOM     27  N   UNL     1      -0.549  -0.463  -1.324  0.00  0.00    -0.312 N 
ATOM     28  C   UNL     1      -0.004   0.250  -2.330  0.00  0.00    +0.218 C 
ATOM     29  O   UNL     1       0.030   1.460  -2.267  0.00  0.00    -0.275 OA
ATOM     30  H   UNL     1      -0.576  -1.431  -1.375  0.00  0.00    +0.149 HD
BRANCH  27  32
ATOM     31  C   UNL     1       0.017   0.507   0.848  0.00  0.00    +0.028 C 
ATOM     32  C   UNL     1      -1.103   0.225  -0.155  0.00  0.00    +0.074 C 
BRANCH  32  33
ATOM     33  C   UNL     1      -2.165  -0.658   0.501  0.00  0.00    +0.057 C 
BRANCH  33  34
ATOM     34  C   UNL     1      -3.326  -0.835  -0.444  0.00  0.00    -0.045 A 
ATOM     35  C   UNL     1      -4.379   0.061  -0.419  0.00  0.00    +0.006 A 
ATOM     36  C   UNL     1      -5.443  -0.100  -1.286  0.00  0.00    +0.038 A 
ATOM     37  C   UNL     1      -5.455  -1.157  -2.179  0.00  0.00    +0.123 A 
ATOM     38  C   UNL     1      -4.400  -2.054  -2.203  0.00  0.00    +0.038 A 
ATOM     39  C   UNL     1      -3.334  -1.888  -1.339  0.00  0.00    +0.006 A 
ATOM     40  F   UNL     1      -6.495  -1.315  -3.026  0.00  0.00    -0.205 F 
ENDBRANCH  33  34
ENDBRANCH  32  33
ENDBRANCH  27  32
ENDBRANCH   1  28
TORSDOF 8
