REMARK  Name = ZINC04143867
REMARK  8 active torsions:
REMARK  status: ('A' for Active; 'I' for Inactive)
REMARK    1  A    between atoms: C_1  and  O_2
REMARK    2  A    between atoms: O_2  and  C_3
REMARK    3  A    between atoms: C_5  and  C_10
REMARK    4  A    between atoms: C_8  and  O_9
REMARK    5  A    between atoms: C_12  and  C_24
REMARK    6  A    between atoms: C_14  and  C_19
REMARK    7  A    between atoms: C_14  and  O_23
REMARK    8  A    between atoms: C_24  and  C_26
REMARK                            x       y       z     vdW  Elec       q    Type
REMARK                         _______ _______ _______ _____ _____    ______ ____
ROOT
ATOM      1  C   UNL     1      -2.283   4.293   0.257  0.00  0.00    +0.120 C 
ATOM      2  C   UNL     1      -3.079   4.054   1.544  0.00  0.00    +0.144 C 
ATOM      3  C   UNL     1      -4.558   4.336   1.263  0.00  0.00    +0.243 C 
ATOM      4  N   UNL     1      -4.998   3.511   0.136  0.00  0.00    -0.264 N 
ATOM      5  C   UNL     1      -4.144   3.133  -0.827  0.00  0.00    +0.302 C 
ATOM      6  O   UNL     1      -4.563   2.457  -1.746  0.00  0.00    -0.253 OA
ATOM      7  N   UNL     1      -2.846   3.471  -0.816  0.00  0.00    -0.292 N 
ATOM      8  H   UNL     1      -5.925   3.232   0.085  0.00  0.00    +0.153 HD
ATOM      9  H   UNL     1      -2.269   3.164  -1.532  0.00  0.00    +0.151 HD
ENDROOT
BRANCH   1  12
ATOM     10  C   UNL     1       1.405   4.532   1.041  0.00  0.00    +0.162 A 
ATOM     11  C   UNL     1       0.080   4.880   0.837  0.00  0.00    +0.055 A 
ATOM     12  C   UNL     1      -0.841   3.913   0.478  0.00  0.00    -0.023 A 
ATOM     13  C   UNL     1      -0.441   2.599   0.316  0.00  0.00    +0.009 A 
ATOM     14  C   UNL     1       0.879   2.245   0.523  0.00  0.00    +0.049 A 
ATOM     15  C   UNL     1       1.807   3.209   0.883  0.00  0.00    +0.158 A 
BRANCH  10  17
ATOM     16  C   UNL     1       1.829   6.819   1.538  0.00  0.00    +0.277 C 
ATOM     17  O   UNL     1       2.312   5.482   1.394  0.00  0.00    -0.491 OA
ENDBRANCH  10  17
BRANCH  15  18
ATOM     18  O   UNL     1       3.107   2.863   1.081  0.00  0.00    -0.503 OA
ATOM     19  H   UNL     1       3.654   2.917   0.285  0.00  0.00    +0.292 HD
ENDBRANCH  15  18
ENDBRANCH   1  12
BRANCH   3  20
ATOM     20  C   UNL     1      -5.388   3.993   2.502  0.00  0.00    +0.436 C 
ATOM     21  F   UNL     1      -5.324   2.616   2.740  0.00  0.00    -0.166 F 
ATOM     22  F   UNL     1      -4.881   4.683   3.608  0.00  0.00    -0.166 F 
ATOM     23  F   UNL     1      -6.719   4.368   2.289  0.00  0.00    -0.166 F 
ENDBRANCH   3  20
BRANCH   3  24
ATOM     24  O   UNL     1      -4.730   5.717   0.939  0.00  0.00    -0.364 OA
ATOM     25  H   UNL     1      -5.644   5.964   0.745  0.00  0.00    +0.212 HD
ENDBRANCH   3  24
BRANCH   2  26
ATOM     26  C   UNL     1      -2.911   2.623   1.985  0.00  0.00    +0.173 C 
ATOM     27  O   UNL     1      -3.298   1.720   1.273  0.00  0.00    -0.292 OA
BRANCH  26  28
ATOM     28  C   UNL     1      -2.279   2.320   3.278  0.00  0.00    +0.018 A 
ATOM     29  C   UNL     1      -1.718   3.348   4.044  0.00  0.00    +0.013 A 
ATOM     30  C   UNL     1      -1.132   3.058   5.256  0.00  0.00    +0.020 A 
ATOM     31  C   UNL     1      -1.086   1.750   5.713  0.00  0.00    +0.041 A 
ATOM     32  C   UNL     1      -1.634   0.726   4.957  0.00  0.00    +0.020 A 
ATOM     33  C   UNL     1      -2.229   1.002   3.745  0.00  0.00    +0.013 A 
ATOM     34 CL   UNL     1      -0.338   1.393   7.238  0.00  0.00    -0.084 Cl
ENDBRANCH  26  28
ENDBRANCH   2  26
TORSDOF 7
