REMARK  Name = ZINC16449019
REMARK  2 active torsions:
REMARK  status: ('A' for Active; 'I' for Inactive)
REMARK    1  A    between atoms: C_4  and  O_20
REMARK    2  A    between atoms: C_5  and  C_7
REMARK                            x       y       z     vdW  Elec       q    Type
REMARK                         _______ _______ _______ _____ _____    ______ ____
ROOT
ATOM      1  C   UNL     1       1.253  -2.153  -0.023  0.00  0.00    +0.030 C 
ATOM      2  C   UNL     1       0.099  -2.854   0.087  0.00  0.00    +0.060 C 
ATOM      3  C   UNL     1      -0.117  -4.319   0.208  0.00  0.00    +0.162 C 
ATOM      4  N   UNL     1       0.884  -5.173   0.223  0.00  0.00    -0.281 NA
ATOM      5  N   UNL     1      -1.378  -4.714   0.301  0.00  0.00    -0.206 NA
ATOM      6  C   UNL     1      -2.388  -3.866   0.288  0.00  0.00    +0.164 C 
ATOM      7  S   UNL     1      -1.592  -2.275   0.136  0.00  0.00    -0.051 S 
ATOM      8  N   UNL     1      -3.728  -4.140   0.375  0.00  0.00    -0.305 N 
ATOM      9  C   UNL     1      -4.727  -3.060   0.337  0.00  0.00    +0.135 C 
ATOM     10  C   UNL     1      -5.787  -3.418  -0.711  0.00  0.00    +0.179 C 
ATOM     11  O   UNL     1      -6.284  -4.732  -0.447  0.00  0.00    -0.377 OA
ATOM     12  C   UNL     1      -5.297  -5.761  -0.546  0.00  0.00    +0.179 C 
ATOM     13  C   UNL     1      -4.212  -5.524   0.504  0.00  0.00    +0.135 C 
ATOM     14  H   UNL     1       0.709  -6.124   0.303  0.00  0.00    +0.188 HD
ENDROOT
BRANCH   1  19
ATOM     15  C   UNL     1       0.021   1.239  -1.037  0.00  0.00    +0.001 A 
ATOM     16  C   UNL     1       1.137   2.020  -0.783  0.00  0.00    +0.004 A 
ATOM     17  C   UNL     1       2.292   1.449  -0.282  0.00  0.00    +0.046 A 
ATOM     18  C   UNL     1       2.341   0.087  -0.030  0.00  0.00    +0.124 A 
ATOM     19  C   UNL     1       1.213  -0.708  -0.285  0.00  0.00    +0.018 A 
ATOM     20  C   UNL     1       0.051  -0.117  -0.792  0.00  0.00    +0.011 A 
BRANCH  18  21
ATOM     21  O   UNL     1       3.475  -0.475   0.461  0.00  0.00    -0.506 OA
ATOM     22  H   UNL     1       3.518  -0.495   1.427  0.00  0.00    +0.292 HD
ENDBRANCH  18  21
ENDBRANCH   1  19
TORSDOF 2
