REMARK  Name = ZINC67357892
REMARK  7 active torsions:
REMARK  status: ('A' for Active; 'I' for Inactive)
REMARK    1  A    between atoms: C_1  and  C_2
REMARK    2  A    between atoms: C_5  and  N_9
REMARK    3  A    between atoms: C_10  and  C_12
REMARK    4  A    between atoms: C_12  and  C_13
REMARK    5  A    between atoms: C_13  and  N_14
REMARK    6  A    between atoms: N_17  and  C_18
REMARK    7  A    between atoms: C_18  and  C_19
REMARK                            x       y       z     vdW  Elec       q    Type
REMARK                         _______ _______ _______ _____ _____    ______ ____
ROOT
ATOM      1  N   UNL     1      -0.330  -8.309  -2.633  0.00  0.00    -0.299 N 
ATOM      2  C   UNL     1      -0.429  -8.977  -3.799  0.00  0.00    +0.300 C 
ATOM      3  O   UNL     1      -0.442  -8.366  -4.851  0.00  0.00    -0.253 OA
ATOM      4  N   UNL     1      -0.513 -10.322  -3.800  0.00  0.00    -0.292 N 
ATOM      5  H   UNL     1      -0.319  -8.796  -1.794  0.00  0.00    +0.150 HD
ATOM      6  H   UNL     1      -0.502 -10.809  -2.962  0.00  0.00    +0.151 HD
ENDROOT
BRANCH   1   7
ATOM      7  C   UNL     1      -0.238  -6.847  -2.632  0.00  0.00    +0.115 C 
BRANCH   7   8
ATOM      8  C   UNL     1      -0.136  -6.343  -1.191  0.00  0.00    +0.115 C 
BRANCH   8  10
ATOM      9  N   UNL     1       0.057  -4.171  -0.023  0.00  0.00    -0.284 N 
ATOM     10  C   UNL     1      -0.042  -4.839  -1.190  0.00  0.00    +0.219 C 
ATOM     11  O   UNL     1      -0.055  -4.230  -2.238  0.00  0.00    -0.275 OA
ATOM     12  H   UNL     1       0.149  -4.660   0.809  0.00  0.00    +0.155 HD
BRANCH   9  17
ATOM     13  C   UNL     1      -0.064   1.502   0.016  0.00  0.00    +0.044 C 
ATOM     14  C   UNL     1      -0.031  -0.005   0.006  0.00  0.00    -0.049 A 
ATOM     15  C   UNL     1      -0.622  -0.701  -1.033  0.00  0.00    +0.005 A 
ATOM     16  C   UNL     1      -0.594  -2.082  -1.045  0.00  0.00    +0.025 A 
ATOM     17  C   UNL     1       0.028  -2.772  -0.014  0.00  0.00    +0.052 A 
ATOM     18  C   UNL     1       0.621  -2.070   1.029  0.00  0.00    +0.062 A 
ATOM     19  C   UNL     1       0.595  -0.688   1.032  0.00  0.00    +0.025 A 
ATOM     20 CL   UNL     1       1.401  -2.928   2.321  0.00  0.00    -0.082 Cl
ENDBRANCH   9  17
ENDBRANCH   8  10
ENDBRANCH   7   8
ENDBRANCH   1   7
BRANCH   4  21
ATOM     21  C   UNL     1      -0.621 -11.048  -5.068  0.00  0.00    +0.182 C 
BRANCH  21  22
ATOM     22  C   UNL     1      -0.700 -12.528  -4.794  0.00  0.00    +0.151 A 
ATOM     23  N   UNL     1       0.308 -13.352  -4.699  0.00  0.00    -0.133 NA
ATOM     24  N   UNL     1      -0.126 -14.539  -4.460  0.00  0.00    -0.134 NA
ATOM     25  C   UNL     1      -1.431 -14.525  -4.394  0.00  0.00    +0.134 A 
ATOM     26  N   UNL     1      -1.830 -13.250  -4.595  0.00  0.00    -0.313 N 
ATOM     27  C   UNL     1      -3.292 -13.135  -4.523  0.00  0.00    +0.125 C 
ATOM     28  C   UNL     1      -3.828 -14.575  -4.673  0.00  0.00    +0.029 C 
ATOM     29  C   UNL     1      -2.635 -15.415  -4.171  0.00  0.00    +0.078 C 
ENDBRANCH  21  22
ENDBRANCH   4  21
TORSDOF 6
