REMARK  Name = ZINC16103268
REMARK  9 active torsions:
REMARK  status: ('A' for Active; 'I' for Inactive)
REMARK    1  A    between atoms: C_1  and  C_2
REMARK    2  A    between atoms: C_4  and  N_11
REMARK    3  A    between atoms: C_6  and  C_8
REMARK    4  A    between atoms: C_8  and  C_9
REMARK    5  A    between atoms: C_8  and  C_10
REMARK    6  A    between atoms: C_17  and  C_19
REMARK    7  A    between atoms: C_19  and  C_20
REMARK    8  A    between atoms: C_20  and  C_22
REMARK    9  A    between atoms: C_20  and  N_29
REMARK                            x       y       z     vdW  Elec       q    Type
REMARK                         _______ _______ _______ _____ _____    ______ ____
ROOT
ATOM      1  N   UNL     1       3.457  -0.552  -0.313  0.00  0.00    -0.312 N 
ATOM      2  C   UNL     1       4.350  -0.218  -1.431  0.00  0.00    +0.125 C 
ATOM      3  C   UNL     1       5.694  -0.928  -1.238  0.00  0.00    +0.126 C 
ATOM      4  N   UNL     1       5.441  -2.365  -1.052  0.00  0.00    -0.298 N 
ATOM      5  C   UNL     1       4.453  -2.773  -0.041  0.00  0.00    +0.126 C 
ATOM      6  C   UNL     1       3.158  -1.990  -0.282  0.00  0.00    +0.125 C 
ATOM      7  C   UNL     1       6.096  -3.284  -1.789  0.00  0.00    +0.218 C 
ATOM      8  O   UNL     1       5.875  -4.464  -1.623  0.00  0.00    -0.276 OA
ENDROOT
BRANCH   1  12
ATOM      9  C   UNL     1       1.162   3.798  -0.500  0.00  0.00    +0.066 C 
ATOM     10  C   UNL     1       1.158   2.292  -0.458  0.00  0.00    +0.044 A 
ATOM     11  C   UNL     1       2.347   1.591  -0.404  0.00  0.00    +0.066 A 
ATOM     12  C   UNL     1       2.293   0.196  -0.367  0.00  0.00    +0.125 A 
ATOM     13  N   UNL     1       1.105  -0.402  -0.384  0.00  0.00    -0.217 NA
ATOM     14  C   UNL     1      -0.004   0.306  -0.435  0.00  0.00    +0.134 A 
ATOM     15  N   UNL     1       0.013   1.624  -0.471  0.00  0.00    -0.237 NA
BRANCH  14  16
ATOM     16  C   UNL     1      -1.331  -0.409  -0.453  0.00  0.00    +0.051 C 
ATOM     17  C   UNL     1      -2.157   0.018   0.761  0.00  0.00    +0.015 C 
ATOM     18  C   UNL     1      -2.085  -0.052  -1.735  0.00  0.00    +0.015 C 
ENDBRANCH  14  16
ENDBRANCH   1  12
BRANCH   7  19
ATOM     19  C   UNL     1       7.104  -2.843  -2.820  0.00  0.00    +0.123 C 
BRANCH  19  20
ATOM     20  C   UNL     1       7.698  -4.073  -3.510  0.00  0.00    +0.113 C 
BRANCH  20  21
ATOM     21  C   UNL     1       8.792  -3.641  -4.452  0.00  0.00    -0.027 A 
ATOM     22  C   UNL     1       9.194  -4.479  -5.475  0.00  0.00    +0.007 A 
ATOM     23  C   UNL     1      10.193  -4.080  -6.343  0.00  0.00    +0.020 A 
ATOM     24  C   UNL     1      10.799  -2.847  -6.180  0.00  0.00    +0.041 A 
ATOM     25  C   UNL     1      10.401  -2.011  -5.152  0.00  0.00    +0.020 A 
ATOM     26  C   UNL     1       9.397  -2.408  -4.289  0.00  0.00    +0.007 A 
ATOM     27 CL   UNL     1      12.060  -2.350  -7.265  0.00  0.00    -0.084 Cl
ENDBRANCH  20  21
BRANCH  20  28
ATOM     28  N   UNL     1       6.649  -4.764  -4.263  0.00  0.00    -0.292 N 
ATOM     29  C   UNL     1       6.025  -4.137  -5.280  0.00  0.00    +0.298 C 
ATOM     30  O   UNL     1       6.388  -3.029  -5.626  0.00  0.00    -0.253 OA
ATOM     31  N   UNL     1       4.997  -4.737  -5.913  0.00  0.00    -0.313 N 
ATOM     32  H   UNL     1       6.405  -5.674  -4.031  0.00  0.00    +0.151 HD
ATOM     33  H   UNL     1       4.707  -5.621  -5.637  0.00  0.00    +0.146 HD
ATOM     34  H   UNL     1       4.548  -4.286  -6.644  0.00  0.00    +0.146 HD
ENDBRANCH  20  28
ENDBRANCH  19  20
ENDBRANCH   7  19
TORSDOF 6
