REMARK  Name = ZINC25401661
REMARK  7 active torsions:
REMARK  status: ('A' for Active; 'I' for Inactive)
REMARK    1  A    between atoms: C_1  and  C_2
REMARK    2  A    between atoms: C_3  and  C_11
REMARK    3  A    between atoms: N_13  and  N_14
REMARK    4  A    between atoms: C_15  and  C_17
REMARK    5  A    between atoms: C_22  and  N_23
REMARK    6  A    between atoms: N_23  and  S_24
REMARK    7  A    between atoms: S_24  and  C_27
REMARK                            x       y       z     vdW  Elec       q    Type
REMARK                         _______ _______ _______ _____ _____    ______ ____
ROOT
ATOM      1  N   UNL     1      -3.561   2.522   0.090  0.00  0.00    -0.230 N 
ATOM      2  C   UNL     1      -4.777   1.970  -0.092  0.00  0.00    +0.262 C 
ATOM      3  O   UNL     1      -4.899   0.760  -0.107  0.00  0.00    -0.269 OA
ATOM      4  H   UNL     1      -3.451   3.617   0.104  0.00  0.00    +0.173 HD
ENDROOT
BRANCH   2   5
ATOM      5  C   UNL     1      -5.959   2.833  -0.275  0.00  0.00    +0.060 A 
ATOM      6  C   UNL     1      -5.824   4.223  -0.253  0.00  0.00    +0.015 A 
ATOM      7  C   UNL     1      -6.931   5.024  -0.429  0.00  0.00    +0.001 A 
ATOM      8  C   UNL     1      -8.182   4.457  -0.617  0.00  0.00    +0.002 A 
ATOM      9  C   UNL     1      -8.332   3.086  -0.636  0.00  0.00    +0.025 A 
ATOM     10  C   UNL     1      -7.227   2.262  -0.465  0.00  0.00    +0.060 A 
BRANCH  10  11
ATOM     11  N   UNL     1      -7.375   0.882  -0.483  0.00  0.00    -0.216 N 
ATOM     12  H   UNL     1      -6.758   0.253   0.175  0.00  0.00    +0.174 HD
BRANCH  11  13
ATOM     13  S   UNL     1      -8.483   0.181  -1.496  0.00  0.00    +0.072 S 
ATOM     14  O   UNL     1      -8.309  -1.224  -1.378  0.00  0.00    -0.150 OA
ATOM     15  O   UNL     1      -9.727   0.819  -1.240  0.00  0.00    -0.150 OA
BRANCH  13  16
ATOM     16  C   UNL     1      -8.026   0.609  -3.143  0.00  0.00    +0.109 A 
ATOM     17  C   UNL     1      -8.534   1.756  -3.725  0.00  0.00    +0.031 A 
ATOM     18  C   UNL     1      -8.172   2.094  -5.015  0.00  0.00    +0.040 A 
ATOM     19  C   UNL     1      -7.311   1.279  -5.729  0.00  0.00    +0.124 A 
ATOM     20  C   UNL     1      -6.807   0.128  -5.147  0.00  0.00    +0.040 A 
ATOM     21  C   UNL     1      -7.166  -0.206  -3.855  0.00  0.00    +0.031 A 
ATOM     22  F   UNL     1      -6.960   1.607  -6.992  0.00  0.00    -0.205 F 
ENDBRANCH  13  16
ENDBRANCH  11  13
ENDBRANCH  10  11
ENDBRANCH   2   5
BRANCH   1  25
ATOM     23  C   UNL     1      -1.223   2.255   0.447  0.00  0.00    +0.279 C 
ATOM     24  O   UNL     1      -1.112   3.463   0.553  0.00  0.00    -0.267 OA
ATOM     25  N   UNL     1      -2.438   1.703   0.264  0.00  0.00    -0.229 N 
ATOM     26  H   UNL     1      -2.549   0.608   0.250  0.00  0.00    +0.173 HD
BRANCH  23  29
ATOM     27  C   UNL     1       0.537   1.417  -1.989  0.00  0.00    +0.068 C 
ATOM     28  C   UNL     1       0.731   1.036  -0.543  0.00  0.00    +0.069 A 
ATOM     29  C   UNL     1      -0.072   1.429   0.515  0.00  0.00    +0.133 A 
ATOM     30  N   UNL     1       0.468   0.853   1.650  0.00  0.00    -0.295 N 
ATOM     31  C   UNL     1       0.104   0.892   2.959  0.00  0.00    +0.093 A 
ATOM     32  C   UNL     1       0.819   0.226   3.894  0.00  0.00    +0.018 A 
ATOM     33  C   UNL     1       1.948  -0.516   3.519  0.00  0.00    +0.005 A 
ATOM     34  C   UNL     1       2.320  -0.561   2.209  0.00  0.00    +0.047 A 
ATOM     35  C   UNL     1       1.563   0.140   1.252  0.00  0.00    +0.138 A 
ATOM     36  N   UNL     1       1.696   0.267  -0.067  0.00  0.00    -0.232 NA
ENDBRANCH  23  29
ENDBRANCH   1  25
TORSDOF 6
