REMARK  Name = ZINC36784462
REMARK  5 active torsions:
REMARK  status: ('A' for Active; 'I' for Inactive)
REMARK    1  A    between atoms: N_12  and  C_16
REMARK    2  A    between atoms: C_16  and  C_17
REMARK    3  A    between atoms: N_19  and  C_20
REMARK    4  A    between atoms: C_20  and  C_21
REMARK    5  A    between atoms: N_23  and  C_24
REMARK                            x       y       z     vdW  Elec       q    Type
REMARK                         _______ _______ _______ _____ _____    ______ ____
ROOT
ATOM      1  C   UNL     1       7.041   0.045  -0.778  0.00  0.00    +0.213 C 
ENDROOT
BRANCH   1  13
ATOM      2  C   UNL     1      -0.025   1.376  -0.047  0.00  0.00    +0.000 A 
ATOM      3  C   UNL     1       1.163   2.082  -0.049  0.00  0.00    +0.000 A 
ATOM      4  C   UNL     1       2.367   1.405  -0.056  0.00  0.00    +0.006 A 
ATOM      5  C   UNL     1       2.391   0.020  -0.061  0.00  0.00    -0.012 A 
ATOM      6  C   UNL     1       1.200  -0.686  -0.056  0.00  0.00    -0.042 A 
ATOM      7  C   UNL     1      -0.006  -0.005  -0.051  0.00  0.00    +0.004 A 
ATOM      8  C   UNL     1       1.486  -2.174  -0.051  0.00  0.00    +0.038 C 
ATOM      9  C   UNL     1       2.962  -2.304  -0.489  0.00  0.00    +0.045 C 
ATOM     10  C   UNL     1       3.544  -0.947  -0.075  0.00  0.00    +0.138 C 
ATOM     11  C   UNL     1       4.627  -0.505  -1.025  0.00  0.00    +0.251 C 
ATOM     12  O   UNL     1       4.525  -0.310  -2.217  0.00  0.00    -0.272 OA
ATOM     13  N   UNL     1       5.734  -0.372  -0.264  0.00  0.00    -0.215 N 
ATOM     14  C   UNL     1       5.489  -0.669   1.019  0.00  0.00    +0.310 C 
ATOM     15  O   UNL     1       6.330  -0.623   1.896  0.00  0.00    -0.252 OA
ATOM     16  N   UNL     1       4.205  -1.024   1.228  0.00  0.00    -0.281 N 
ATOM     17  H   UNL     1       3.801  -1.279   2.072  0.00  0.00    +0.152 HD
ENDBRANCH   1  13
BRANCH   1  18
ATOM     18  C   UNL     1       7.155   1.546  -0.704  0.00  0.00    +0.231 C 
ATOM     19  O   UNL     1       6.234   2.203  -0.265  0.00  0.00    -0.274 OA
ATOM     20  N   UNL     1       8.279   2.159  -1.125  0.00  0.00    -0.305 N 
ATOM     21  H   UNL     1       9.015   1.633  -1.476  0.00  0.00    +0.149 HD
BRANCH  20  22
ATOM     22  C   UNL     1       8.389   3.618  -1.054  0.00  0.00    +0.200 C 
BRANCH  22  23
ATOM     23  C   UNL     1       9.733   4.047  -1.582  0.00  0.00    +0.234 C 
ATOM     24  O   UNL     1      10.522   3.216  -1.980  0.00  0.00    -0.274 OA
ATOM     25  N   UNL     1      10.059   5.354  -1.613  0.00  0.00    -0.284 N 
ATOM     26  H   UNL     1       9.405   6.023  -1.358  0.00  0.00    +0.155 HD
BRANCH  25  27
ATOM     27  C   UNL     1      11.343   5.746  -2.013  0.00  0.00    +0.036 A 
ATOM     28  C   UNL     1      11.952   6.842  -1.415  0.00  0.00    +0.026 A 
ATOM     29  C   UNL     1      13.218   7.228  -1.810  0.00  0.00    +0.043 A 
ATOM     30  C   UNL     1      13.881   6.524  -2.801  0.00  0.00    +0.159 A 
ATOM     31  C   UNL     1      13.275   5.430  -3.399  0.00  0.00    +0.160 A 
ATOM     32  C   UNL     1      12.010   5.037  -3.002  0.00  0.00    +0.064 A 
ATOM     33  F   UNL     1      13.923   4.744  -4.366  0.00  0.00    -0.202 F 
ATOM     34  F   UNL     1      15.119   6.904  -3.186  0.00  0.00    -0.202 F 
ENDBRANCH  25  27
ENDBRANCH  22  23
ENDBRANCH  20  22
ENDBRANCH   1  18
TORSDOF 5
