REMARK  Name = ZINC16671773
REMARK  4 active torsions:
REMARK  status: ('A' for Active; 'I' for Inactive)
REMARK    1  A    between atoms: C_1  and  O_2
REMARK    2  A    between atoms: O_2  and  C_3
REMARK    3  A    between atoms: C_5  and  C_11
REMARK    4  A    between atoms: C_8  and  O_9
REMARK                            x       y       z     vdW  Elec       q    Type
REMARK                         _______ _______ _______ _____ _____    ______ ____
ROOT
ATOM      1  C   UNL     1       3.542   2.249  -0.233  0.00  0.00    +0.163 A 
ATOM      2  C   UNL     1       2.448   1.426  -0.050  0.00  0.00    +0.057 A 
ATOM      3  C   UNL     1       1.155   1.946  -0.184  0.00  0.00    -0.018 A 
ATOM      4  C   UNL     1       0.978   3.297  -0.508  0.00  0.00    +0.027 A 
ATOM      5  C   UNL     1       2.076   4.112  -0.683  0.00  0.00    +0.063 A 
ATOM      6  C   UNL     1       3.358   3.594  -0.550  0.00  0.00    +0.173 A 
ATOM      7 BR   UNL     1       1.836   5.938  -1.113  0.00  0.00    -0.046 Br
ENDROOT
BRANCH   3   8
ATOM      8  C   UNL     1      -0.013   1.076   0.008  0.00  0.00    +0.036 C 
ATOM      9  C   UNL     1      -1.113   1.548   0.646  0.00  0.00    +0.096 C 
ATOM     10  C   UNL     1      -1.255   2.832   1.351  0.00  0.00    +0.264 C 
ATOM     11  O   UNL     1      -0.404   3.692   1.482  0.00  0.00    -0.268 OA
ATOM     12  N   UNL     1      -2.519   2.864   1.820  0.00  0.00    -0.263 N 
ATOM     13  C   UNL     1      -3.158   1.733   1.484  0.00  0.00    +0.141 C 
ATOM     14  S   UNL     1      -4.782   1.379   1.897  0.00  0.00    -0.018 S 
ATOM     15  N   UNL     1      -2.356   0.916   0.781  0.00  0.00    -0.293 N 
ATOM     16  H   UNL     1      -2.874   3.740   2.384  0.00  0.00    +0.157 HD
ATOM     17  H   UNL     1      -2.517  -0.079   0.339  0.00  0.00    +0.154 HD
ENDBRANCH   3   8
BRANCH   1  19
ATOM     18  C   UNL     1       4.914   0.360   0.222  0.00  0.00    +0.277 C 
ATOM     19  O   UNL     1       4.799   1.747  -0.104  0.00  0.00    -0.491 OA
ENDBRANCH   1  19
BRANCH   6  20
ATOM     20  O   UNL     1       4.436   4.401  -0.729  0.00  0.00    -0.503 OA
ATOM     21  H   UNL     1       4.293   5.463  -0.979  0.00  0.00    +0.292 HD
ENDBRANCH   6  20
TORSDOF 3
