REMARK  Name = ZINC08918257
REMARK  5 active torsions:
REMARK  status: ('A' for Active; 'I' for Inactive)
REMARK    1  A    between atoms: C_1  and  C_2
REMARK    2  A    between atoms: C_6  and  N_9
REMARK    3  A    between atoms: C_7  and  C_8
REMARK    4  A    between atoms: C_27  and  C_34
REMARK    5  A    between atoms: C_28  and  C_33
REMARK                            x       y       z     vdW  Elec       q    Type
REMARK                         _______ _______ _______ _____ _____    ______ ____
ROOT
ATOM      1  N   UNL     1       0.791  -0.206   2.830  0.00  0.00    -0.210 N 
ATOM      2  C   UNL     1       1.670   0.752   2.458  0.00  0.00    +0.228 C 
ATOM      3  O   UNL     1       1.680   1.901   2.846  0.00  0.00    -0.275 OA
ATOM      4  C   UNL     1       2.646   0.156   1.469  0.00  0.00    +0.074 C 
ATOM      5  C   UNL     1       2.413   0.779   0.081  0.00  0.00    -0.054 C 
ATOM      6  C   UNL     1       1.733   2.150   0.244  0.00  0.00    -0.016 C 
ATOM      7  C   UNL     1       0.219   1.869   0.186  0.00  0.00    -0.020 C 
ATOM      8  C   UNL     1       0.099   0.340   0.022  0.00  0.00    -0.076 C 
ATOM      9  C   UNL     1       1.717  -1.452  -0.119  0.00  0.00    +0.053 C 
ATOM     10  C   UNL     1       2.184  -1.321   1.335  0.00  0.00    +0.089 C 
ATOM     11  C   UNL     1       0.994  -1.401   2.264  0.00  0.00    +0.229 C 
ATOM     12  O   UNL     1       0.326  -2.393   2.464  0.00  0.00    -0.275 OA
ATOM     13  C   UNL     1       0.532  -2.371  -0.234  0.00  0.00    -0.027 A 
ATOM     14  C   UNL     1      -0.733  -2.356   0.308  0.00  0.00    +0.005 A 
ATOM     15  C   UNL     1      -1.627  -3.369   0.008  0.00  0.00    +0.004 A 
ATOM     16  C   UNL     1      -1.244  -4.396  -0.837  0.00  0.00    -0.046 A 
ATOM     17  C   UNL     1       0.023  -4.414  -1.382  0.00  0.00    -0.026 A 
ATOM     18  C   UNL     1       0.928  -3.398  -1.085  0.00  0.00    +0.039 A 
ATOM     19  N   UNL     1       2.245  -3.197  -1.505  0.00  0.00    -0.286 N 
ATOM     20  C   UNL     1       2.779  -2.076  -0.983  0.00  0.00    +0.212 C 
ATOM     21  O   UNL     1       3.899  -1.652  -1.172  0.00  0.00    -0.277 OA
ATOM     22  C   UNL     1       0.429  -5.537  -2.301  0.00  0.00    +0.046 C 
ATOM     23  C   UNL     1      -2.217  -5.498  -1.165  0.00  0.00    +0.044 C 
ATOM     24  H   UNL     1       2.719  -3.794  -2.104  0.00  0.00    +0.155 HD
ATOM     25  N   UNL     1       1.411  -0.074  -0.516  0.00  0.00    +0.395 N 
ATOM     26  H   UNL     1       1.419   0.011  -1.540  0.00  0.00    -0.079 HD
ENDROOT
BRANCH   1  32
ATOM     27  C   UNL     1      -0.789   0.010   7.483  0.00  0.00    +0.044 C 
ATOM     28  C   UNL     1      -1.038   0.146   6.003  0.00  0.00    -0.046 A 
ATOM     29  C   UNL     1      -2.291   0.510   5.544  0.00  0.00    +0.004 A 
ATOM     30  C   UNL     1      -2.523   0.636   4.187  0.00  0.00    +0.002 A 
ATOM     31  C   UNL     1      -1.504   0.400   3.285  0.00  0.00    +0.024 A 
ATOM     32  C   UNL     1      -0.245   0.035   3.743  0.00  0.00    +0.047 A 
ATOM     33  C   UNL     1      -0.017  -0.096   5.106  0.00  0.00    -0.026 A 
ATOM     34  C   UNL     1       1.347  -0.497   5.607  0.00  0.00    +0.046 C 
ENDBRANCH   1  32
TORSDOF 1
