REMARK  Name = ZINC18200280
REMARK  4 active torsions:
REMARK  status: ('A' for Active; 'I' for Inactive)
REMARK    1  A    between atoms: C_3  and  C_6
REMARK    2  A    between atoms: C_11  and  C_19
REMARK    3  A    between atoms: C_22  and  O_25
REMARK    4  A    between atoms: O_25  and  C_26
REMARK                            x       y       z     vdW  Elec       q    Type
REMARK                         _______ _______ _______ _____ _____    ______ ____
ROOT
ATOM      1  C   UNL     1      -1.155  -0.969   0.007  0.00  0.00    +0.039 C 
ATOM      2  C   UNL     1      -2.001  -0.753   1.264  0.00  0.00    +0.060 C 
ATOM      3  C   UNL     1      -3.183  -1.693   1.248  0.00  0.00    +0.020 C 
ATOM      4  C   UNL     1      -3.747  -2.077   0.084  0.00  0.00    +0.041 C 
ATOM      5  C   UNL     1      -4.946  -3.000   0.036  0.00  0.00    +0.175 C 
ATOM      6  N   UNL     1      -5.137  -3.634   1.334  0.00  0.00    -0.221 N 
ATOM      7  C   UNL     1      -4.524  -3.214   2.468  0.00  0.00    +0.218 A 
ATOM      8  N   UNL     1      -4.912  -3.985   3.446  0.00  0.00    -0.201 NA
ATOM      9  C   UNL     1      -5.763  -4.905   2.979  0.00  0.00    +0.247 A 
ATOM     10  N   UNL     1      -5.927  -4.726   1.692  0.00  0.00    -0.156 NA
ATOM     11  N   UNL     1      -3.650  -2.140   2.462  0.00  0.00    -0.287 N 
ATOM     12  C   UNL     1      -3.239  -1.626  -1.148  0.00  0.00    +0.164 C 
ATOM     13  O   UNL     1      -3.780  -1.976  -2.178  0.00  0.00    -0.292 OA
ATOM     14  C   UNL     1      -2.041  -0.720  -1.218  0.00  0.00    +0.088 C 
ATOM     15  H   UNL     1      -3.374  -1.715   3.289  0.00  0.00    +0.155 HD
ENDROOT
BRANCH   5  16
ATOM     16  C   UNL     1      -6.175  -2.204  -0.319  0.00  0.00    -0.018 A 
ATOM     17  C   UNL     1      -6.587  -1.168   0.499  0.00  0.00    +0.009 A 
ATOM     18  C   UNL     1      -7.711  -0.434   0.174  0.00  0.00    +0.046 A 
ATOM     19  C   UNL     1      -8.433  -0.744  -0.970  0.00  0.00    +0.130 A 
ATOM     20  C   UNL     1      -8.021  -1.788  -1.786  0.00  0.00    +0.046 A 
ATOM     21  C   UNL     1      -6.894  -2.515  -1.458  0.00  0.00    +0.009 A 
BRANCH  19  22
ATOM     22  O   UNL     1      -9.542  -0.027  -1.290  0.00  0.00    -0.406 OA
BRANCH  22  23
ATOM     23  C   UNL     1      -9.907   1.033  -0.403  0.00  0.00    +0.575 C 
ATOM     24  F   UNL     1      -8.864   1.964  -0.335  0.00  0.00    -0.133 F 
ATOM     25  F   UNL     1     -11.062   1.662  -0.880  0.00  0.00    -0.133 F 
ATOM     26  F   UNL     1     -10.151   0.512   0.872  0.00  0.00    -0.133 F 
ENDBRANCH  22  23
ENDBRANCH  19  22
ENDBRANCH   5  16
BRANCH   1  29
ATOM     27  C   UNL     1       2.223   0.790  -0.015  0.00  0.00    +0.008 A 
ATOM     28  C   UNL     1       1.332  -0.266  -0.012  0.00  0.00    +0.011 A 
ATOM     29  C   UNL     1       0.002  -0.004   0.002  0.00  0.00    -0.006 A 
ATOM     30  S   UNL     1      -0.022   1.781   0.012  0.00  0.00    -0.101 S 
ATOM     31  C   UNL     1       1.742   2.057  -0.004  0.00  0.00    +0.045 A 
ENDBRANCH   1  29
TORSDOF 4
