REMARK  Name = ZINC62101363
REMARK  3 active torsions:
REMARK  status: ('A' for Active; 'I' for Inactive)
REMARK    1  A    between atoms: C_4  and  C_7
REMARK    2  A    between atoms: C_4  and  C_11
REMARK    3  A    between atoms: N_8  and  O_9
REMARK                            x       y       z     vdW  Elec       q    Type
REMARK                         _______ _______ _______ _____ _____    ______ ____
ROOT
ATOM      1  C   UNL     1      -0.159   1.163   0.147  0.00  0.00    +0.000 C 
ATOM      2  C   UNL     1       1.174   1.907   0.052  0.00  0.00    +0.001 C 
ATOM      3  C   UNL     1       1.888   1.512  -1.243  0.00  0.00    +0.024 C 
ATOM      4  C   UNL     1       2.145   0.004  -1.243  0.00  0.00    +0.105 C 
ATOM      5  C   UNL     1       0.812  -0.741  -1.148  0.00  0.00    +0.024 C 
ATOM      6  C   UNL     1       0.098  -0.346   0.146  0.00  0.00    +0.001 C 
ENDROOT
BRANCH   4   7
ATOM      7  C   UNL     1       3.009  -0.359  -0.062  0.00  0.00    +0.229 C 
ATOM      8  O   UNL     1       3.384   0.504   0.703  0.00  0.00    -0.275 OA
ATOM      9  N   UNL     1       3.364  -1.643   0.143  0.00  0.00    -0.299 N 
ATOM     10  C   UNL     1       3.003  -2.641  -0.861  0.00  0.00    +0.117 C 
ATOM     11  C   UNL     1       2.035  -3.659  -0.247  0.00  0.00    +0.114 C 
ATOM     12  C   UNL     1       2.832  -4.657   0.562  0.00  0.00    +0.215 C 
ATOM     13  O   UNL     1       2.960  -5.794   0.159  0.00  0.00    -0.276 OA
ATOM     14  N   UNL     1       3.398  -4.295   1.717  0.00  0.00    -0.314 N 
ATOM     15  C   UNL     1       3.250  -2.924   2.226  0.00  0.00    +0.123 C 
ATOM     16  C   UNL     1       4.100  -1.981   1.359  0.00  0.00    +0.126 C 
ATOM     17  H   UNL     1       3.911  -4.943   2.225  0.00  0.00    +0.149 HD
ENDBRANCH   4   7
BRANCH   4  18
ATOM     18  C   UNL     1       2.849  -0.385  -2.518  0.00  0.00    +0.147 C 
ATOM     19  N   UNL     1       4.033   0.066  -2.766  0.00  0.00    -0.076 NA
ATOM     20  N   UNL     1       2.228  -1.222  -3.419  0.00  0.00    -0.343 N 
ATOM     21  H   UNL     1       1.367  -1.613  -3.204  0.00  0.00    +0.144 HD
ATOM     22  H   UNL     1       2.652  -1.421  -4.268  0.00  0.00    +0.144 HD
BRANCH  19  23
ATOM     23  O   UNL     1       4.717   0.833  -1.792  0.00  0.00    -0.408 OA
ATOM     24  H   UNL     1       5.596   1.127  -2.067  0.00  0.00    +0.328 HD
ENDBRANCH  19  23
ENDBRANCH   4  18
TORSDOF 3
