REMARK  Name = ZINC67304723
REMARK  12 active torsions:
REMARK  status: ('A' for Active; 'I' for Inactive)
REMARK    1  A    between atoms: C_1  and  C_2
REMARK    2  A    between atoms: C_2  and  N_3
REMARK    3  A    between atoms: N_3  and  C_4
REMARK    4  A    between atoms: N_3  and  C_6
REMARK    5  A    between atoms: C_4  and  C_5
REMARK    6  A    between atoms: C_6  and  C_7
REMARK    7  A    between atoms: C_7  and  N_8
REMARK    8  A    between atoms: N_8  and  C_9
REMARK    9  A    between atoms: C_9  and  C_10
REMARK   10  A    between atoms: C_10  and  O_11
REMARK   11  A    between atoms: O_11  and  C_12
REMARK   12  A    between atoms: C_13  and  C_15
REMARK                            x       y       z     vdW  Elec       q    Type
REMARK                         _______ _______ _______ _____ _____    ______ ____
ROOT
ATOM      1  N   UNL     1      -0.930  -3.691   1.267  0.00  0.00    -0.301 N 
ATOM      2  C   UNL     1      -1.893  -4.216   2.049  0.00  0.00    +0.219 C 
ATOM      3  O   UNL     1      -1.776  -5.344   2.480  0.00  0.00    -0.275 OA
ENDROOT
BRANCH   2   4
ATOM      4  C   UNL     1      -3.116  -3.403   2.389  0.00  0.00    +0.075 C 
ATOM      5  C   UNL     1      -2.770  -2.398   3.489  0.00  0.00    +0.015 C 
ATOM      6  C   UNL     1      -4.009  -1.564   3.824  0.00  0.00    +0.036 C 
ATOM      7  C   UNL     1      -5.134  -2.483   4.287  0.00  0.00    +0.112 C 
ATOM      8  C   UNL     1      -5.473  -3.507   3.210  0.00  0.00    +0.036 C 
ATOM      9  C   UNL     1      -4.228  -4.333   2.878  0.00  0.00    +0.015 C 
ATOM     10  C   UNL     1      -4.752  -3.176   5.575  0.00  0.00    +0.244 C 
ATOM     11  O   UNL     1      -3.822  -3.933   5.753  0.00  0.00    -0.273 OA
ATOM     12  N   UNL     1      -5.665  -2.776   6.484  0.00  0.00    -0.238 N 
ATOM     13  C   UNL     1      -6.558  -1.935   5.949  0.00  0.00    +0.307 C 
ATOM     14  O   UNL     1      -7.477  -1.439   6.571  0.00  0.00    -0.252 OA
ATOM     15  N   UNL     1      -6.324  -1.699   4.644  0.00  0.00    -0.285 N 
ATOM     16  H   UNL     1      -5.673  -3.063   7.411  0.00  0.00    +0.159 HD
ATOM     17  H   UNL     1      -6.839  -1.125   4.056  0.00  0.00    +0.151 HD
ENDBRANCH   2   4
BRANCH   1  18
ATOM     18  C   UNL     1      -1.031  -2.301   0.814  0.00  0.00    +0.089 C 
BRANCH  18  19
ATOM     19  C   UNL     1      -1.759  -2.254  -0.530  0.00  0.00    -0.060 C 
BRANCH  19  20
ATOM     20  N   UNL     1      -1.860  -0.860  -0.984  0.00  0.00    +0.380 N 
ATOM     21  H   UNL     1      -2.302  -0.305  -0.267  0.00  0.00    -0.082 HD
BRANCH  20  23
ATOM     22  C   UNL     1      -0.605   1.161  -1.562  0.00  0.00    -0.017 C 
ATOM     23  C   UNL     1      -0.515  -0.334  -1.252  0.00  0.00    -0.082 C 
ENDBRANCH  20  23
BRANCH  20  24
ATOM     24  C   UNL     1      -2.662  -0.802  -2.213  0.00  0.00    -0.082 C 
ATOM     25  C   UNL     1      -4.105  -1.206  -1.900  0.00  0.00    -0.017 C 
ENDBRANCH  20  24
ENDBRANCH  19  20
ENDBRANCH  18  19
ENDBRANCH   1  18
BRANCH   1  26
ATOM     26  C   UNL     1       0.218  -4.510   0.868  0.00  0.00    +0.135 C 
BRANCH  26  27
ATOM     27  C   UNL     1       1.369  -4.286   1.851  0.00  0.00    +0.178 C 
BRANCH  27  28
ATOM     28  O   UNL     1       0.992  -4.767   3.143  0.00  0.00    -0.381 OA
ATOM     29  C   UNL     1       2.002  -4.605   4.141  0.00  0.00    +0.194 C 
ENDBRANCH  27  28
ENDBRANCH  26  27
ENDBRANCH   1  26
TORSDOF 9
