REMARK  Name = ZINC04294843
REMARK  9 active torsions:
REMARK  status: ('A' for Active; 'I' for Inactive)
REMARK    1  A    between atoms: C_1  and  C_2
REMARK    2  A    between atoms: C_2  and  O_3
REMARK    3  A    between atoms: O_3  and  C_4
REMARK    4  A    between atoms: C_4  and  C_6
REMARK    5  A    between atoms: C_7  and  N_33
REMARK    6  A    between atoms: C_13  and  C_27
REMARK    7  A    between atoms: C_21  and  C_25
REMARK    8  A    between atoms: C_21  and  C_26
REMARK    9  A    between atoms: C_23  and  C_24
REMARK                            x       y       z     vdW  Elec       q    Type
REMARK                         _______ _______ _______ _____ _____    ______ ____
ROOT
ATOM      1  C   UNL     1       1.480  -2.554  -2.310  0.00  0.00    +0.117 C 
ATOM      2  C   UNL     1       1.577  -3.901  -2.461  0.00  0.00    +0.195 C 
ATOM      3  O   UNL     1       2.200  -4.435  -3.524  0.00  0.00    -0.446 OA
ATOM      4  C   UNL     1       2.381  -3.714  -4.647  0.00  0.00    +0.115 C 
ATOM      5  C   UNL     1       2.338  -2.368  -4.627  0.00  0.00    +0.057 C 
ATOM      6  C   UNL     1       2.063  -1.633  -3.342  0.00  0.00    +0.142 C 
ATOM      7  C   UNL     1       3.304  -0.971  -2.837  0.00  0.00    +0.002 A 
ATOM      8  C   UNL     1       4.542  -1.414  -2.422  0.00  0.00    -0.044 A 
ATOM      9  C   UNL     1       5.463  -0.452  -2.008  0.00  0.00    +0.004 A 
ATOM     10  C   UNL     1       5.176   0.903  -2.000  0.00  0.00    +0.010 A 
ATOM     11  C   UNL     1       3.936   1.358  -2.416  0.00  0.00    -0.001 A 
ATOM     12  C   UNL     1       3.010   0.383  -2.834  0.00  0.00    +0.050 A 
ATOM     13  N   UNL     1       1.726   0.657  -3.283  0.00  0.00    -0.260 N 
ATOM     14  C   UNL     1       1.098  -0.488  -3.609  0.00  0.00    +0.241 C 
ATOM     15  O   UNL     1      -0.032  -0.589  -4.037  0.00  0.00    -0.274 OA
ATOM     16  C   UNL     1       1.219   2.033  -3.356  0.00  0.00    +0.055 C 
ATOM     17  C   UNL     1       2.246   3.023  -2.898  0.00  0.00    +0.002 C 
ATOM     18  C   UNL     1       3.469   2.750  -2.471  0.00  0.00    -0.043 C 
ATOM     19  C   UNL     1       4.383   3.868  -2.042  0.00  0.00    +0.044 C 
ATOM     20  C   UNL     1       0.832   2.348  -4.802  0.00  0.00    +0.036 C 
ATOM     21  C   UNL     1      -0.022   2.155  -2.470  0.00  0.00    +0.036 C 
ATOM     22  C   UNL     1       4.886  -2.881  -2.417  0.00  0.00    +0.044 C 
ATOM     23  C   UNL     1       2.547  -1.614  -5.797  0.00  0.00    +0.164 C 
ATOM     24  O   UNL     1       2.487  -0.402  -5.743  0.00  0.00    -0.292 OA
ATOM     25  C   UNL     1       2.842  -2.280  -7.113  0.00  0.00    +0.080 C 
ATOM     26  C   UNL     1       3.532  -3.622  -6.847  0.00  0.00    +0.016 C 
ATOM     27  C   UNL     1       2.631  -4.458  -5.937  0.00  0.00    +0.075 C 
ENDROOT
BRANCH   2  28
ATOM     28  N   UNL     1       1.031  -4.727  -1.515  0.00  0.00    -0.329 N 
ATOM     29  H   UNL     1       0.515  -4.352  -0.784  0.00  0.00    +0.145 HD
ATOM     30  H   UNL     1       1.161  -5.686  -1.576  0.00  0.00    +0.145 HD
ENDBRANCH   2  28
BRANCH   1  31
ATOM     31  C   UNL     1       0.828  -2.021  -1.187  0.00  0.00    +0.342 C 
ATOM     32  O   UNL     1       1.479  -1.597  -0.249  0.00  0.00    -0.245 OA
BRANCH  31  33
ATOM     33  O   UNL     1      -0.521  -1.979  -1.147  0.00  0.00    -0.462 OA
BRANCH  33  35
ATOM     34  C   UNL     1      -2.638  -1.475  -0.095  0.00  0.00    +0.048 C 
ATOM     35  C   UNL     1      -1.117  -1.321  -0.028  0.00  0.00    +0.229 C 
ENDBRANCH  33  35
ENDBRANCH  31  33
ENDBRANCH   1  31
TORSDOF 4
