REMARK  Name = ZINC16020058
REMARK  6 active torsions:
REMARK  status: ('A' for Active; 'I' for Inactive)
REMARK    1  A    between atoms: C_1  and  C_2
REMARK    2  A    between atoms: C_2  and  C_3
REMARK    3  A    between atoms: C_14  and  C_17
REMARK    4  A    between atoms: C_17  and  C_19
REMARK    5  A    between atoms: C_17  and  O_20
REMARK    6  A    between atoms: N_23  and  C_26
REMARK                            x       y       z     vdW  Elec       q    Type
REMARK                         _______ _______ _______ _____ _____    ______ ____
ROOT
ATOM      1  C   UNL     1       0.681  -0.108  -1.690  0.00  0.00    -0.047 A 
ATOM      2  C   UNL     1       0.035  -0.380  -2.882  0.00  0.00    +0.005 A 
ATOM      3  C   UNL     1       0.725  -0.938  -3.938  0.00  0.00    +0.024 A 
ATOM      4  C   UNL     1       2.081  -1.233  -3.811  0.00  0.00    +0.039 A 
ATOM      5  C   UNL     1       2.720  -0.955  -2.606  0.00  0.00    +0.004 A 
ATOM      6  C   UNL     1       2.028  -0.393  -1.557  0.00  0.00    +0.011 A 
ATOM      7  C   UNL     1       4.149  -1.381  -2.793  0.00  0.00    +0.136 C 
ATOM      8  C   UNL     1       4.554  -2.450  -1.770  0.00  0.00    +0.123 C 
ATOM      9  C   UNL     1       6.038  -2.129  -1.437  0.00  0.00    +0.109 C 
ATOM     10  C   UNL     1       6.390  -0.915  -2.321  0.00  0.00    +0.096 C 
ATOM     11  N   UNL     1       5.079  -0.254  -2.592  0.00  0.00    -0.293 NA
ATOM     12  C   UNL     1       5.987  -1.711   0.015  0.00  0.00    +0.228 C 
ATOM     13  O   UNL     1       6.940  -1.361   0.677  0.00  0.00    -0.275 OA
ATOM     14  N   UNL     1       4.726  -1.788   0.456  0.00  0.00    -0.238 N 
ATOM     15  C   UNL     1       3.828  -2.205  -0.466  0.00  0.00    +0.228 C 
ATOM     16  O   UNL     1       2.639  -2.357  -0.288  0.00  0.00    -0.275 OA
ATOM     17  C   UNL     1       4.220  -1.910  -4.199  0.00  0.00    +0.243 C 
ATOM     18  O   UNL     1       5.199  -2.357  -4.756  0.00  0.00    -0.273 OA
ATOM     19  N   UNL     1       2.983  -1.790  -4.719  0.00  0.00    -0.283 N 
ATOM     20  H   UNL     1       5.133   0.321  -3.419  0.00  0.00    +0.124 HD
ATOM     21  H   UNL     1       2.746  -2.061  -5.620  0.00  0.00    +0.155 HD
ENDROOT
BRANCH  14  22
ATOM     22  C   UNL     1       4.346  -1.454   1.831  0.00  0.00    +0.084 C 
ATOM     23  C   UNL     1       4.650   0.037   2.085  0.00  0.00    +0.023 C 
ATOM     24  C   UNL     1       3.824   0.501   3.253  0.00  0.00    +0.002 C 
ATOM     25  C   UNL     1       4.588   0.412   4.588  0.00  0.00    +0.000 C 
ATOM     26  C   UNL     1       5.413  -0.882   4.719  0.00  0.00    +0.000 C 
ATOM     27  C   UNL     1       4.671  -2.091   4.217  0.00  0.00    +0.002 C 
ATOM     28  C   UNL     1       5.063  -2.330   2.745  0.00  0.00    +0.023 C 
ENDBRANCH  14  22
BRANCH   1  30
ATOM     29  C   UNL     1      -0.011   2.027  -0.635  0.00  0.00    +0.009 C 
ATOM     30  C   UNL     1      -0.080   0.501  -0.540  0.00  0.00    +0.032 C 
ENDBRANCH   1  30
BRANCH  10  31
ATOM     31  C   UNL     1       7.309   0.046  -1.564  0.00  0.00    +0.129 C 
ATOM     32  C   UNL     1       8.662  -0.627  -1.320  0.00  0.00    +0.039 C 
BRANCH  31  33
ATOM     33  O   UNL     1       7.500   1.232  -2.338  0.00  0.00    -0.390 OA
ATOM     34  H   UNL     1       7.902   1.076  -3.204  0.00  0.00    +0.210 HD
ENDBRANCH  31  33
ENDBRANCH  10  31
TORSDOF 4
