REMARK  Name = ZINC00425142
REMARK  5 active torsions:
REMARK  status: ('A' for Active; 'I' for Inactive)
REMARK    1  A    between atoms: C_1  and  C_2
REMARK    2  A    between atoms: C_5  and  N_9
REMARK    3  A    between atoms: C_7  and  C_8
REMARK    4  A    between atoms: C_10  and  N_18
REMARK    5  A    between atoms: C_11  and  C_15
REMARK                            x       y       z     vdW  Elec       q    Type
REMARK                         _______ _______ _______ _____ _____    ______ ____
ROOT
ATOM      1  N   UNL     1       0.002  -0.004   0.002  0.00  0.00    -0.285 N 
ATOM      2  C   UNL     1      -0.016   1.346   0.009  0.00  0.00    +0.121 A 
ATOM      3  C   UNL     1       1.190   2.002   0.001  0.00  0.00    +0.114 A 
ATOM      4  S   UNL     1       2.338   0.635  -0.017  0.00  0.00    -0.055 S 
ATOM      5  C   UNL     1       1.183  -0.659  -0.013  0.00  0.00    +0.132 A 
ATOM      6  S   UNL     1       1.469  -2.347  -0.025  0.00  0.00    -0.024 S 
ENDROOT
BRANCH   1  11
ATOM      7  C   UNL     1      -4.868  -2.917   0.031  0.00  0.00    +0.044 C 
ATOM      8  C   UNL     1      -3.575  -2.144   0.023  0.00  0.00    -0.047 A 
ATOM      9  C   UNL     1      -3.253  -1.349  -1.062  0.00  0.00    +0.005 A 
ATOM     10  C   UNL     1      -2.068  -0.639  -1.072  0.00  0.00    +0.026 A 
ATOM     11  C   UNL     1      -1.200  -0.723   0.009  0.00  0.00    +0.050 A 
ATOM     12  C   UNL     1      -1.524  -1.526   1.094  0.00  0.00    +0.030 A 
ATOM     13  C   UNL     1      -2.713  -2.230   1.101  0.00  0.00    -0.046 A 
ATOM     14  C   UNL     1      -3.067  -3.098   2.281  0.00  0.00    +0.044 C 
ENDBRANCH   1  11
BRANCH   3  15
ATOM     15  C   UNL     1       1.453   3.389   0.006  0.00  0.00    +0.252 C 
ATOM     16  O   UNL     1       0.529   4.184   0.019  0.00  0.00    -0.270 OA
ATOM     17  N   UNL     1       2.725   3.834  -0.003  0.00  0.00    -0.325 N 
ATOM     18  H   UNL     1       3.460   3.201  -0.014  0.00  0.00    +0.145 HD
ATOM     19  H   UNL     1       2.905   4.787   0.000  0.00  0.00    +0.145 HD
ENDBRANCH   3  15
BRANCH   2  20
ATOM     20  N   UNL     1      -1.205   2.042   0.019  0.00  0.00    -0.343 N 
ATOM     21  H   UNL     1      -2.048   1.562   0.020  0.00  0.00    +0.144 HD
ATOM     22  H   UNL     1      -1.199   3.012   0.024  0.00  0.00    +0.144 HD
ENDBRANCH   2  20
TORSDOF 3
