REMARK  Name = ZINC61710527
REMARK  4 active torsions:
REMARK  status: ('A' for Active; 'I' for Inactive)
REMARK    1  A    between atoms: C_4  and  N_11
REMARK    2  A    between atoms: C_5  and  C_7
REMARK    3  A    between atoms: N_8  and  O_9
REMARK    4  A    between atoms: C_14  and  O_17
REMARK                            x       y       z     vdW  Elec       q    Type
REMARK                         _______ _______ _______ _____ _____    ______ ____
ROOT
ATOM      1  C   UNL     1       0.025   1.378  -0.036  0.00  0.00    +0.131 A 
ATOM      2  C   UNL     1       1.248   2.026   0.027  0.00  0.00    +0.132 A 
ATOM      3  N   UNL     1       2.371   1.330   0.062  0.00  0.00    -0.237 NA
ATOM      4  C   UNL     1       2.331   0.004   0.038  0.00  0.00    +0.150 A 
ATOM      5  C   UNL     1       1.092  -0.653  -0.025  0.00  0.00    +0.146 A 
ATOM      6  N   UNL     1      -0.029   0.059  -0.061  0.00  0.00    -0.247 NA
ENDROOT
BRANCH   5   7
ATOM      7  C   UNL     1       1.035  -2.131  -0.053  0.00  0.00    +0.184 C 
ATOM      8  N   UNL     1       0.917  -2.799   1.057  0.00  0.00    -0.070 NA
ATOM      9  N   UNL     1       1.107  -2.804  -1.262  0.00  0.00    -0.339 N 
ATOM     10  H   UNL     1       1.195  -2.306  -2.090  0.00  0.00    +0.144 HD
ATOM     11  H   UNL     1       1.070  -3.773  -1.281  0.00  0.00    +0.144 HD
BRANCH   8  12
ATOM     12  O   UNL     1       0.733  -2.110   2.281  0.00  0.00    -0.408 OA
ATOM     13  H   UNL     1       0.580  -2.691   3.039  0.00  0.00    +0.328 HD
ENDBRANCH   8  12
ENDBRANCH   5   7
BRANCH   4  14
ATOM     14  N   UNL     1       3.507  -0.729   0.074  0.00  0.00    -0.311 N 
ATOM     15  C   UNL     1       4.870  -0.169   0.023  0.00  0.00    +0.109 C 
ATOM     16  C   UNL     1       5.763  -1.239   0.699  0.00  0.00    +0.052 C 
ATOM     17  C   UNL     1       5.102  -2.553   0.207  0.00  0.00    +0.133 C 
ATOM     18  C   UNL     1       3.602  -2.192   0.176  0.00  0.00    +0.138 C 
BRANCH  17  19
ATOM     19  O   UNL     1       5.574  -2.900  -1.097  0.00  0.00    -0.390 OA
ATOM     20  H   UNL     1       6.526  -3.061  -1.140  0.00  0.00    +0.210 HD
ENDBRANCH  17  19
ENDBRANCH   4  14
TORSDOF 4
