REMARK  Name = ZINC15050567
REMARK  6 active torsions:
REMARK  status: ('A' for Active; 'I' for Inactive)
REMARK    1  A    between atoms: CB_1  and  CA_2
REMARK    2  A    between atoms: CA_2  and  C_4
REMARK    3  A    between atoms: CA_2  and  N_7
REMARK    4  A    between atoms: C_8  and  C_10
REMARK    5  A    between atoms: C_10  and  N_11
REMARK    6  A    between atoms: C_15  and  C_16
REMARK                            x       y       z     vdW  Elec       q    Type
REMARK                         _______ _______ _______ _____ _____    ______ ____
ROOT
ATOM      1  N   UNK A   0       4.568  -1.338  -3.559  0.00  0.00    -0.219 N 
ATOM      2  C   UNK A   0       5.157  -0.174  -3.345  0.00  0.00    +0.261 C 
ATOM      3  O   UNK A   0       4.624   0.878  -3.645  0.00  0.00    -0.269 OA
ATOM      4  C   UNK A   0       6.498  -0.216  -2.723  0.00  0.00    +0.080 C 
ATOM      5  C   UNK A   0       7.328   0.803  -2.390  0.00  0.00    +0.028 C 
ATOM      6  S   UNK A   0       6.722  -1.979  -2.531  0.00  0.00    -0.026 S 
ATOM      7  C   UNK A   0       5.160  -2.501  -3.221  0.00  0.00    +0.286 C 
ATOM      8  O   UNK A   0       4.734  -3.632  -3.355  0.00  0.00    -0.262 OA
ENDROOT
BRANCH   5   9
ATOM      9  C   UNK A   0       8.702   0.517  -1.952  0.00  0.00    -0.024 A 
ATOM     10  C   UNK A   0       9.218  -0.780  -2.054  0.00  0.00    +0.009 A 
ATOM     11  C   UNK A   0      10.507  -1.039  -1.641  0.00  0.00    +0.016 A 
ATOM     12  C   UNK A   0      11.291  -0.021  -1.125  0.00  0.00    +0.018 A 
ATOM     13  C   UNK A   0      10.788   1.266  -1.020  0.00  0.00    +0.016 A 
ATOM     14  C   UNK A   0       9.503   1.542  -1.435  0.00  0.00    +0.009 A 
ATOM     15 BR   UNK A   0      13.058  -0.388  -0.561  0.00  0.00    -0.050 Br
ENDBRANCH   5   9
BRANCH   1  16
ATOM     16  C   UNK A   0       3.238  -1.364  -4.173  0.00  0.00    +0.213 C 
BRANCH  16  18
ATOM     17  N   ALA A   1       0.880  -1.314  -3.428  0.00  0.00    -0.301 N 
ATOM     18  C   UNK A   0       2.186  -1.302  -3.096  0.00  0.00    +0.232 C 
ATOM     19  O   UNK A   0       2.515  -1.242  -1.930  0.00  0.00    -0.274 OA
ATOM     20  H   ALA A   1       0.617  -1.362  -4.360  0.00  0.00    +0.150 HD
BRANCH  17  22
ATOM     21  CB  ALA A   1      -0.402   0.207  -2.004  0.00  0.00    +0.040 C 
ATOM     22  CA  ALA A   1      -0.143  -1.253  -2.380  0.00  0.00    +0.183 C 
BRANCH  22  23
ATOM     23  C   ALA A   1      -1.418  -1.875  -2.887  0.00  0.00    +0.376 C 
ATOM     24  O   ALA A   1      -1.530  -2.161  -4.067  0.00  0.00    -0.244 OA
ATOM     25  OXT ALA A   1      -2.338  -2.093  -2.117  0.00  0.00    -0.244 OA
ENDBRANCH  22  23
ENDBRANCH  17  22
ENDBRANCH  16  18
ENDBRANCH   1  16
TORSDOF 5
