REMARK  Name = ZINC59170582
REMARK  6 active torsions:
REMARK  status: ('A' for Active; 'I' for Inactive)
REMARK    1  A    between atoms: C_1  and  C_2
REMARK    2  A    between atoms: C_9  and  C_23
REMARK    3  A    between atoms: N_11  and  C_12
REMARK    4  A    between atoms: C_15  and  S_18
REMARK    5  A    between atoms: S_18  and  N_21
REMARK    6  A    between atoms: N_25  and  C_26
REMARK                            x       y       z     vdW  Elec       q    Type
REMARK                         _______ _______ _______ _____ _____    ______ ____
ROOT
ATOM      1  C   UNL     1      -1.285   1.237   0.054  0.00  0.00    +0.044 C 
ATOM      2  C   UNL     1      -0.805  -0.190  -0.004  0.00  0.00    -0.050 A 
ATOM      3  C   UNL     1      -0.086  -0.630  -1.106  0.00  0.00    +0.007 A 
ATOM      4  C   UNL     1       0.361  -1.934  -1.180  0.00  0.00    +0.047 A 
ATOM      5  C   UNL     1       0.091  -2.815  -0.144  0.00  0.00    +0.137 A 
ATOM      6  C   UNL     1      -0.634  -2.366   0.976  0.00  0.00    +0.018 A 
ATOM      7  C   UNL     1      -1.076  -1.039   1.032  0.00  0.00    +0.015 A 
ATOM      8  C   UNL     1      -0.909  -3.296   2.074  0.00  0.00    +0.030 A 
ATOM      9  C   UNL     1      -0.211  -4.497   2.083  0.00  0.00    +0.098 A 
ATOM     10  C   UNL     1       0.745  -4.727   0.982  0.00  0.00    +0.212 A 
ATOM     11  N   UNL     1       1.786  -5.516   1.143  0.00  0.00    -0.325 N 
ATOM     12  O   UNL     1       0.518  -4.100  -0.200  0.00  0.00    -0.439 OA
ATOM     13  H   UNL     1       1.990  -5.877   2.019  0.00  0.00    +0.169 HD
ENDROOT
BRANCH  11  14
ATOM     14  C   UNL     1       2.579  -5.827   0.073  0.00  0.00    +0.042 A 
ATOM     15  C   UNL     1       2.002  -6.181  -1.149  0.00  0.00    +0.027 A 
ATOM     16  C   UNL     1       2.809  -6.494  -2.223  0.00  0.00    +0.030 A 
ATOM     17  C   UNL     1       4.186  -6.456  -2.093  0.00  0.00    +0.105 A 
ATOM     18  C   UNL     1       4.764  -6.105  -0.886  0.00  0.00    +0.030 A 
ATOM     19  C   UNL     1       3.970  -5.786   0.196  0.00  0.00    +0.027 A 
BRANCH  17  20
ATOM     20  S   UNL     1       5.208  -6.857  -3.471  0.00  0.00    +0.056 S 
ATOM     21  O   UNL     1       6.458  -7.276  -2.941  0.00  0.00    -0.153 OA
ATOM     22  O   UNL     1       4.429  -7.680  -4.329  0.00  0.00    -0.153 OA
BRANCH  20  23
ATOM     23  N   UNL     1       5.493  -5.449  -4.296  0.00  0.00    -0.204 NA
ATOM     24  H   UNL     1       5.110  -4.616  -3.979  0.00  0.00    +0.144 HD
ATOM     25  H   UNL     1       6.041  -5.458  -5.096  0.00  0.00    +0.144 HD
ENDBRANCH  20  23
ENDBRANCH  17  20
ENDBRANCH  11  14
BRANCH   9  26
ATOM     26  C   UNL     1      -0.416  -5.496   3.145  0.00  0.00    +0.253 C 
ATOM     27  O   UNL     1      -1.116  -5.230   4.103  0.00  0.00    -0.270 OA
ATOM     28  N   UNL     1       0.171  -6.706   3.054  0.00  0.00    -0.280 N 
ATOM     29  H   UNL     1       0.773  -6.899   2.318  0.00  0.00    +0.155 HD
BRANCH  28  30
ATOM     30  C   UNL     1      -0.086  -7.683   4.021  0.00  0.00    +0.048 A 
ATOM     31  C   UNL     1      -0.420  -7.309   5.317  0.00  0.00    +0.024 A 
ATOM     32  C   UNL     1      -0.674  -8.276   6.269  0.00  0.00    +0.002 A 
ATOM     33  C   UNL     1      -0.596  -9.615   5.936  0.00  0.00    +0.001 A 
ATOM     34  C   UNL     1      -0.263  -9.992   4.647  0.00  0.00    +0.017 A 
ATOM     35  C   UNL     1      -0.014  -9.029   3.687  0.00  0.00    +0.039 A 
ATOM     36 BR   UNL     1       0.432  -9.545   1.923  0.00  0.00    -0.048 Br
ENDBRANCH  28  30
ENDBRANCH   9  26
TORSDOF 5
