REMARK  Name = ZINC10911364
REMARK  6 active torsions:
REMARK  status: ('A' for Active; 'I' for Inactive)
REMARK    1  A    between atoms: C_2  and  C_3
REMARK    2  A    between atoms: C_3  and  N_4
REMARK    3  A    between atoms: C_8  and  C_10
REMARK    4  A    between atoms: C_10  and  N_11
REMARK    5  A    between atoms: C_12  and  C_21
REMARK    6  A    between atoms: C_15  and  C_18
REMARK                            x       y       z     vdW  Elec       q    Type
REMARK                         _______ _______ _______ _____ _____    ______ ____
ROOT
ATOM      1  N   UNL     1       0.002  -0.004  -0.011  0.00  0.00    -0.295 N 
ATOM      2  C   UNL     1      -0.016   1.350   0.013  0.00  0.00    +0.126 A 
ATOM      3  C   UNL     1       1.135   2.070   0.023  0.00  0.00    +0.031 A 
ATOM      4  C   UNL     1       2.368   1.418   0.007  0.00  0.00    +0.020 A 
ATOM      5  C   UNL     1       2.395   0.025  -0.019  0.00  0.00    +0.101 A 
ATOM      6  C   UNL     1       1.165  -0.682  -0.028  0.00  0.00    +0.264 A 
ATOM      7  O   UNL     1       1.161  -1.901  -0.051  0.00  0.00    -0.267 OA
ENDROOT
BRANCH   5   8
ATOM      8  C   UNL     1       3.675  -0.699  -0.036  0.00  0.00    +0.247 C 
ATOM      9  O   UNL     1       4.720  -0.084  -0.136  0.00  0.00    -0.270 OA
ATOM     10  N   UNL     1       3.690  -2.043   0.058  0.00  0.00    -0.325 N 
ATOM     11  H   UNL     1       2.856  -2.539   0.063  0.00  0.00    +0.145 HD
ATOM     12  H   UNL     1       4.535  -2.516   0.121  0.00  0.00    +0.145 HD
ENDBRANCH   5   8
BRANCH   2  13
ATOM     13  C   UNL     1      -1.339   2.072   0.025  0.00  0.00    +0.433 C 
ATOM     14  F   UNL     1      -1.117   3.453   0.051  0.00  0.00    -0.164 F 
ATOM     15  F   UNL     1      -2.062   1.738  -1.125  0.00  0.00    -0.164 F 
ATOM     16  F   UNL     1      -2.066   1.696   1.159  0.00  0.00    -0.164 F 
ENDBRANCH   2  13
BRANCH   1  17
ATOM     17  C   UNL     1      -1.264  -0.741  -0.021  0.00  0.00    +0.221 C 
BRANCH  17  22
ATOM     18  N   UNL     1      -4.385  -2.496  -3.229  0.00  0.00    -0.296 N 
ATOM     19  C   UNL     1      -3.239  -1.834  -2.974  0.00  0.00    +0.306 C 
ATOM     20  O   UNL     1      -2.560  -1.419  -3.892  0.00  0.00    -0.252 OA
ATOM     21  N   UNL     1      -2.847  -1.631  -1.700  0.00  0.00    -0.239 N 
ATOM     22  C   UNL     1      -1.702  -0.968  -1.445  0.00  0.00    +0.240 C 
ATOM     23  O   UNL     1      -1.024  -0.554  -2.361  0.00  0.00    -0.273 OA
ATOM     24  H   UNL     1      -4.927  -2.827  -2.496  0.00  0.00    +0.151 HD
ATOM     25  H   UNL     1      -3.390  -1.962  -0.967  0.00  0.00    +0.159 HD
BRANCH  18  26
ATOM     26  C   UNL     1      -4.811  -2.717  -4.613  0.00  0.00    +0.132 C 
BRANCH  26  28
ATOM     27  C   UNL     1      -7.149  -2.991  -5.262  0.00  0.00    +0.005 C 
ATOM     28  C   UNL     1      -6.113  -3.476  -4.623  0.00  0.00    -0.016 C 
ENDBRANCH  26  28
ENDBRANCH  18  26
ENDBRANCH  17  22
ENDBRANCH   1  17
TORSDOF 6
