REMARK  Name = ZINC20732388
REMARK  4 active torsions:
REMARK  status: ('A' for Active; 'I' for Inactive)
REMARK    1  A    between atoms: C_1  and  S_2
REMARK    2  A    between atoms: S_2  and  C_3
REMARK    3  A    between atoms: C_6  and  C_9
REMARK    4  A    between atoms: C_12  and  O_20
REMARK                            x       y       z     vdW  Elec       q    Type
REMARK                         _______ _______ _______ _____ _____    ______ ____
ROOT
ATOM      1  C   UNL     1      -5.834  -1.544   0.050  0.00  0.00    +0.063 C 
ATOM      2  C   UNL     1      -6.138  -2.392   1.289  0.00  0.00    +0.108 C 
ATOM      3  C   UNL     1      -5.660  -3.804   1.134  0.00  0.00    +0.190 C 
ATOM      4  N   UNL     1      -5.642  -4.447   0.007  0.00  0.00    -0.196 NA
ATOM      5  C   UNL     1      -6.048  -3.796  -1.133  0.00  0.00    +0.181 A 
ATOM      6  C   UNL     1      -6.153  -2.377  -1.167  0.00  0.00    +0.024 A 
ATOM      7  C   UNL     1      -6.556  -2.017  -2.389  0.00  0.00    +0.111 A 
ATOM      8  N   UNL     1      -6.713  -3.146  -3.122  0.00  0.00    -0.282 N 
ATOM      9  H   UNL     1      -7.000  -3.188  -4.047  0.00  0.00    +0.188 HD
ATOM     10  N   UNL     1      -6.388  -4.248  -2.308  0.00  0.00    -0.154 NA
ENDROOT
BRANCH   1  14
ATOM     11  C   UNL     1      -1.702  -0.454   0.016  0.00  0.00    +0.008 A 
ATOM     12  C   UNL     1      -2.682   0.531   0.025  0.00  0.00    +0.015 A 
ATOM     13  C   UNL     1      -4.016   0.176   0.036  0.00  0.00    +0.005 A 
ATOM     14  C   UNL     1      -4.377  -1.159   0.038  0.00  0.00    -0.039 A 
ATOM     15  C   UNL     1      -3.404  -2.143   0.029  0.00  0.00    +0.005 A 
ATOM     16  C   UNL     1      -2.068  -1.794   0.012  0.00  0.00    +0.015 A 
BRANCH  11  18
ATOM     17  C   UNL     1      -0.022   1.810   0.012  0.00  0.00    +0.090 C 
ATOM     18  S   UNL     1       0.002  -0.004   0.002  0.00  0.00    -0.129 S 
ENDBRANCH  11  18
ENDBRANCH   1  14
BRANCH   3  19
ATOM     19  O   UNL     1      -5.222  -4.448   2.236  0.00  0.00    -0.495 OA
ATOM     20  H   UNL     1      -4.928  -5.354   2.071  0.00  0.00    +0.293 HD
ENDBRANCH   3  19
TORSDOF 3
