REMARK  Name = ZINC17246336
REMARK  8 active torsions:
REMARK  status: ('A' for Active; 'I' for Inactive)
REMARK    1  A    between atoms: C_1  and  C_2
REMARK    2  A    between atoms: C_2  and  C_3
REMARK    3  A    between atoms: C_3  and  C_5
REMARK    4  A    between atoms: C_3  and  N_6
REMARK    5  A    between atoms: C_8  and  C_14
REMARK    6  A    between atoms: C_21  and  O_22
REMARK    7  A    between atoms: O_22  and  C_23
REMARK    8  A    between atoms: N_29  and  C_30
REMARK                            x       y       z     vdW  Elec       q    Type
REMARK                         _______ _______ _______ _____ _____    ______ ____
ROOT
ATOM      1  C   UNL     1       5.578   3.421  -0.675  0.00  0.00    +0.008 C 
ATOM      2  C   UNL     1       5.644   4.915  -0.850  0.00  0.00    -0.008 A 
ATOM      3  C   UNL     1       6.475   5.504  -1.780  0.00  0.00    -0.040 A 
ATOM      4  C   UNL     1       6.508   6.884  -1.904  0.00  0.00    +0.053 A 
ATOM      5  C   UNL     1       5.711   7.682  -1.102  0.00  0.00    +0.170 A 
ATOM      6  C   UNL     1       4.869   7.093  -0.165  0.00  0.00    +0.208 A 
ATOM      7  C   UNL     1       4.838   5.711  -0.042  0.00  0.00    +0.167 A 
ATOM      8  O   UNL     1       4.192   8.079   0.496  0.00  0.00    -0.449 OA
ATOM      9  C   UNL     1       4.928   9.290   0.237  0.00  0.00    +0.467 C 
ATOM     10  O   UNL     1       5.564   9.038  -1.030  0.00  0.00    -0.452 OA
ATOM     11  C   UNL     1       7.361   4.681  -2.680  0.00  0.00    +0.017 C 
ATOM     12  C   UNL     1       7.498   3.264  -2.123  0.00  0.00    -0.073 C 
ATOM     13  N   UNL     1       6.152   2.741  -1.841  0.00  0.00    +0.386 N 
ATOM     14  C   UNL     1       6.183   1.286  -1.640  0.00  0.00    -0.095 C 
ATOM     15  H   UNL     1       5.508   2.944  -2.710  0.00  0.00    -0.081 HD
ENDROOT
BRANCH   1  18
ATOM     16  N   UNL     1       2.361   2.205   0.807  0.00  0.00    -0.285 N 
ATOM     17  C   UNL     1       3.674   2.574   0.692  0.00  0.00    +0.260 A 
ATOM     18  C   UNL     1       4.139   3.002  -0.514  0.00  0.00    +0.072 A 
ATOM     19  C   UNL     1       3.252   3.047  -1.610  0.00  0.00    +0.258 A 
ATOM     20  O   UNL     1       3.645   3.427  -2.703  0.00  0.00    -0.267 OA
ATOM     21  N   UNL     1       1.974   2.670  -1.447  0.00  0.00    -0.302 N 
ATOM     22  C   UNL     1       1.536   2.258  -0.275  0.00  0.00    +0.164 A 
ATOM     23  S   UNL     1      -0.149   1.773  -0.104  0.00  0.00    -0.013 S 
ATOM     24  O   UNL     1       4.497   2.518   1.763  0.00  0.00    -0.267 OA
ATOM     25  H   UNL     1       1.278   2.703  -2.298  0.00  0.00    +0.171 HD
BRANCH  16  26
ATOM     26  C   UNL     1       1.842   1.748   2.099  0.00  0.00    +0.089 C 
ATOM     27  C   UNL     1       2.592   0.486   2.531  0.00  0.00    +0.031 C 
BRANCH  26  29
ATOM     28  C   UNL     1       1.361   2.432   4.453  0.00  0.00    +0.006 C 
ATOM     29  C   UNL     1       2.042   2.845   3.146  0.00  0.00    +0.021 C 
ENDBRANCH  26  29
ENDBRANCH  16  26
ENDBRANCH   1  18
BRANCH   7  30
ATOM     30  O   UNL     1       4.015   5.132   0.873  0.00  0.00    -0.491 OA
ATOM     31  C   UNL     1       2.611   5.196   0.615  0.00  0.00    +0.277 C 
ENDBRANCH   7  30
TORSDOF 4
