REMARK  Name = ZINC33438714
REMARK  3 active torsions:
REMARK  status: ('A' for Active; 'I' for Inactive)
REMARK    1  A    between atoms: C_4  and  N_7
REMARK    2  A    between atoms: C_9  and  N_22
REMARK    3  A    between atoms: C_13  and  C_15
REMARK                            x       y       z     vdW  Elec       q    Type
REMARK                         _______ _______ _______ _____ _____    ______ ____
ROOT
ATOM      1  N   UNL     1       3.620  -0.649  -0.036  0.00  0.00    -0.146 N 
ATOM      2  N   UNL     1       4.900  -0.073  -0.040  0.00  0.00    -0.232 N 
ATOM      3  C   UNL     1       5.835  -1.138  -0.057  0.00  0.00    +0.123 C 
ATOM      4  C   UNL     1       5.172  -2.293  -0.063  0.00  0.00    +0.170 C 
ATOM      5  N   UNL     1       3.803  -2.038  -0.045  0.00  0.00    -0.103 N 
ATOM      6  N   UNL     1       3.149  -3.276  -0.046  0.00  0.00    -0.143 NA
ATOM      7  C   UNL     1       4.032  -4.229  -0.060  0.00  0.00    +0.151 C 
ATOM      8  N   UNL     1       5.309  -3.684  -0.078  0.00  0.00    -0.281 N 
ATOM      9  H   UNL     1       5.106   0.874  -0.032  0.00  0.00    +0.173 HD
ATOM     10  H   UNL     1       6.144  -4.178  -0.089  0.00  0.00    +0.155 HD
ENDROOT
BRANCH   7  11
ATOM     11  C   UNL     1       3.723  -5.675  -0.065  0.00  0.00    +0.017 A 
ATOM     12  C   UNL     1       4.758  -6.612  -0.074  0.00  0.00    +0.014 A 
ATOM     13  C   UNL     1       4.464  -7.960  -0.079  0.00  0.00    +0.039 A 
ATOM     14  C   UNL     1       3.145  -8.384  -0.075  0.00  0.00    +0.123 A 
ATOM     15  C   UNL     1       2.114  -7.458  -0.067  0.00  0.00    +0.039 A 
ATOM     16  C   UNL     1       2.396  -6.108  -0.056  0.00  0.00    +0.014 A 
ATOM     17  F   UNL     1       2.863  -9.705  -0.080  0.00  0.00    -0.205 F 
ENDBRANCH   7  11
BRANCH   1  21
ATOM     18  C   UNL     1      -0.017   1.379   0.010  0.00  0.00    +0.000 A 
ATOM     19  C   UNL     1       1.169   2.089   0.002  0.00  0.00    +0.002 A 
ATOM     20  C   UNL     1       2.377   1.420  -0.013  0.00  0.00    +0.026 A 
ATOM     21  C   UNL     1       2.400   0.031  -0.021  0.00  0.00    +0.071 A 
ATOM     22  C   UNL     1       1.206  -0.680  -0.013  0.00  0.00    +0.026 A 
ATOM     23  C   UNL     1       0.002  -0.004   0.002  0.00  0.00    +0.002 A 
ENDBRANCH   1  21
BRANCH   3  24
ATOM     24  N   UNL     1       7.226  -0.999  -0.066  0.00  0.00    -0.402 NA
ATOM     25  H   UNL     1       7.467  -0.019  -0.058  0.00  0.00    +0.122 HD
ATOM     26  H   UNL     1       7.614  -1.447   0.751  0.00  0.00    +0.122 HD
ATOM     27  H   UNL     1       7.602  -1.431  -0.897  0.00  0.00    +0.122 HD
ENDBRANCH   3  24
TORSDOF 3
