REMARK  Name = ZINC59513353
REMARK  8 active torsions:
REMARK  status: ('A' for Active; 'I' for Inactive)
REMARK    1  A    between atoms: C_1  and  C_2
REMARK    2  A    between atoms: C_2  and  C_3
REMARK    3  A    between atoms: C_3  and  C_5
REMARK    4  A    between atoms: C_3  and  S_15
REMARK    5  A    between atoms: S_15  and  C_16
REMARK    6  A    between atoms: C_18  and  N_30
REMARK    7  A    between atoms: N_22  and  C_23
REMARK    8  A    between atoms: C_27  and  C_29
REMARK                            x       y       z     vdW  Elec       q    Type
REMARK                         _______ _______ _______ _____ _____    ______ ____
ROOT
ATOM      1  C   UNL     1      -2.652   1.093   1.492  0.00  0.00    +0.179 A 
ATOM      2  N   UNL     1      -2.466   1.702   0.339  0.00  0.00    -0.208 NA
ATOM      3  C   UNL     1      -2.668   3.018   0.210  0.00  0.00    +0.124 A 
ATOM      4  C   UNL     1      -3.080   3.762   1.307  0.00  0.00    +0.114 A 
ATOM      5  C   UNL     1      -3.276   3.110   2.528  0.00  0.00    +0.261 A 
ATOM      6  O   UNL     1      -3.638   3.733   3.513  0.00  0.00    -0.267 OA
ATOM      7  N   UNL     1      -3.062   1.780   2.598  0.00  0.00    -0.256 N 
ENDROOT
BRANCH   7   8
ATOM      8  C   UNL     1      -3.256   1.103   3.809  0.00  0.00    +0.052 A 
ATOM      9  C   UNL     1      -2.171   0.557   4.482  0.00  0.00    +0.026 A 
ATOM     10  C   UNL     1      -2.365  -0.109   5.676  0.00  0.00    +0.002 A 
ATOM     11  C   UNL     1      -3.638  -0.234   6.201  0.00  0.00    +0.003 A 
ATOM     12  C   UNL     1      -4.721   0.308   5.533  0.00  0.00    -0.048 A 
ATOM     13  C   UNL     1      -4.532   0.981   4.341  0.00  0.00    +0.029 A 
ATOM     14  C   UNL     1      -6.106   0.170   6.108  0.00  0.00    +0.044 C 
ENDBRANCH   7   8
BRANCH   3  15
ATOM     15  N   UNL     1      -2.466   3.634  -1.009  0.00  0.00    -0.343 N 
ATOM     16  H   UNL     1      -2.178   3.113  -1.774  0.00  0.00    +0.144 HD
ATOM     17  H   UNL     1      -2.613   4.589  -1.100  0.00  0.00    +0.144 HD
ENDBRANCH   3  15
BRANCH   1  18
ATOM     18  S   UNL     1      -2.373  -0.642   1.607  0.00  0.00    -0.074 S 
BRANCH  18  19
ATOM     19  C   UNL     1      -1.729  -1.093  -0.028  0.00  0.00    +0.140 C 
BRANCH  19  20
ATOM     20  C   UNL     1      -2.818  -0.937  -1.058  0.00  0.00    +0.232 C 
ATOM     21  O   UNL     1      -3.980  -0.918  -0.712  0.00  0.00    -0.274 OA
ATOM     22  N   UNL     1      -2.500  -0.817  -2.362  0.00  0.00    -0.269 N 
ATOM     23  C   UNL     1      -3.509  -0.771  -3.324  0.00  0.00    +0.125 A 
ATOM     24  C   UNL     1      -3.173  -0.758  -4.673  0.00  0.00    +0.045 A 
ATOM     25  C   UNL     1      -4.184  -0.713  -5.617  0.00  0.00    +0.025 A 
ATOM     26  C   UNL     1      -5.501  -0.681  -5.178  0.00  0.00    +0.059 A 
ATOM     27  C   UNL     1      -5.761  -0.697  -3.820  0.00  0.00    +0.132 A 
ATOM     28  N   UNL     1      -4.776  -0.746  -2.944  0.00  0.00    -0.239 NA
ATOM     29 CL   UNL     1      -6.806  -0.623  -6.320  0.00  0.00    -0.082 Cl
ATOM     30  H   UNL     1      -1.570  -0.763  -2.631  0.00  0.00    +0.156 HD
ENDBRANCH  19  20
BRANCH  19  32
ATOM     31  C   UNL     1      -0.052  -2.676   0.934  0.00  0.00    +0.005 C 
ATOM     32  C   UNL     1      -1.252  -2.547  -0.006  0.00  0.00    +0.020 C 
ENDBRANCH  19  32
ENDBRANCH  18  19
ENDBRANCH   1  18
TORSDOF 6
