REMARK  Name = ZINC54217059
REMARK  4 active torsions:
REMARK  status: ('A' for Active; 'I' for Inactive)
REMARK    1  A    between atoms: C_1  and  C_2
REMARK    2  A    between atoms: C_3  and  C_29
REMARK    3  A    between atoms: C_13  and  C_14
REMARK    4  A    between atoms: C_19  and  C_20
REMARK                            x       y       z     vdW  Elec       q    Type
REMARK                         _______ _______ _______ _____ _____    ______ ____
ROOT
ATOM      1  C   UNL     1       1.940   1.245   0.038  0.00  0.00    +0.045 C 
ATOM      2  C   UNL     1       1.686  -0.240   0.040  0.00  0.00    -0.026 A 
ATOM      3  C   UNL     1       1.771  -0.946  -1.099  0.00  0.00    -0.008 A 
ATOM      4  S   UNL     1       1.395  -2.611  -0.585  0.00  0.00    -0.073 S 
ATOM      5  C   UNL     1       1.133  -2.312   1.145  0.00  0.00    +0.116 A 
ATOM      6  C   UNL     1       1.351  -0.926   1.275  0.00  0.00    +0.075 A 
ATOM      7  C   UNL     1       1.209  -0.397   2.596  0.00  0.00    +0.263 A 
ATOM      8  O   UNL     1       1.375   0.793   2.800  0.00  0.00    -0.267 OA
ATOM      9  N   UNL     1       0.887  -1.223   3.618  0.00  0.00    -0.292 N 
ATOM     10  C   UNL     1       0.697  -2.562   3.403  0.00  0.00    +0.141 A 
ATOM     11  N   UNL     1       0.817  -3.070   2.180  0.00  0.00    -0.222 NA
ATOM     12  C   UNL     1       0.360  -3.252   4.651  0.00  0.00    -0.002 C 
ATOM     13  C   UNL     1       0.110  -4.571   4.795  0.00  0.00    +0.018 C 
ATOM     14  C   UNL     1       0.344  -2.212   5.747  0.00  0.00    +0.060 C 
ATOM     15  C   UNL     1       0.693  -0.897   5.038  0.00  0.00    +0.131 C 
ATOM     16  C   UNL     1       2.106  -0.449  -2.482  0.00  0.00    +0.052 C 
ENDROOT
BRANCH  13  17
ATOM     17  C   UNL     1       0.001  -5.431   3.608  0.00  0.00    +0.020 A 
ATOM     18  C   UNL     1      -0.587  -5.106   2.402  0.00  0.00    +0.113 A 
ATOM     19  N   UNL     1      -0.474  -6.170   1.589  0.00  0.00    -0.284 N 
ATOM     20  H   UNL     1      -0.803  -6.215   0.677  0.00  0.00    +0.188 HD
ATOM     21  N   UNL     1       0.189  -7.204   2.256  0.00  0.00    -0.173 NA
ATOM     22  C   UNL     1       0.499  -6.803   3.469  0.00  0.00    +0.100 A 
BRANCH  22  23
ATOM     23  C   UNL     1       1.214  -7.591   4.502  0.00  0.00    +0.003 A 
ATOM     24  C   UNL     1       2.086  -6.957   5.386  0.00  0.00    +0.013 A 
ATOM     25  C   UNL     1       2.749  -7.694   6.345  0.00  0.00    +0.039 A 
ATOM     26  C   UNL     1       2.550  -9.062   6.430  0.00  0.00    +0.123 A 
ATOM     27  C   UNL     1       1.685  -9.697   5.553  0.00  0.00    +0.039 A 
ATOM     28  C   UNL     1       1.012  -8.967   4.595  0.00  0.00    +0.013 A 
ATOM     29  F   UNL     1       3.201  -9.780   7.371  0.00  0.00    -0.205 F 
ENDBRANCH  22  23
ENDBRANCH  13  17
TORSDOF 2
