REMARK  Name = ZINC05415223
REMARK  3 active torsions:
REMARK  status: ('A' for Active; 'I' for Inactive)
REMARK    1  A    between atoms: C_1  and  C_2
REMARK    2  A    between atoms: C_2  and  C_20
REMARK    3  A    between atoms: N_16  and  N_17
REMARK                            x       y       z     vdW  Elec       q    Type
REMARK                         _______ _______ _______ _____ _____    ______ ____
ROOT
ATOM      1  C   UNL     1      -2.034  -4.208   0.104  0.00  0.00    +0.041 C 
ATOM      2  C   UNL     1      -2.792  -2.912   0.399  0.00  0.00    +0.068 C 
ATOM      3  C   UNL     1      -1.921  -1.709   0.008  0.00  0.00    +0.072 C 
ATOM      4  C   UNL     1      -2.800  -0.485   0.014  0.00  0.00    -0.009 A 
ATOM      5  C   UNL     1      -4.149  -0.538   0.018  0.00  0.00    +0.048 A 
ATOM      6  N   UNL     1      -4.647   0.734   0.026  0.00  0.00    -0.342 N 
ATOM      7  H   UNL     1      -5.590   0.961   0.030  0.00  0.00    +0.167 HD
ATOM      8  C   UNL     1      -3.631   1.634   0.027  0.00  0.00    +0.124 A 
ATOM      9  C   UNL     1      -2.429   0.920   0.019  0.00  0.00    +0.061 A 
ATOM     10  C   UNL     1      -1.210   1.637   0.017  0.00  0.00    +0.149 A 
ATOM     11  N   UNL     1      -1.236   2.963   0.029  0.00  0.00    -0.176 NA
ATOM     12  C   UNL     1      -2.386   3.634   0.033  0.00  0.00    +0.349 A 
ATOM     13  O   UNL     1      -2.360   4.853   0.040  0.00  0.00    -0.245 OA
ATOM     14  N   UNL     1      -3.577   3.006   0.034  0.00  0.00    -0.292 N 
ATOM     15  H   UNL     1      -4.423   3.539   0.041  0.00  0.00    +0.172 HD
ATOM     16  N   UNL     1      -0.011   0.966   0.007  0.00  0.00    -0.267 N 
ATOM     17  C   UNL     1      -4.913  -1.841   0.012  0.00  0.00    +0.213 C 
ATOM     18  O   UNL     1      -4.006  -2.887  -0.357  0.00  0.00    -0.368 OA
ATOM     19  C   UNL     1      -3.120  -2.842   1.892  0.00  0.00    +0.041 C 
ATOM     20  H   UNL     1       0.055   0.391   0.823  0.00  0.00    +0.167 HD
ENDROOT
BRANCH  16  21
ATOM     21  N   UNL     1       1.163   1.665  -0.000  0.00  0.00    -0.255 NA
ATOM     22  H   UNL     1       1.955   1.041  -0.011  0.00  0.00    +0.140 HD
ATOM     23  H   UNL     1       1.196   2.306  -0.778  0.00  0.00    +0.140 HD
ENDBRANCH  16  21
TORSDOF 1
