REMARK  Name = ZINC04217537
REMARK  8 active torsions:
REMARK  status: ('A' for Active; 'I' for Inactive)
REMARK    1  A    between atoms: C_1  and  C_2
REMARK    2  A    between atoms: C_5  and  O_32
REMARK    3  A    between atoms: C_16  and  O_31
REMARK    4  A    between atoms: C_19  and  C_30
REMARK    5  A    between atoms: C_24  and  C_25
REMARK    6  A    between atoms: C_24  and  O_29
REMARK    7  A    between atoms: C_25  and  C_27
REMARK    8  A    between atoms: C_27  and  O_28
REMARK                            x       y       z     vdW  Elec       q    Type
REMARK                         _______ _______ _______ _____ _____    ______ ____
ROOT
ATOM      1  C   UNL     1      -2.556   3.844  -2.436  0.00  0.00    +0.012 C 
ATOM      2  C   UNL     1      -1.878   3.170  -1.242  0.00  0.00    -0.024 C 
ATOM      3  C   UNL     1      -2.221   1.679  -1.235  0.00  0.00    +0.010 C 
ATOM      4  C   UNL     1      -1.538   1.005  -0.043  0.00  0.00    +0.032 C 
ATOM      5  C   UNL     1      -2.029   1.647   1.256  0.00  0.00    +0.115 C 
ATOM      6  C   UNL     1      -1.689   3.139   1.248  0.00  0.00    +0.035 C 
ATOM      7  C   UNL     1      -2.372   3.812   0.056  0.00  0.00    -0.002 C 
ATOM      8  C   UNL     1      -2.029   5.303   0.050  0.00  0.00    +0.004 C 
ATOM      9  C   UNL     1      -0.514   5.483  -0.070  0.00  0.00    +0.004 C 
ATOM     10  C   UNL     1      -0.028   4.843  -1.372  0.00  0.00    -0.001 C 
ATOM     11  C   UNL     1      -0.362   3.344  -1.351  0.00  0.00    +0.027 C 
ATOM     12  C   UNL     1       0.156   2.635  -2.597  0.00  0.00    +0.119 C 
ATOM     13  C   UNL     1       1.663   2.872  -2.791  0.00  0.00    +0.041 C 
ATOM     14  C   UNL     1       1.878   4.371  -2.867  0.00  0.00    +0.009 C 
ATOM     15  C   UNL     1       1.479   4.968  -1.490  0.00  0.00    +0.002 C 
ATOM     16  C   UNL     1       2.025   6.396  -1.603  0.00  0.00    +0.008 C 
ATOM     17  C   UNL     1       3.405   6.189  -2.285  0.00  0.00    +0.043 C 
ATOM     18  C   UNL     1       3.315   4.846  -3.053  0.00  0.00    +0.131 C 
ATOM     19  C   UNL     1       0.991   4.965  -3.963  0.00  0.00    +0.015 C 
ENDROOT
BRANCH  18  20
ATOM     20  C   UNL     1       3.608   5.061  -4.516  0.00  0.00    +0.190 C 
ATOM     21  O   UNL     1       3.442   6.150  -5.011  0.00  0.00    -0.292 OA
BRANCH  20  22
ATOM     22  C   UNL     1       4.109   3.917  -5.360  0.00  0.00    +0.233 C 
BRANCH  22  23
ATOM     23  O   UNL     1       4.312   4.368  -6.700  0.00  0.00    -0.387 OA
ATOM     24  H   UNL     1       4.635   3.682  -7.301  0.00  0.00    +0.210 HD
ENDBRANCH  22  23
ENDBRANCH  20  22
ENDBRANCH  18  20
BRANCH  18  25
ATOM     25  O   UNL     1       4.226   3.896  -2.499  0.00  0.00    -0.380 OA
ATOM     26  H   UNL     1       5.157   4.145  -2.588  0.00  0.00    +0.211 HD
ENDBRANCH  18  25
BRANCH  12  27
ATOM     27  O   UNL     1      -0.544   3.129  -3.741  0.00  0.00    -0.391 OA
ATOM     28  H   UNL     1      -0.269   2.724  -4.575  0.00  0.00    +0.210 HD
ENDBRANCH  12  27
BRANCH   5  29
ATOM     29  O   UNL     1      -1.391   1.019   2.369  0.00  0.00    -0.392 OA
ATOM     30  H   UNL     1      -1.563   0.070   2.437  0.00  0.00    +0.210 HD
ENDBRANCH   5  29
TORSDOF 6
