REMARK  Name = ZINC61918549
REMARK  5 active torsions:
REMARK  status: ('A' for Active; 'I' for Inactive)
REMARK    1  A    between atoms: C_1  and  C_2
REMARK    2  A    between atoms: N_5  and  C_10
REMARK    3  A    between atoms: C_10  and  C_12
REMARK    4  A    between atoms: C_10  and  C_13
REMARK    5  A    between atoms: C_13  and  N_15
REMARK                            x       y       z     vdW  Elec       q    Type
REMARK                         _______ _______ _______ _____ _____    ______ ____
ROOT
ATOM      1  C   UNL     1       1.261   1.859  -0.617  0.00  0.00    +0.039 C 
ATOM      2  C   UNL     1       0.761   0.435  -0.368  0.00  0.00    +0.129 C 
ATOM      3  C   UNL     1       1.202  -0.446  -1.510  0.00  0.00    +0.116 C 
ATOM      4  N   UNL     1       0.158  -1.463  -1.745  0.00  0.00    -0.291 NA
ATOM      5  C   UNL     1       0.202  -2.555  -0.862  0.00  0.00    +0.087 C 
ATOM      6  C   UNL     1      -0.004  -2.107   0.601  0.00  0.00    +0.043 C 
ATOM      7  C   UNL     1       1.260  -1.455   1.101  0.00  0.00    +0.161 C 
ATOM      8  O   UNL     1       1.275  -0.029   0.894  0.00  0.00    -0.376 OA
ENDROOT
BRANCH   4   9
ATOM      9  C   UNL     1       0.169  -1.916  -3.142  0.00  0.00    +0.105 C 
ATOM     10  C   UNL     1      -0.771  -3.113  -3.298  0.00  0.00    +0.031 C 
BRANCH   9  11
ATOM     11  C   UNL     1      -0.293  -0.794  -4.037  0.00  0.00    +0.063 C 
ATOM     12  S   UNL     1      -0.996   0.495  -3.404  0.00  0.00    -0.039 S 
BRANCH  11  13
ATOM     13  N   UNL     1      -0.114  -0.878  -5.370  0.00  0.00    -0.354 N 
ATOM     14  H   UNL     1       0.313  -1.661  -5.754  0.00  0.00    +0.143 HD
ATOM     15  H   UNL     1      -0.411  -0.157  -5.946  0.00  0.00    +0.143 HD
ENDBRANCH  11  13
ENDBRANCH   9  11
ENDBRANCH   4   9
TORSDOF 3
