REMARK  Name = ZINC20348921
REMARK  5 active torsions:
REMARK  status: ('A' for Active; 'I' for Inactive)
REMARK    1  A    between atoms: C_1  and  C_2
REMARK    2  A    between atoms: C_3  and  N_14
REMARK    3  A    between atoms: N_5  and  C_7
REMARK    4  A    between atoms: C_7  and  C_8
REMARK    5  A    between atoms: C_8  and  C_9
REMARK                            x       y       z     vdW  Elec       q    Type
REMARK                         _______ _______ _______ _____ _____    ______ ____
ROOT
ATOM      1  C   UNL     1      -1.208  -0.902   0.008  0.00  0.00    +0.069 C 
ATOM      2  C   UNL     1       0.002  -0.004   0.002  0.00  0.00    +0.081 A 
ATOM      3  C   UNL     1      -0.017   1.398   0.010  0.00  0.00    +0.065 A 
ATOM      4  C   UNL     1       1.269   1.832  -0.000  0.00  0.00    +0.131 A 
ATOM      5  N   UNL     1       2.072   0.735  -0.014  0.00  0.00    -0.263 N 
ATOM      6  N   UNL     1       1.250  -0.399  -0.012  0.00  0.00    -0.174 NA
ENDROOT
BRANCH   3   7
ATOM      7  N   UNL     1      -1.166   2.211   0.020  0.00  0.00    -0.355 N 
ATOM      8  H   UNL     1      -1.065   3.307   0.025  0.00  0.00    +0.142 HD
ATOM      9  H   UNL     1      -2.166   1.752   0.022  0.00  0.00    +0.142 HD
ENDBRANCH   3   7
BRANCH   5  10
ATOM     10  C   UNL     1       3.537   0.738  -0.027  0.00  0.00    +0.224 C 
BRANCH  10  11
ATOM     11  C   UNL     1       4.059  -0.094   1.146  0.00  0.00    +0.327 C 
ATOM     12  F   UNL     1       3.603   0.457   2.348  0.00  0.00    -0.197 F 
ATOM     13  F   UNL     1       3.595  -1.408   1.029  0.00  0.00    -0.197 F 
BRANCH  11  14
ATOM     14  C   UNL     1       5.589  -0.091   1.131  0.00  0.00    +0.411 C 
ATOM     15  F   UNL     1       6.054   1.224   1.248  0.00  0.00    -0.203 F 
ATOM     16  F   UNL     1       6.067  -0.851   2.204  0.00  0.00    -0.203 F 
ENDBRANCH  11  14
ENDBRANCH  10  11
ENDBRANCH   5  10
TORSDOF 4
