REMARK  Name = ZINC23666335
REMARK  8 active torsions:
REMARK  status: ('A' for Active; 'I' for Inactive)
REMARK    1  A    between atoms: C_1  and  N_2
REMARK    2  A    between atoms: C_6  and  C_7
REMARK    3  A    between atoms: N_9  and  N_10
REMARK    4  A    between atoms: C_11  and  C_13
REMARK    5  A    between atoms: C_14  and  C_15
REMARK    6  A    between atoms: C_18  and  N_21
REMARK    7  A    between atoms: N_21  and  S_22
REMARK    8  A    between atoms: S_22  and  C_25
REMARK                            x       y       z     vdW  Elec       q    Type
REMARK                         _______ _______ _______ _____ _____    ______ ____
ROOT
ATOM      1  N   UNL     1       4.248  -0.407   8.221  0.00  0.00    -0.231 N 
ATOM      2  C   UNL     1       3.571   0.721   7.925  0.00  0.00    +0.253 C 
ATOM      3  O   UNL     1       3.517   1.628   8.734  0.00  0.00    -0.269 OA
ATOM      4  H   UNL     1       4.297  -1.227   7.490  0.00  0.00    +0.173 HD
ENDROOT
BRANCH   1   7
ATOM      5  C   UNL     1       5.564  -1.662   9.757  0.00  0.00    +0.277 C 
ATOM      6  O   UNL     1       5.547  -2.602   8.985  0.00  0.00    -0.267 OA
ATOM      7  N   UNL     1       4.888  -0.534   9.460  0.00  0.00    -0.229 N 
ATOM      8  H   UNL     1       4.839   0.286  10.192  0.00  0.00    +0.173 HD
BRANCH   5  14
ATOM      9  C   UNL     1       7.393  -4.011  10.614  0.00  0.00    +0.149 C 
ATOM     10  N   UNL     1       7.134  -2.797  11.393  0.00  0.00    -0.345 N 
ATOM     11  C   UNL     1       7.657  -2.514  12.612  0.00  0.00    +0.101 A 
ATOM     12  C   UNL     1       7.193  -1.307  13.018  0.00  0.00    +0.036 A 
ATOM     13  C   UNL     1       6.352  -0.812  12.015  0.00  0.00    +0.047 A 
ATOM     14  C   UNL     1       6.321  -1.755  11.010  0.00  0.00    +0.107 A 
ATOM     15 BR   UNL     1       7.612  -0.443  14.647  0.00  0.00    -0.049 Br
ENDBRANCH   5  14
ENDBRANCH   1   7
BRANCH   2  16
ATOM     16  C   UNL     1       2.903   0.854   6.631  0.00  0.00    +0.069 C 
ATOM     17  C   UNL     1       2.225   1.983   6.334  0.00  0.00    +0.013 C 
BRANCH  17  18
ATOM     18  C   UNL     1       1.553   2.117   5.035  0.00  0.00    -0.025 A 
ATOM     19  C   UNL     1       0.850   3.288   4.725  0.00  0.00    +0.010 A 
ATOM     20  C   UNL     1       0.225   3.408   3.510  0.00  0.00    +0.025 A 
ATOM     21  C   UNL     1       0.289   2.369   2.586  0.00  0.00    +0.048 A 
ATOM     22  C   UNL     1       0.982   1.201   2.892  0.00  0.00    +0.025 A 
ATOM     23  C   UNL     1       1.615   1.074   4.102  0.00  0.00    +0.010 A 
BRANCH  21  24
ATOM     24  N   UNL     1      -0.347   2.495   1.355  0.00  0.00    -0.221 N 
ATOM     25  H   UNL     1      -1.442   2.401   1.289  0.00  0.00    +0.173 HD
BRANCH  24  26
ATOM     26  S   UNL     1       0.542   2.787  -0.010  0.00  0.00    +0.040 S 
ATOM     27  O   UNL     1      -0.417   2.885  -1.054  0.00  0.00    -0.155 OA
ATOM     28  O   UNL     1       1.528   1.764  -0.026  0.00  0.00    -0.155 OA
ATOM     29  C   UNL     1       1.321   4.401   0.277  0.00  0.00    +0.218 C 
ENDBRANCH  24  26
ENDBRANCH  21  24
ENDBRANCH  17  18
ENDBRANCH   2  16
TORSDOF 6
