REMARK  Name = ZINC47629037
REMARK  7 active torsions:
REMARK  status: ('A' for Active; 'I' for Inactive)
REMARK    1  A    between atoms: C_1  and  C_2
REMARK    2  A    between atoms: C_2  and  C_4
REMARK    3  A    between atoms: C_2  and  N_16
REMARK    4  A    between atoms: N_6  and  C_7
REMARK    5  A    between atoms: N_16  and  C_17
REMARK    6  A    between atoms: N_16  and  C_18
REMARK    7  A    between atoms: C_18  and  C_19
REMARK                            x       y       z     vdW  Elec       q    Type
REMARK                         _______ _______ _______ _____ _____    ______ ____
ROOT
ATOM      1  C   UNL     1       0.245  -0.382   1.629  0.00  0.00    +0.203 C 
ATOM      2  O   UNL     1      -0.669  -0.827   2.292  0.00  0.00    -0.277 OA
ATOM      3  N   UNL     1       1.475  -0.270   2.167  0.00  0.00    -0.284 N 
ATOM      4  H   UNL     1       2.192   0.140   1.658  0.00  0.00    +0.155 HD
ENDROOT
BRANCH   3   5
ATOM      5  C   UNL     1       1.720  -0.746   3.463  0.00  0.00    +0.072 A 
ATOM      6  C   UNL     1       0.720  -0.691   4.424  0.00  0.00    +0.029 A 
ATOM      7  C   UNL     1       0.961  -1.160   5.701  0.00  0.00    +0.043 A 
ATOM      8  C   UNL     1       2.200  -1.686   6.024  0.00  0.00    +0.161 A 
ATOM      9  C   UNL     1       3.202  -1.743   5.068  0.00  0.00    +0.195 A 
ATOM     10  C   UNL     1       2.962  -1.279   3.785  0.00  0.00    +0.182 A 
ATOM     11  F   UNL     1       3.936  -1.340   2.850  0.00  0.00    -0.200 F 
ATOM     12  F   UNL     1       4.411  -2.256   5.386  0.00  0.00    -0.199 F 
ATOM     13  F   UNL     1       2.433  -2.144   7.274  0.00  0.00    -0.202 F 
ENDBRANCH   3   5
BRANCH   1  15
ATOM     14  C   UNL     1       0.006   1.572   0.122  0.00  0.00    -0.004 C 
ATOM     15  C   UNL     1       0.004   0.044   0.204  0.00  0.00    +0.017 C 
BRANCH  15  16
ATOM     16  N   UNL     1      -1.296  -0.469  -0.247  0.00  0.00    +0.391 N 
ATOM     17  C   UNL     1      -1.581   0.038  -1.597  0.00  0.00    -0.094 C 
ATOM     18  H   UNL     1      -2.018  -0.161   0.387  0.00  0.00    -0.080 HD
BRANCH  16  19
ATOM     19  C   UNL     1      -1.261  -1.937  -0.273  0.00  0.00    +0.019 C 
BRANCH  19  20
ATOM     20  C   UNL     1      -2.634  -2.466  -0.600  0.00  0.00    +0.194 C 
ATOM     21  O   UNL     1      -3.551  -1.696  -0.793  0.00  0.00    -0.278 OA
ATOM     22  N   UNL     1      -2.842  -3.796  -0.679  0.00  0.00    -0.331 N 
ATOM     23  H   UNL     1      -2.109  -4.412  -0.525  0.00  0.00    +0.145 HD
ATOM     24  H   UNL     1      -3.726  -4.136  -0.889  0.00  0.00    +0.145 HD
ENDBRANCH  19  20
ENDBRANCH  16  19
ENDBRANCH  15  16
ENDBRANCH   1  15
TORSDOF 5
