REMARK  Name = ZINC39570627
REMARK  1 active torsions:
REMARK  status: ('A' for Active; 'I' for Inactive)
REMARK    1  A    between atoms: C_5  and  C_12
REMARK                            x       y       z     vdW  Elec       q    Type
REMARK                         _______ _______ _______ _____ _____    ______ ____
ROOT
ATOM      1  C   UNL     1      -0.018   1.456   0.010  0.00  0.00    +0.027 C 
ATOM      2  C   UNL     1       1.125   2.170   0.003  0.00  0.00    +0.031 C 
ATOM      3  C   UNL     1       2.416   1.463  -0.013  0.00  0.00    +0.084 C 
ATOM      4  N   UNL     1       3.645   1.891  -0.023  0.00  0.00    -0.253 NA
ATOM      5  C   UNL     1       4.523   0.716  -0.038  0.00  0.00    +0.247 C 
ATOM      6  N   UNL     1       3.644  -0.459  -0.035  0.00  0.00    -0.217 NA
ATOM      7  C   UNL     1       2.410  -0.025  -0.021  0.00  0.00    +0.077 C 
ATOM      8  C   UNL     1       1.165  -0.704  -0.013  0.00  0.00    +0.052 C 
ATOM      9  C   UNL     1       0.002  -0.004   0.002  0.00  0.00    +0.035 C 
ATOM     10  N   UNL     1      -1.200  -0.695   0.010  0.00  0.00    -0.398 N 
ATOM     11  H   UNL     1      -2.039  -0.208   0.020  0.00  0.00    +0.156 HD
ATOM     12  H   UNL     1      -1.202  -1.665   0.005  0.00  0.00    +0.156 HD
ENDROOT
BRANCH   5  13
ATOM     13  C   UNL     1       5.400   0.709   1.188  0.00  0.00    +0.034 A 
ATOM     14  C   UNL     1       5.890   1.754   1.890  0.00  0.00    +0.019 A 
ATOM     15  C   UNL     1       6.695   1.533   3.014  0.00  0.00    -0.037 A 
ATOM     16  C   UNL     1       6.939   0.238   3.333  0.00  0.00    -0.007 A 
ATOM     17  S   UNL     1       6.055  -0.681   2.097  0.00  0.00    -0.094 S 
ATOM     18  C   UNL     1       7.758  -0.307   4.458  0.00  0.00    +0.043 C 
ATOM     19  C   UNL     1       7.731   0.684   5.630  0.00  0.00    +0.005 C 
ATOM     20  C   UNL     1       8.879   1.672   5.452  0.00  0.00    +0.001 C 
ATOM     21  C   UNL     1       8.729   2.447   4.145  0.00  0.00    +0.005 C 
ATOM     22  C   UNL     1       7.257   2.692   3.830  0.00  0.00    +0.036 C 
ENDBRANCH   5  13
TORSDOF 1
