REMARK  Name = ZINC65565147
REMARK  5 active torsions:
REMARK  status: ('A' for Active; 'I' for Inactive)
REMARK    1  A    between atoms: C_1  and  C_2
REMARK    2  A    between atoms: C_3  and  C_24
REMARK    3  A    between atoms: C_5  and  C_18
REMARK    4  A    between atoms: C_7  and  N_8
REMARK    5  A    between atoms: C_12  and  C_15
REMARK                            x       y       z     vdW  Elec       q    Type
REMARK                         _______ _______ _______ _____ _____    ______ ____
ROOT
ATOM      1  C   UNL     1      -0.114   1.500   0.021  0.00  0.00    +0.049 C 
ATOM      2  C   UNL     1      -0.043  -0.005   0.007  0.00  0.00    +0.011 A 
ATOM      3  C   UNL     1      -0.141  -0.707  -1.180  0.00  0.00    +0.047 A 
ATOM      4  N   UNL     1      -0.076  -2.029  -1.158  0.00  0.00    -0.231 NA
ATOM      5  C   UNL     1       0.082  -2.685  -0.017  0.00  0.00    +0.180 A 
ATOM      6  N   UNL     1       0.179  -2.050   1.142  0.00  0.00    -0.211 NA
ATOM      7  C   UNL     1       0.128  -0.724   1.193  0.00  0.00    +0.128 A 
ATOM      8  C   UNL     1      -0.321   0.025  -2.485  0.00  0.00    +0.066 C 
ENDROOT
BRANCH   7   9
ATOM      9  N   UNL     1       0.237  -0.062   2.406  0.00  0.00    -0.314 N 
ATOM     10  C   UNL     1       1.542   0.415   2.884  0.00  0.00    +0.106 C 
ATOM     11  C   UNL     1       1.780  -0.133   4.295  0.00  0.00    +0.020 C 
ATOM     12  C   UNL     1       0.602   0.253   5.193  0.00  0.00    +0.016 C 
ATOM     13  C   UNL     1      -0.684  -0.369   4.644  0.00  0.00    +0.092 C 
ATOM     14  C   UNL     1      -0.952   0.181   3.235  0.00  0.00    +0.119 C 
BRANCH  13  15
ATOM     15  C   UNL     1      -1.838  -0.016   5.548  0.00  0.00    +0.215 C 
ATOM     16  O   UNL     1      -2.782   0.607   5.111  0.00  0.00    -0.276 OA
ATOM     17  N   UNL     1      -1.821  -0.393   6.842  0.00  0.00    -0.329 N 
ATOM     18  H   UNL     1      -1.065  -0.891   7.191  0.00  0.00    +0.145 HD
ATOM     19  H   UNL     1      -2.563  -0.166   7.423  0.00  0.00    +0.145 HD
ENDBRANCH  13  15
ENDBRANCH   7   9
BRANCH   5  20
ATOM     20  C   UNL     1       0.150  -4.167  -0.038  0.00  0.00    +0.108 A 
ATOM     21  C   UNL     1       0.055  -4.846  -1.251  0.00  0.00    +0.031 A 
ATOM     22  C   UNL     1       0.121  -6.229  -1.255  0.00  0.00    +0.004 A 
ATOM     23  C   UNL     1       0.281  -6.887  -0.044  0.00  0.00    +0.020 A 
ATOM     24  C   UNL     1       0.369  -6.149   1.123  0.00  0.00    +0.111 A 
ATOM     25  N   UNL     1       0.308  -4.834   1.097  0.00  0.00    -0.252 NA
ENDBRANCH   5  20
TORSDOF 3
