REMARK  Name = ZINC39127726
REMARK  7 active torsions:
REMARK  status: ('A' for Active; 'I' for Inactive)
REMARK    1  A    between atoms: C_1  and  C_2
REMARK    2  A    between atoms: C_3  and  C_24
REMARK    3  A    between atoms: C_4  and  O_23
REMARK    4  A    between atoms: C_5  and  C_22
REMARK    5  A    between atoms: N_11  and  C_12
REMARK    6  A    between atoms: C_15  and  S_18
REMARK    7  A    between atoms: S_18  and  N_21
REMARK                            x       y       z     vdW  Elec       q    Type
REMARK                         _______ _______ _______ _____ _____    ______ ____
ROOT
ATOM      1  C   UNL     1       0.245   1.588   0.031  0.00  0.00    +0.046 C 
ATOM      2  C   UNL     1      -0.145   0.136   0.125  0.00  0.00    -0.018 A 
ATOM      3  C   UNL     1      -0.652  -0.502  -0.977  0.00  0.00    -0.004 A 
ATOM      4  C   UNL     1      -1.026  -1.841  -0.933  0.00  0.00    +0.124 A 
ATOM      5  C   UNL     1      -0.880  -2.546   0.253  0.00  0.00    +0.007 A 
ATOM      6  C   UNL     1      -0.372  -1.911   1.359  0.00  0.00    +0.047 A 
ATOM      7  C   UNL     1       0.022  -0.554   1.347  0.00  0.00    +0.084 A 
ATOM      8  N   UNL     1       0.508  -0.076   2.515  0.00  0.00    -0.224 NA
ATOM      9  C   UNL     1       0.616  -0.820   3.591  0.00  0.00    +0.163 A 
ATOM     10  S   UNL     1      -0.019  -2.394   3.032  0.00  0.00    -0.052 S 
ATOM     11  N   UNL     1       1.089  -0.471   4.842  0.00  0.00    -0.294 N 
ATOM     12  C   UNL     1      -1.277  -3.998   0.327  0.00  0.00    +0.049 C 
ATOM     13  C   UNL     1      -0.810   0.265  -2.265  0.00  0.00    +0.048 C 
ATOM     14  H   UNL     1       1.322   0.451   5.033  0.00  0.00    +0.154 HD
ENDROOT
BRANCH  11  15
ATOM     15  C   UNL     1       1.234  -1.448   5.832  0.00  0.00    +0.033 A 
ATOM     16  C   UNL     1       1.016  -1.125   7.165  0.00  0.00    +0.025 A 
ATOM     17  C   UNL     1       1.160  -2.092   8.140  0.00  0.00    +0.030 A 
ATOM     18  C   UNL     1       1.520  -3.381   7.791  0.00  0.00    +0.105 A 
ATOM     19  C   UNL     1       1.738  -3.705   6.464  0.00  0.00    +0.030 A 
ATOM     20  C   UNL     1       1.590  -2.744   5.483  0.00  0.00    +0.025 A 
BRANCH  18  21
ATOM     21  S   UNL     1       1.703  -4.611   9.038  0.00  0.00    +0.056 S 
ATOM     22  O   UNL     1       2.577  -5.599   8.509  0.00  0.00    -0.153 OA
ATOM     23  O   UNL     1       1.976  -3.923  10.251  0.00  0.00    -0.153 OA
BRANCH  21  24
ATOM     24  N   UNL     1       0.228  -5.338   9.229  0.00  0.00    -0.204 NA
ATOM     25  H   UNL     1      -0.528  -5.051   8.692  0.00  0.00    +0.144 HD
ATOM     26  H   UNL     1       0.118  -6.051   9.877  0.00  0.00    +0.144 HD
ENDBRANCH  21  24
ENDBRANCH  18  21
ENDBRANCH  11  15
BRANCH   4  27
ATOM     27  O   UNL     1      -1.527  -2.453  -2.039  0.00  0.00    -0.506 OA
ATOM     28  H   UNL     1      -0.856  -2.865  -2.600  0.00  0.00    +0.292 HD
ENDBRANCH   4  27
TORSDOF 4
