REMARK  Name = ZINC52123050
REMARK  4 active torsions:
REMARK  status: ('A' for Active; 'I' for Inactive)
REMARK    1  A    between atoms: C_1  and  C_2
REMARK    2  A    between atoms: C_2  and  C_4
REMARK    3  A    between atoms: C_2  and  N_10
REMARK    4  A    between atoms: C_4  and  N_5
REMARK                            x       y       z     vdW  Elec       q    Type
REMARK                         _______ _______ _______ _____ _____    ______ ____
ROOT
ATOM      1  N   UNL     1       0.711  -0.489   1.189  0.00  0.00    -0.307 N 
ATOM      2  C   UNL     1       1.856  -1.269   1.200  0.00  0.00    +0.073 A 
ATOM      3  C   UNL     1       2.658  -1.814   0.209  0.00  0.00    +0.066 A 
ATOM      4  C   UNL     1       3.762  -2.567   0.555  0.00  0.00    +0.125 A 
ATOM      5  C   UNL     1       4.074  -2.784   1.891  0.00  0.00    +0.040 A 
ATOM      6  C   UNL     1       3.287  -2.250   2.887  0.00  0.00    +0.033 A 
ATOM      7  C   UNL     1       2.168  -1.485   2.553  0.00  0.00    +0.091 A 
ATOM      8  N   UNL     1       1.222  -0.842   3.289  0.00  0.00    -0.215 NA
ATOM      9  C   UNL     1       0.369  -0.252   2.490  0.00  0.00    +0.194 A 
ATOM     10  N   UNL     1      -0.716   0.494   2.901  0.00  0.00    -0.329 N 
ATOM     11  F   UNL     1       4.543  -3.098  -0.411  0.00  0.00    -0.205 F 
ATOM     12  H   UNL     1      -1.304   0.897   2.243  0.00  0.00    +0.145 HD
ATOM     13  H   UNL     1      -0.891   0.616   3.847  0.00  0.00    +0.145 HD
ENDROOT
BRANCH   1  15
ATOM     14  C   UNL     1      -0.019   1.526   0.010  0.00  0.00    +0.033 C 
ATOM     15  C   UNL     1       0.002  -0.004   0.002  0.00  0.00    +0.107 C 
BRANCH  15  16
ATOM     16  C   UNL     1      -1.433  -0.534   0.013  0.00  0.00    +0.147 C 
BRANCH  16  17
ATOM     17  N   UNL     1      -2.105  -0.148  -1.230  0.00  0.00    -0.335 N 
ATOM     18  C   UNL     1      -2.814   1.002  -1.448  0.00  0.00    +0.107 A 
ATOM     19  C   UNL     1      -3.258   0.953  -2.718  0.00  0.00    +0.130 A 
ATOM     20  N   UNL     1      -2.832  -0.197  -3.262  0.00  0.00    -0.244 NA
ATOM     21  C   UNL     1      -2.136  -0.859  -2.378  0.00  0.00    +0.199 A 
ENDBRANCH  16  17
ENDBRANCH  15  16
ENDBRANCH   1  15
TORSDOF 3
