REMARK  Name = ZINC43284209
REMARK  8 active torsions:
REMARK  status: ('A' for Active; 'I' for Inactive)
REMARK    1  A    between atoms: C_1  and  C_2
REMARK    2  A    between atoms: C_2  and  C_3
REMARK    3  A    between atoms: C_3  and  C_5
REMARK    4  A    between atoms: C_3  and  N_22
REMARK    5  A    between atoms: C_5  and  C_7
REMARK    6  A    between atoms: C_5  and  S_13
REMARK    7  A    between atoms: S_13  and  C_14
REMARK    8  A    between atoms: C_18  and  N_20
REMARK                            x       y       z     vdW  Elec       q    Type
REMARK                         _______ _______ _______ _____ _____    ______ ____
ROOT
ATOM      1  C   UNL     1       0.878  -2.052   1.193  0.00  0.00    +0.076 C 
ENDROOT
BRANCH   1   2
ATOM      2  C   UNL     1       1.631  -2.280  -0.092  0.00  0.00    +0.003 A 
ATOM      3  C   UNL     1       1.279  -3.030  -1.166  0.00  0.00    +0.013 A 
ATOM      4  C   UNL     1       2.136  -3.094  -2.248  0.00  0.00    +0.023 A 
ATOM      5  C   UNL     1       3.304  -2.406  -2.204  0.00  0.00    +0.055 A 
ATOM      6  S   UNL     1       3.213  -1.628  -0.600  0.00  0.00    -0.085 S 
ATOM      7 BR   UNL     1       4.671  -2.294  -3.506  0.00  0.00    -0.043 Br
ENDBRANCH   1   2
BRANCH   1   8
ATOM      8  C   UNL     1       0.585  -0.559   1.354  0.00  0.00    -0.057 C 
BRANCH   8   9
ATOM      9  N   UNL     1      -0.073  -0.326   2.647  0.00  0.00    +0.381 N 
ATOM     10  H   UNL     1      -0.897  -0.904   2.714  0.00  0.00    -0.090 HD
ATOM     11  H   UNL     1       0.564  -0.558   3.394  0.00  0.00    -0.090 HD
ATOM     12  H   UNL     1      -0.337   0.645   2.719  0.00  0.00    -0.090 HD
ENDBRANCH   8   9
BRANCH   8  14
ATOM     13  C   UNL     1      -0.529   1.419   0.311  0.00  0.00    +0.002 C 
ATOM     14  C   UNL     1      -0.336  -0.096   0.223  0.00  0.00    -0.018 C 
ENDBRANCH   8  14
ENDBRANCH   1   8
BRANCH   1  15
ATOM     15  S   UNL     1       1.882  -2.625   2.591  0.00  0.00    -0.079 S 
BRANCH  15  16
ATOM     16  C   UNL     1       1.930  -4.375   2.393  0.00  0.00    +0.192 A 
ATOM     17  N   UNL     1       1.216  -4.935   1.427  0.00  0.00    -0.207 NA
ATOM     18  C   UNL     1       1.228  -6.253   1.248  0.00  0.00    +0.122 A 
ATOM     19  C   UNL     1       2.004  -7.045   2.090  0.00  0.00    +0.086 A 
ATOM     20  C   UNL     1       2.740  -6.421   3.093  0.00  0.00    +0.122 A 
ATOM     21  N   UNL     1       2.683  -5.096   3.210  0.00  0.00    -0.207 NA
ATOM     22  N   UNL     1       0.478  -6.831   0.235  0.00  0.00    -0.343 N 
ATOM     23  H   UNL     1      -0.061  -6.274  -0.348  0.00  0.00    +0.144 HD
ATOM     24  H   UNL     1       0.491  -7.793   0.110  0.00  0.00    +0.144 HD
BRANCH  20  25
ATOM     25  N   UNL     1       3.526  -7.169   3.955  0.00  0.00    -0.343 N 
ATOM     26  H   UNL     1       3.566  -8.134   3.862  0.00  0.00    +0.144 HD
ATOM     27  H   UNL     1       4.037  -6.728   4.652  0.00  0.00    +0.144 HD
ENDBRANCH  20  25
ENDBRANCH  15  16
ENDBRANCH   1  15
TORSDOF 7
