REMARK  Name = ZINC12886438
REMARK  7 active torsions:
REMARK  status: ('A' for Active; 'I' for Inactive)
REMARK    1  A    between atoms: C_1  and  C_2
REMARK    2  A    between atoms: C_16  and  C_18
REMARK    3  A    between atoms: C_18  and  C_19
REMARK    4  A    between atoms: C_19  and  C_20
REMARK    5  A    between atoms: N_25  and  C_28
REMARK    6  A    between atoms: C_28  and  C_29
REMARK    7  A    between atoms: C_29  and  C_30
REMARK                            x       y       z     vdW  Elec       q    Type
REMARK                         _______ _______ _______ _____ _____    ______ ____
ROOT
ATOM      1  C   UNL     1       5.912   3.980  -3.194  0.00  0.00    +0.046 C 
ATOM      2  C   UNL     1       4.795   4.288  -2.231  0.00  0.00    -0.028 A 
ATOM      3  C   UNL     1       4.844   5.434  -1.464  0.00  0.00    +0.025 A 
ATOM      4  C   UNL     1       3.823   5.725  -0.577  0.00  0.00    +0.042 A 
ATOM      5  C   UNL     1       2.746   4.862  -0.460  0.00  0.00    +0.024 A 
ATOM      6  C   UNL     1       2.693   3.719  -1.224  0.00  0.00    -0.026 A 
ATOM      7  C   UNL     1       3.715   3.416  -2.119  0.00  0.00    +0.039 A 
ATOM      8  N   UNL     1       3.441   2.213  -2.776  0.00  0.00    -0.286 N 
ATOM      9  C   UNL     1       2.275   1.670  -2.376  0.00  0.00    +0.211 C 
ATOM     10  O   UNL     1       1.786   0.634  -2.771  0.00  0.00    -0.277 OA
ATOM     11  C   UNL     1       1.698   2.599  -1.343  0.00  0.00    +0.050 C 
ATOM     12  C   UNL     1       1.489   1.886  -0.002  0.00  0.00    +0.088 C 
ATOM     13  C   UNL     1      -0.018   1.508   0.010  0.00  0.00    +0.073 C 
ATOM     14  C   UNL     1      -0.564   2.014  -1.342  0.00  0.00    -0.057 C 
ATOM     15  C   UNL     1       0.002  -0.004   0.002  0.00  0.00    +0.224 C 
ATOM     16  O   UNL     1      -0.978  -0.718   0.011  0.00  0.00    -0.275 OA
ATOM     17  N   UNL     1       1.270  -0.431  -0.017  0.00  0.00    -0.241 N 
ATOM     18  C   UNL     1       2.185   0.544  -0.022  0.00  0.00    +0.225 C 
ATOM     19  O   UNL     1       3.386   0.379  -0.040  0.00  0.00    -0.275 OA
ATOM     20 CL   UNL     1       3.893   7.167   0.387  0.00  0.00    -0.084 Cl
ATOM     21  H   UNL     1       4.023   1.815  -3.442  0.00  0.00    +0.155 HD
ATOM     22  N   UNL     1       0.378   3.065  -1.733  0.00  0.00    +0.394 N 
ATOM     23  H   UNL     1       0.341   3.216  -2.748  0.00  0.00    -0.083 HD
ATOM     24  H   UNL     1       0.153   3.941  -1.248  0.00  0.00    -0.083 HD
ENDROOT
BRANCH  14  25
ATOM     25  C   UNL     1      -1.980   2.568  -1.171  0.00  0.00    -0.006 C 
BRANCH  25  26
ATOM     26  C   UNL     1      -2.547   2.948  -2.541  0.00  0.00    +0.094 C 
BRANCH  26  27
ATOM     27  C   UNL     1      -3.942   3.495  -2.372  0.00  0.00    +0.210 C 
ATOM     28  O   UNL     1      -4.433   3.573  -1.266  0.00  0.00    -0.276 OA
ATOM     29  N   UNL     1      -4.643   3.897  -3.451  0.00  0.00    -0.329 N 
ATOM     30  H   UNL     1      -4.250   3.834  -4.335  0.00  0.00    +0.145 HD
ATOM     31  H   UNL     1      -5.540   4.248  -3.342  0.00  0.00    +0.145 HD
ENDBRANCH  26  27
ENDBRANCH  25  26
ENDBRANCH  14  25
BRANCH  17  32
ATOM     32  C   UNL     1       1.627  -1.852  -0.031  0.00  0.00    +0.121 C 
BRANCH  32  33
ATOM     33  C   UNL     1       1.733  -2.337  -1.478  0.00  0.00    +0.054 C 
BRANCH  33  34
ATOM     34  C   UNL     1       2.100  -3.799  -1.493  0.00  0.00    -0.046 A 
ATOM     35  C   UNL     1       3.429  -4.177  -1.517  0.00  0.00    +0.004 A 
ATOM     36  C   UNL     1       3.766  -5.518  -1.527  0.00  0.00    +0.000 A 
ATOM     37  C   UNL     1       2.773  -6.480  -1.520  0.00  0.00    +0.000 A 
ATOM     38  C   UNL     1       1.444  -6.101  -1.500  0.00  0.00    +0.000 A 
ATOM     39  C   UNL     1       1.107  -4.761  -1.487  0.00  0.00    +0.004 A 
ENDBRANCH  33  34
ENDBRANCH  32  33
ENDBRANCH  17  32
TORSDOF 6
