REMARK  Name = ZINC07985400
REMARK  5 active torsions:
REMARK  status: ('A' for Active; 'I' for Inactive)
REMARK    1  A    between atoms: C_1  and  C_2
REMARK    2  A    between atoms: N_9  and  N_10
REMARK    3  A    between atoms: C_11  and  C_13
REMARK    4  A    between atoms: C_15  and  N_20
REMARK    5  A    between atoms: C_22  and  O_24
REMARK                            x       y       z     vdW  Elec       q    Type
REMARK                         _______ _______ _______ _____ _____    ______ ____
ROOT
ATOM      1  N   UNL     1      -1.337   3.451   0.027  0.00  0.00    -0.201 N 
ATOM      2  C   UNL     1      -1.312   2.103   0.020  0.00  0.00    +0.281 C 
ATOM      3  O   UNL     1      -2.352   1.476   0.021  0.00  0.00    -0.267 OA
ATOM      4  H   UNL     1      -0.506   3.952   0.026  0.00  0.00    +0.178 HD
ENDROOT
BRANCH   1  13
ATOM      5  C   UNL     1      -7.402   6.892   0.049  0.00  0.00    +0.044 C 
ATOM      6  C   UNL     1      -5.914   7.128   0.051  0.00  0.00    -0.050 A 
ATOM      7  C   UNL     1      -5.420   8.423   0.058  0.00  0.00    +0.005 A 
ATOM      8  C   UNL     1      -4.062   8.661   0.069  0.00  0.00    +0.029 A 
ATOM      9  C   UNL     1      -3.164   7.588   0.059  0.00  0.00    +0.077 A 
ATOM     10  C   UNL     1      -3.676   6.275   0.048  0.00  0.00    +0.033 A 
ATOM     11  C   UNL     1      -5.046   6.053   0.046  0.00  0.00    +0.015 A 
ATOM     12  C   UNL     1      -2.491   5.387   0.043  0.00  0.00    +0.152 C 
ATOM     13  N   UNL     1      -2.466   4.074   0.036  0.00  0.00    -0.174 NA
ATOM     14  C   UNL     1      -1.344   6.316   0.042  0.00  0.00    +0.241 C 
ATOM     15  N   UNL     1      -1.806   7.539   0.051  0.00  0.00    -0.211 NA
BRANCH  14  16
ATOM     16  O   UNL     1      -0.036   5.962   0.034  0.00  0.00    -0.491 OA
ATOM     17  H   UNL     1       0.574   6.712   0.035  0.00  0.00    +0.294 HD
ENDBRANCH  14  16
ENDBRANCH   1  13
BRANCH   2  18
ATOM     18  C   UNL     1      -0.017   1.388   0.010  0.00  0.00    +0.125 A 
ATOM     19  C   UNL     1       0.002  -0.004   0.002  0.00  0.00    +0.091 A 
ATOM     20  C   UNL     1       1.232  -0.663  -0.013  0.00  0.00    +0.067 A 
ATOM     21  C   UNL     1       2.395   0.105  -0.020  0.00  0.00    +0.098 A 
ATOM     22  C   UNL     1       2.293   1.488  -0.012  0.00  0.00    +0.128 A 
ATOM     23 CL   UNL     1       3.738   2.451  -0.021  0.00  0.00    -0.062 Cl
ATOM     24 CL   UNL     1       3.953  -0.660  -0.040  0.00  0.00    -0.079 Cl
ATOM     25 CL   UNL     1      -1.481  -0.906   0.011  0.00  0.00    -0.079 Cl
ATOM     26  N   UNL     1       1.115   2.161   0.003  0.00  0.00    -0.339 N 
ATOM     27  H   UNL     1       1.074   3.187   0.009  0.00  0.00    +0.167 HD
BRANCH  20  28
ATOM     28  N   UNL     1       1.296  -2.055  -0.021  0.00  0.00    -0.356 N 
ATOM     29  H   UNL     1       0.479  -2.578  -0.016  0.00  0.00    +0.142 HD
ATOM     30  H   UNL     1       2.157  -2.501  -0.032  0.00  0.00    +0.142 HD
ENDBRANCH  20  28
ENDBRANCH   2  18
TORSDOF 4
