REMARK  Name = ZINC49646121
REMARK  7 active torsions:
REMARK  status: ('A' for Active; 'I' for Inactive)
REMARK    1  A    between atoms: C_1  and  C_2
REMARK    2  A    between atoms: C_2  and  C_4
REMARK    3  A    between atoms: C_2  and  N_11
REMARK    4  A    between atoms: N_11  and  S_12
REMARK    5  A    between atoms: S_12  and  C_15
REMARK    6  A    between atoms: C_15  and  C_16
REMARK    7  A    between atoms: C_16  and  C_17
REMARK                            x       y       z     vdW  Elec       q    Type
REMARK                         _______ _______ _______ _____ _____    ______ ____
ROOT
ATOM      1  S   UNL     1      -2.119  -0.907  -1.411  0.00  0.00    +0.030 S 
ATOM      2  O   UNL     1      -3.422  -1.330  -1.032  0.00  0.00    -0.158 OA
ATOM      3  O   UNL     1      -1.941   0.231  -2.243  0.00  0.00    -0.158 OA
ENDROOT
BRANCH   1   4
ATOM      4  N   UNL     1      -1.372  -0.511   0.012  0.00  0.00    -0.187 NA
ATOM      5  H   UNL     1      -1.845  -0.615   0.853  0.00  0.00    +0.148 HD
BRANCH   4   7
ATOM      6  C   UNL     1      -0.019   1.526   0.010  0.00  0.00    +0.031 C 
ATOM      7  C   UNL     1       0.002  -0.004   0.002  0.00  0.00    +0.103 C 
BRANCH   7   8
ATOM      8  C   UNL     1       0.731  -0.503   1.223  0.00  0.00    -0.029 A 
ATOM      9  C   UNL     1       0.081  -0.558   2.442  0.00  0.00    +0.006 A 
ATOM     10  C   UNL     1       0.749  -1.017   3.562  0.00  0.00    +0.015 A 
ATOM     11  C   UNL     1       2.068  -1.420   3.463  0.00  0.00    +0.018 A 
ATOM     12  C   UNL     1       2.718  -1.365   2.243  0.00  0.00    +0.015 A 
ATOM     13  C   UNL     1       2.048  -0.911   1.123  0.00  0.00    +0.006 A 
ATOM     14 BR   UNL     1       2.983  -2.046   4.995  0.00  0.00    -0.050 Br
ENDBRANCH   7   8
ENDBRANCH   4   7
ENDBRANCH   1   4
BRANCH   1  15
ATOM     15  C   UNL     1      -1.171  -2.311  -2.061  0.00  0.00    +0.183 C 
BRANCH  15  16
ATOM     16  C   UNL     1      -1.778  -2.766  -3.389  0.00  0.00    +0.008 C 
BRANCH  16  17
ATOM     17  C   UNL     1      -0.979  -3.949  -3.937  0.00  0.00    -0.070 C 
ATOM     18  C   UNL     1      -1.659  -4.484  -5.199  0.00  0.00    -0.016 C 
ATOM     19  C   UNL     1      -0.856  -5.668  -5.743  0.00  0.00    -0.003 C 
ATOM     20  C   UNL     1       0.584  -5.218  -6.007  0.00  0.00    -0.019 C 
ATOM     21  C   UNL     1       1.181  -4.656  -4.715  0.00  0.00    -0.082 C 
ATOM     22  N   UNL     1       0.384  -3.510  -4.261  0.00  0.00    +0.381 N 
ATOM     23  H   UNL     1       0.347  -2.816  -4.992  0.00  0.00    -0.086 HD
ATOM     24  H   UNL     1       0.811  -3.109  -3.440  0.00  0.00    -0.086 HD
ENDBRANCH  16  17
ENDBRANCH  15  16
ENDBRANCH   1  15
TORSDOF 6
