REMARK  Name = ZINC37278076
REMARK  8 active torsions:
REMARK  status: ('A' for Active; 'I' for Inactive)
REMARK    1  A    between atoms: C_1  and  C_2
REMARK    2  A    between atoms: C_2  and  C_4
REMARK    3  A    between atoms: C_2  and  N_14
REMARK    4  A    between atoms: C_7  and  S_10
REMARK    5  A    between atoms: S_10  and  N_13
REMARK    6  A    between atoms: N_14  and  C_15
REMARK    7  A    between atoms: C_15  and  C_17
REMARK    8  A    between atoms: C_15  and  C_18
REMARK                            x       y       z     vdW  Elec       q    Type
REMARK                         _______ _______ _______ _____ _____    ______ ____
ROOT
ATOM      1  C   UNL     1       0.628  -0.291   1.381  0.00  0.00    -0.009 C 
ATOM      2  C   UNL     1       0.031  -0.124  -0.018  0.00  0.00    -0.044 C 
ENDROOT
BRANCH   2   3
ATOM      3  C   UNL     1       0.849  -0.911  -1.009  0.00  0.00    -0.062 A 
ATOM      4  C   UNL     1       0.658  -2.274  -1.135  0.00  0.00    +0.004 A 
ATOM      5  C   UNL     1       1.408  -2.996  -2.044  0.00  0.00    +0.029 A 
ATOM      6  C   UNL     1       2.348  -2.355  -2.829  0.00  0.00    +0.105 A 
ATOM      7  C   UNL     1       2.537  -0.991  -2.705  0.00  0.00    +0.029 A 
ATOM      8  C   UNL     1       1.785  -0.268  -1.798  0.00  0.00    +0.004 A 
BRANCH   6   9
ATOM      9  S   UNL     1       3.304  -3.275  -3.988  0.00  0.00    +0.056 S 
ATOM     10  O   UNL     1       4.495  -2.533  -4.213  0.00  0.00    -0.153 OA
ATOM     11  O   UNL     1       3.320  -4.619  -3.525  0.00  0.00    -0.153 OA
BRANCH   9  12
ATOM     12  N   UNL     1       2.470  -3.277  -5.419  0.00  0.00    -0.204 NA
ATOM     13  H   UNL     1       2.951  -3.324  -6.260  0.00  0.00    +0.144 HD
ATOM     14  H   UNL     1       1.501  -3.232  -5.416  0.00  0.00    +0.144 HD
ENDBRANCH   9  12
ENDBRANCH   6   9
ENDBRANCH   2   3
BRANCH   2  15
ATOM     15  N   UNL     1      -1.352  -0.617  -0.022  0.00  0.00    +0.385 N 
ATOM     16  H   UNL     1      -1.355  -1.612   0.142  0.00  0.00    -0.085 HD
ATOM     17  H   UNL     1      -1.877  -0.154   0.705  0.00  0.00    -0.085 HD
BRANCH  15  18
ATOM     18  C   UNL     1      -1.968  -0.335  -1.325  0.00  0.00    -0.071 C 
ATOM     19  C   UNL     1      -2.097   1.179  -1.512  0.00  0.00    -0.013 C 
BRANCH  18  20
ATOM     20  C   UNL     1      -3.357  -0.975  -1.383  0.00  0.00    -0.025 C 
ATOM     21  C   UNL     1      -3.229  -2.488  -1.196  0.00  0.00    +0.002 C 
ATOM     22  C   UNL     1      -4.617  -3.128  -1.253  0.00  0.00    +0.000 C 
ATOM     23  C   UNL     1      -5.259  -2.834  -2.611  0.00  0.00    +0.000 C 
ATOM     24  C   UNL     1      -5.387  -1.321  -2.797  0.00  0.00    +0.000 C 
ATOM     25  C   UNL     1      -3.999  -0.681  -2.740  0.00  0.00    +0.002 C 
ENDBRANCH  18  20
ENDBRANCH  15  18
ENDBRANCH   2  15
TORSDOF 6
