REMARK  Name = ZINC45166565
REMARK  4 active torsions:
REMARK  status: ('A' for Active; 'I' for Inactive)
REMARK    1  A    between atoms: C_3  and  N_22
REMARK    2  A    between atoms: C_4  and  S_8
REMARK    3  A    between atoms: S_8  and  N_11
REMARK    4  A    between atoms: C_15  and  C_18
REMARK                            x       y       z     vdW  Elec       q    Type
REMARK                         _______ _______ _______ _____ _____    ______ ____
ROOT
ATOM      1  S   UNL     1       3.872  -0.877  -0.484  0.00  0.00    +0.064 S 
ATOM      2  O   UNL     1       3.542  -2.008  -1.278  0.00  0.00    -0.153 OA
ATOM      3  O   UNL     1       4.840   0.081  -0.889  0.00  0.00    -0.153 OA
ENDROOT
BRANCH   1   7
ATOM      4  C   UNL     1       0.010   1.393   0.204  0.00  0.00    +0.003 A 
ATOM      5  C   UNL     1       1.223   2.027   0.397  0.00  0.00    +0.025 A 
ATOM      6  C   UNL     1       2.408   1.335   0.187  0.00  0.00    +0.053 A 
ATOM      7  C   UNL     1       2.371   0.006  -0.216  0.00  0.00    +0.144 A 
ATOM      8  C   UNL     1       1.155  -0.623  -0.407  0.00  0.00    +0.069 A 
ATOM      9  C   UNL     1      -0.024   0.071  -0.197  0.00  0.00    +0.022 A 
ATOM     10 CL   UNL     1       1.107  -2.283  -0.911  0.00  0.00    -0.081 Cl
BRANCH   6  11
ATOM     11  N   UNL     1       3.635   1.973   0.381  0.00  0.00    -0.356 N 
ATOM     12  H   UNL     1       3.671   2.938   0.468  0.00  0.00    +0.142 HD
ATOM     13  H   UNL     1       4.451   1.451   0.428  0.00  0.00    +0.142 HD
ENDBRANCH   6  11
ENDBRANCH   1   7
BRANCH   1  14
ATOM     14  N   UNL     1       4.367  -1.459   0.985  0.00  0.00    -0.176 NA
ATOM     15  C   UNL     1       5.245  -0.658   1.850  0.00  0.00    +0.109 C 
ATOM     16  C   UNL     1       6.470  -1.499   2.222  0.00  0.00    +0.018 C 
ATOM     17  C   UNL     1       6.008  -2.819   2.845  0.00  0.00    +0.015 C 
ATOM     18  C   UNL     1       5.176  -3.602   1.827  0.00  0.00    +0.109 C 
ATOM     19  C   UNL     1       3.932  -2.782   1.452  0.00  0.00    +0.121 C 
BRANCH  18  20
ATOM     20  C   UNL     1       4.743  -4.935   2.438  0.00  0.00    +0.394 C 
ATOM     21  F   UNL     1       3.974  -4.696   3.583  0.00  0.00    -0.170 F 
ATOM     22  F   UNL     1       3.982  -5.651   1.507  0.00  0.00    -0.170 F 
ATOM     23  F   UNL     1       5.875  -5.679   2.785  0.00  0.00    -0.170 F 
ENDBRANCH  18  20
ENDBRANCH   1  14
TORSDOF 4
