REMARK  Name = ZINC33621848
REMARK  6 active torsions:
REMARK  status: ('A' for Active; 'I' for Inactive)
REMARK    1  A    between atoms: C_4  and  C_7
REMARK    2  A    between atoms: C_7  and  C_37
REMARK    3  A    between atoms: C_12  and  C_15
REMARK    4  A    between atoms: C_19  and  O_21
REMARK    5  A    between atoms: O_21  and  C_22
REMARK    6  A    between atoms: C_26  and  C_28
REMARK                            x       y       z     vdW  Elec       q    Type
REMARK                         _______ _______ _______ _____ _____    ______ ____
ROOT
ATOM      1  C   UNL     1       3.587  -0.890  -0.159  0.00  0.00    +0.074 C 
ATOM      2  C   UNL     1       3.536  -2.198  -0.976  0.00  0.00    +0.092 C 
ATOM      3  C   UNL     1       4.047  -1.805  -2.389  0.00  0.00    +0.079 C 
ATOM      4  C   UNL     1       4.339  -0.293  -2.297  0.00  0.00    -0.026 C 
ATOM      5  N   UNL     1       4.602  -0.054  -0.848  0.00  0.00    +0.398 N 
ATOM      6  C   UNL     1       5.346  -2.571  -2.505  0.00  0.00    +0.242 C 
ATOM      7  O   UNL     1       6.162  -2.550  -3.570  0.00  0.00    -0.273 OA
ATOM      8  N   UNL     1       5.554  -3.253  -1.419  0.00  0.00    -0.145 NA
ATOM      9  C   UNL     1       4.606  -3.141  -0.468  0.00  0.00    +0.242 C 
ATOM     10  O   UNL     1       4.601  -3.695   0.613  0.00  0.00    -0.273 OA
ATOM     11  H   UNL     1       4.467   0.921  -0.626  0.00  0.00    -0.083 HD
ATOM     12  H   UNL     1       5.533  -0.349  -0.595  0.00  0.00    -0.083 HD
ENDROOT
BRANCH   1  16
ATOM     13  C   UNL     1      -0.221   1.047  -0.218  0.00  0.00    +0.000 A 
ATOM     14  C   UNL     1       0.938   1.800  -0.177  0.00  0.00    +0.000 A 
ATOM     15  C   UNL     1       2.170   1.174  -0.158  0.00  0.00    +0.003 A 
ATOM     16  C   UNL     1       2.243  -0.207  -0.179  0.00  0.00    -0.047 A 
ATOM     17  C   UNL     1       1.085  -0.960  -0.220  0.00  0.00    +0.003 A 
ATOM     18  C   UNL     1      -0.147  -0.334  -0.240  0.00  0.00    +0.000 A 
ENDBRANCH   1  16
BRANCH   4  19
ATOM     19  C   UNL     1       5.564   0.055  -3.103  0.00  0.00    -0.057 A 
ATOM     20  C   UNL     1       6.824  -0.179  -2.583  0.00  0.00    +0.002 A 
ATOM     21  C   UNL     1       7.949   0.139  -3.320  0.00  0.00    +0.004 A 
ATOM     22  C   UNL     1       7.818   0.692  -4.579  0.00  0.00    +0.046 A 
ATOM     23  C   UNL     1       6.556   0.927  -5.104  0.00  0.00    +0.129 A 
ATOM     24  C   UNL     1       5.428   0.602  -4.364  0.00  0.00    +0.048 A 
BRANCH  23  25
ATOM     25  O   UNL     1       6.424   1.471  -6.343  0.00  0.00    -0.456 OA
BRANCH  25  26
ATOM     26  C   UNL     1       5.908   2.724  -6.438  0.00  0.00    +0.129 A 
ATOM     27  C   UNL     1       5.656   3.461  -5.289  0.00  0.00    +0.046 A 
ATOM     28  C   UNL     1       5.132   4.735  -5.389  0.00  0.00    +0.004 A 
ATOM     29  C   UNL     1       4.856   5.276  -6.631  0.00  0.00    +0.012 A 
ATOM     30  C   UNL     1       5.106   4.543  -7.777  0.00  0.00    +0.058 A 
ATOM     31  C   UNL     1       5.637   3.271  -7.684  0.00  0.00    +0.058 A 
BRANCH  30  32
ATOM     32  C   UNL     1       4.804   5.135  -9.130  0.00  0.00    +0.418 C 
ATOM     33  F   UNL     1       4.284   6.424  -8.969  0.00  0.00    -0.166 F 
ATOM     34  F   UNL     1       5.981   5.198  -9.884  0.00  0.00    -0.166 F 
ATOM     35  F   UNL     1       3.868   4.334  -9.792  0.00  0.00    -0.166 F 
ENDBRANCH  30  32
ENDBRANCH  25  26
ENDBRANCH  23  25
ENDBRANCH   4  19
BRANCH   1  36
ATOM     36  C   UNL     1       4.011  -1.169   1.259  0.00  0.00    +0.350 C 
ATOM     37  O   UNL     1       3.329  -1.889   1.969  0.00  0.00    -0.248 OA
ATOM     38  O   UNL     1       5.037  -0.676   1.697  0.00  0.00    -0.248 OA
ENDBRANCH   1  36
TORSDOF 6
