REMARK  Name = ZINC33494819
REMARK  5 active torsions:
REMARK  status: ('A' for Active; 'I' for Inactive)
REMARK    1  A    between atoms: C_1  and  C_2
REMARK    2  A    between atoms: C_6  and  C_10
REMARK    3  A    between atoms: C_7  and  N_8
REMARK    4  A    between atoms: N_8  and  C_9
REMARK    5  A    between atoms: N_12  and  N_13
REMARK                            x       y       z     vdW  Elec       q    Type
REMARK                         _______ _______ _______ _____ _____    ______ ____
ROOT
ATOM      1  C   UNL     1      -0.258   5.348  -0.066  0.00  0.00    +0.046 C 
ATOM      2  C   UNL     1      -0.138   3.846  -0.019  0.00  0.00    -0.028 A 
ATOM      3  C   UNL     1      -1.274   3.064  -0.014  0.00  0.00    +0.020 A 
ATOM      4  C   UNL     1      -1.174   1.682   0.023  0.00  0.00    +0.019 A 
ATOM      5  C   UNL     1       0.062   1.074   0.067  0.00  0.00    +0.030 A 
ATOM      6  C   UNL     1       1.222   1.853   0.063  0.00  0.00    +0.060 A 
ATOM      7  C   UNL     1       1.117   3.252   0.020  0.00  0.00    +0.042 A 
ATOM      8 BR   UNL     1      -2.743   0.625   0.021  0.00  0.00    -0.050 Br
ENDROOT
BRANCH   6   9
ATOM      9  C   UNL     1       2.548   1.209   0.104  0.00  0.00    +0.259 C 
ATOM     10  O   UNL     1       3.554   1.884   0.004  0.00  0.00    -0.269 OA
ATOM     11  N   UNL     1       2.644  -0.127   0.253  0.00  0.00    -0.250 N 
ATOM     12  H   UNL     1       1.734  -0.737   0.344  0.00  0.00    +0.169 HD
BRANCH  11  13
ATOM     13  N   UNL     1       3.873  -0.723   0.290  0.00  0.00    -0.254 NA
ATOM     14  H   UNL     1       3.749  -1.809   0.416  0.00  0.00    +0.140 HD
ATOM     15  H   UNL     1       4.407  -0.521  -0.649  0.00  0.00    +0.140 HD
ENDBRANCH  11  13
ENDBRANCH   6   9
BRANCH   7  16
ATOM     16  N   UNL     1       2.263   4.038   0.016  0.00  0.00    -0.346 N 
ATOM     17  C   UNL     1       2.618   4.445  -1.350  0.00  0.00    +0.125 C 
ATOM     18  H   UNL     1       2.883   4.362   0.865  0.00  0.00    +0.146 HD
ENDBRANCH   7  16
TORSDOF 3
