REMARK  Name = ZINC48096330
REMARK  5 active torsions:
REMARK  status: ('A' for Active; 'I' for Inactive)
REMARK    1  A    between atoms: C_1  and  C_2
REMARK    2  A    between atoms: C_7  and  N_8
REMARK    3  A    between atoms: N_11  and  C_12
REMARK    4  A    between atoms: C_12  and  C_14
REMARK    5  A    between atoms: C_12  and  C_15
REMARK                            x       y       z     vdW  Elec       q    Type
REMARK                         _______ _______ _______ _____ _____    ______ ____
ROOT
ATOM      1  N   UNL     1       0.025  -0.013   2.417  0.00  0.00    -0.268 N 
ATOM      2  C   UNL     1      -0.355  -0.639   3.549  0.00  0.00    +0.304 C 
ATOM      3  O   UNL     1      -0.612  -1.827   3.529  0.00  0.00    -0.252 OA
ATOM      4  N   UNL     1      -0.450   0.052   4.702  0.00  0.00    -0.290 N 
ATOM      5  H   UNL     1       0.300   0.917   2.447  0.00  0.00    +0.156 HD
ATOM      6  H   UNL     1      -0.245   1.000   4.718  0.00  0.00    +0.151 HD
ENDROOT
BRANCH   1  13
ATOM      7  C   UNL     1       2.415  -1.334   1.618  0.00  0.00    +0.046 C 
ATOM      8  C   UNL     1       1.168  -1.363   0.772  0.00  0.00    -0.027 A 
ATOM      9  C   UNL     1       1.162  -2.050  -0.427  0.00  0.00    +0.020 A 
ATOM     10  C   UNL     1       0.018  -2.077  -1.204  0.00  0.00    +0.020 A 
ATOM     11  C   UNL     1      -1.124  -1.418  -0.783  0.00  0.00    +0.037 A 
ATOM     12  C   UNL     1      -1.123  -0.730   0.415  0.00  0.00    +0.063 A 
ATOM     13  C   UNL     1       0.023  -0.705   1.200  0.00  0.00    +0.056 A 
ATOM     14 CL   UNL     1      -2.555   0.098   0.942  0.00  0.00    -0.082 Cl
ATOM     15 BR   UNL     1       0.014  -3.018  -2.845  0.00  0.00    -0.050 Br
ENDBRANCH   1  13
BRANCH   4  16
ATOM     16  C   UNL     1      -0.863  -0.629   5.932  0.00  0.00    +0.137 C 
ATOM     17  C   UNL     1       0.357  -1.276   6.591  0.00  0.00    +0.036 C 
BRANCH  16  18
ATOM     18  C   UNL     1      -1.474   0.372   6.879  0.00  0.00    +0.125 A 
ATOM     19  C   UNL     1      -2.551   0.163   7.657  0.00  0.00    +0.046 A 
ATOM     20  C   UNL     1      -2.774   1.359   8.378  0.00  0.00    +0.041 A 
ATOM     21  C   UNL     1      -1.819   2.226   7.998  0.00  0.00    +0.195 A 
ATOM     22  O   UNL     1      -1.031   1.621   7.094  0.00  0.00    -0.466 OA
ENDBRANCH  16  18
ENDBRANCH   4  16
TORSDOF 3
