REMARK  Name = ZINC45954550
REMARK  6 active torsions:
REMARK  status: ('A' for Active; 'I' for Inactive)
REMARK    1  A    between atoms: C_1  and  S_2
REMARK    2  A    between atoms: S_2  and  N_5
REMARK    3  A    between atoms: N_5  and  C_6
REMARK    4  A    between atoms: C_11  and  C_12
REMARK    5  A    between atoms: C_12  and  N_13
REMARK    6  A    between atoms: N_16  and  C_17
REMARK                            x       y       z     vdW  Elec       q    Type
REMARK                         _______ _______ _______ _____ _____    ______ ____
ROOT
ATOM      1  N   UNL     1       0.671   1.641  -3.890  0.00  0.00    -0.295 N 
ATOM      2  C   UNL     1      -0.276   1.871  -4.820  0.00  0.00    +0.304 C 
ATOM      3  O   UNL     1      -0.431   1.088  -5.737  0.00  0.00    -0.252 OA
ATOM      4  N   UNL     1      -1.053   2.969  -4.734  0.00  0.00    -0.268 N 
ATOM      5  H   UNL     1       0.794   2.266  -3.158  0.00  0.00    +0.151 HD
ATOM      6  H   UNL     1      -0.877   3.636  -4.051  0.00  0.00    +0.156 HD
ENDROOT
BRANCH   4   7
ATOM      7  C   UNL     1      -2.114   3.149  -5.630  0.00  0.00    +0.053 A 
ATOM      8  C   UNL     1      -2.700   2.050  -6.244  0.00  0.00    +0.026 A 
ATOM      9  C   UNL     1      -3.746   2.229  -7.127  0.00  0.00    +0.022 A 
ATOM     10  C   UNL     1      -4.212   3.503  -7.401  0.00  0.00    +0.042 A 
ATOM     11  C   UNL     1      -3.631   4.601  -6.792  0.00  0.00    +0.041 A 
ATOM     12  C   UNL     1      -2.587   4.426  -5.902  0.00  0.00    +0.064 A 
ATOM     13 CL   UNL     1      -1.863   5.803  -5.131  0.00  0.00    -0.082 Cl
ATOM     14 CL   UNL     1      -5.527   3.724  -8.512  0.00  0.00    -0.083 Cl
ENDBRANCH   4   7
BRANCH   1  15
ATOM     15  C   UNL     1       1.515   0.448  -3.984  0.00  0.00    +0.143 C 
BRANCH  15  21
ATOM     16  C   UNL     1       2.070  -0.009  -1.579  0.00  0.00    +0.052 A 
ATOM     17  C   UNL     1       2.969  -0.031  -0.521  0.00  0.00    +0.025 A 
ATOM     18  C   UNL     1       4.272   0.383  -0.715  0.00  0.00    +0.002 A 
ATOM     19  C   UNL     1       4.681   0.822  -1.961  0.00  0.00    +0.000 A 
ATOM     20  C   UNL     1       3.789   0.846  -3.016  0.00  0.00    +0.007 A 
ATOM     21  C   UNL     1       2.486   0.427  -2.831  0.00  0.00    -0.008 A 
BRANCH  16  22
ATOM     22  N   UNL     1       0.751  -0.428  -1.387  0.00  0.00    -0.221 N 
ATOM     23  H   UNL     1       0.283  -0.897  -2.095  0.00  0.00    +0.173 HD
BRANCH  22  25
ATOM     24  C   UNL     1      -0.010   1.683   0.207  0.00  0.00    +0.218 C 
ATOM     25  S   UNL     1      -0.013  -0.124   0.051  0.00  0.00    +0.040 S 
ATOM     26  O   UNL     1       0.830  -0.702   1.038  0.00  0.00    -0.155 OA
ATOM     27  O   UNL     1      -1.339  -0.597  -0.137  0.00  0.00    -0.155 OA
ENDBRANCH  22  25
ENDBRANCH  16  22
ENDBRANCH  15  21
ENDBRANCH   1  15
TORSDOF 5
