REMARK  Name = ZINC39665426
REMARK  9 active torsions:
REMARK  status: ('A' for Active; 'I' for Inactive)
REMARK    1  A    between atoms: C_1  and  C_2
REMARK    2  A    between atoms: C_3  and  C_8
REMARK    3  A    between atoms: C_4  and  C_7
REMARK    4  A    between atoms: C_12  and  C_21
REMARK    5  A    between atoms: N_23  and  C_24
REMARK    6  A    between atoms: C_24  and  C_25
REMARK    7  A    between atoms: C_25  and  C_27
REMARK    8  A    between atoms: C_25  and  O_28
REMARK    9  A    between atoms: O_28  and  C_29
REMARK                            x       y       z     vdW  Elec       q    Type
REMARK                         _______ _______ _______ _____ _____    ______ ____
ROOT
ATOM      1  C   UNL     1       0.010  -0.818  -5.074  0.00  0.00    +0.252 C 
ATOM      2  O   UNL     1       0.834  -0.619  -5.946  0.00  0.00    -0.270 OA
ATOM      3  N   UNL     1      -1.292  -0.551  -5.303  0.00  0.00    -0.296 N 
ATOM      4  C   UNL     1      -2.431  -0.721  -4.370  0.00  0.00    +0.121 C 
ATOM      5  C   UNL     1      -3.328   0.512  -4.623  0.00  0.00    +0.100 C 
ATOM      6  C   UNL     1      -2.981   0.964  -6.051  0.00  0.00    -0.004 C 
ATOM      7  C   UNL     1      -1.905  -0.016  -6.542  0.00  0.00    +0.115 C 
ATOM      8  C   UNL     1      -2.423   2.384  -6.034  0.00  0.00    -0.010 C 
ATOM      9  C   UNL     1      -2.138   2.833  -7.470  0.00  0.00    -0.082 C 
ATOM     10  N   UNL     1      -3.377   2.781  -8.256  0.00  0.00    +0.379 N 
ATOM     11  C   UNL     1      -3.857   1.397  -8.345  0.00  0.00    -0.082 C 
ATOM     12  C   UNL     1      -4.214   0.887  -6.945  0.00  0.00    -0.010 C 
ATOM     13  H   UNL     1      -4.081   3.351  -7.810  0.00  0.00    -0.086 HD
ATOM     14  H   UNL     1      -3.201   3.135  -9.184  0.00  0.00    -0.086 HD
ENDROOT
BRANCH   1  17
ATOM     15  C   UNL     1       0.905   0.930  -2.500  0.00  0.00    +0.070 C 
ATOM     16  C   UNL     1       0.840  -0.572  -2.596  0.00  0.00    +0.093 A 
ATOM     17  C   UNL     1       0.434  -1.352  -3.767  0.00  0.00    +0.101 A 
ATOM     18  C   UNL     1       0.523  -2.668  -3.415  0.00  0.00    +0.147 A 
ATOM     19  O   UNL     1       0.943  -2.730  -2.149  0.00  0.00    -0.359 OA
ATOM     20  N   UNL     1       1.140  -1.420  -1.657  0.00  0.00    -0.083 NA
ATOM     21  C   UNL     1       0.203  -3.845  -4.301  0.00  0.00    +0.090 C 
ENDBRANCH   1  17
BRANCH   5  22
ATOM     22  C   UNL     1      -4.783   0.129  -4.531  0.00  0.00    +0.218 C 
ATOM     23  O   UNL     1      -5.138  -0.987  -4.846  0.00  0.00    -0.275 OA
ATOM     24  N   UNL     1      -5.690   1.027  -4.099  0.00  0.00    -0.312 N 
ATOM     25  H   UNL     1      -5.407   1.920  -3.847  0.00  0.00    +0.149 HD
BRANCH  24  26
ATOM     26  C   UNL     1      -7.104   0.655  -4.010  0.00  0.00    +0.148 C 
BRANCH  26  27
ATOM     27  C   UNL     1      -7.914   1.847  -3.495  0.00  0.00    +0.187 C 
ATOM     28  C   UNL     1      -9.368   1.423  -3.284  0.00  0.00    +0.053 C 
BRANCH  27  29
ATOM     29  O   UNL     1      -7.861   2.907  -4.453  0.00  0.00    -0.488 OA
BRANCH  29  30
ATOM     30  C   UNL     1      -8.047   4.170  -3.986  0.00  0.00    +0.121 A 
ATOM     31  C   UNL     1      -8.380   4.377  -2.655  0.00  0.00    +0.045 A 
ATOM     32  C   UNL     1      -8.568   5.661  -2.183  0.00  0.00    +0.004 A 
ATOM     33  C   UNL     1      -8.425   6.740  -3.036  0.00  0.00    +0.000 A 
ATOM     34  C   UNL     1      -8.094   6.537  -4.363  0.00  0.00    +0.004 A 
ATOM     35  C   UNL     1      -7.899   5.255  -4.838  0.00  0.00    +0.045 A 
ENDBRANCH  29  30
ENDBRANCH  27  29
ENDBRANCH  26  27
ENDBRANCH  24  26
ENDBRANCH   5  22
TORSDOF 6
