REMARK  Name = ZINC05045680
REMARK  6 active torsions:
REMARK  status: ('A' for Active; 'I' for Inactive)
REMARK    1  A    between atoms: C_4  and  C_7
REMARK    2  A    between atoms: C_7  and  C_8
REMARK    3  A    between atoms: C_7  and  N_14
REMARK    4  A    between atoms: N_14  and  C_15
REMARK    5  A    between atoms: C_17  and  N_25
REMARK    6  A    between atoms: C_20  and  N_21
REMARK                            x       y       z     vdW  Elec       q    Type
REMARK                         _______ _______ _______ _____ _____    ______ ____
ROOT
ATOM      1  C   UNL     1       4.758  -2.387  -1.523  0.00  0.00    +0.065 A 
ATOM      2  C   UNL     1       6.009  -1.826  -1.274  0.00  0.00    +0.066 A 
ATOM      3  C   UNL     1       7.128  -2.373  -1.882  0.00  0.00    +0.097 A 
ATOM      4  N   UNL     1       7.018  -3.417  -2.692  0.00  0.00    -0.330 N 
ATOM      5  C   UNL     1       5.844  -3.977  -2.952  0.00  0.00    +0.128 A 
ATOM      6  C   UNL     1       4.682  -3.487  -2.374  0.00  0.00    +0.184 A 
ATOM      7  N   UNL     1       5.778  -5.070  -3.809  0.00  0.00    -0.343 N 
ATOM      8  H   UNL     1       6.588  -5.419  -4.212  0.00  0.00    +0.144 HD
ATOM      9  H   UNL     1       4.923  -5.483  -4.003  0.00  0.00    +0.144 HD
ATOM     10  H   UNL     1       7.816  -3.781  -3.105  0.00  0.00    +0.168 HD
ENDROOT
BRANCH   6  11
ATOM     11  N   UNL     1       3.376  -4.122  -2.664  0.00  0.00    +0.062 N 
ATOM     12  O   UNL     1       2.713  -3.739  -3.600  0.00  0.00    -0.126 OA
ATOM     13  O   UNL     1       2.973  -5.022  -1.966  0.00  0.00    -0.126 OA
ENDBRANCH   6  11
BRANCH   3  14
ATOM     14  N   UNL     1       8.381  -1.821  -1.641  0.00  0.00    -0.345 N 
ATOM     15  H   UNL     1       8.468  -1.057  -1.049  0.00  0.00    +0.144 HD
ATOM     16  H   UNL     1       9.168  -2.199  -2.063  0.00  0.00    +0.144 HD
ENDBRANCH   3  14
BRANCH   1  17
ATOM     17  N   UNL     1       3.611  -1.865  -0.930  0.00  0.00    -0.331 N 
ATOM     18  H   UNL     1       2.747  -2.267  -1.108  0.00  0.00    +0.147 HD
BRANCH  17  19
ATOM     19  C   UNL     1       3.711  -0.707  -0.038  0.00  0.00    +0.131 C 
BRANCH  19  23
ATOM     20  C   UNL     1      -0.017   1.378   0.010  0.00  0.00    +0.000 A 
ATOM     21  C   UNL     1       1.171   2.086   0.002  0.00  0.00    +0.000 A 
ATOM     22  C   UNL     1       2.377   1.411  -0.013  0.00  0.00    +0.006 A 
ATOM     23  C   UNL     1       2.396   0.029  -0.020  0.00  0.00    -0.023 A 
ATOM     24  C   UNL     1       1.208  -0.679  -0.012  0.00  0.00    +0.006 A 
ATOM     25  C   UNL     1       0.002  -0.004   0.002  0.00  0.00    +0.000 A 
ENDBRANCH  19  23
BRANCH  19  26
ATOM     26  C   UNL     1       4.044  -1.175   1.356  0.00  0.00    -0.023 A 
ATOM     27  C   UNL     1       3.455  -2.320   1.860  0.00  0.00    +0.006 A 
ATOM     28  C   UNL     1       3.760  -2.748   3.138  0.00  0.00    +0.000 A 
ATOM     29  C   UNL     1       4.654  -2.033   3.912  0.00  0.00    +0.000 A 
ATOM     30  C   UNL     1       5.243  -0.888   3.408  0.00  0.00    +0.000 A 
ATOM     31  C   UNL     1       4.941  -0.462   2.128  0.00  0.00    +0.006 A 
ENDBRANCH  19  26
ENDBRANCH  17  19
ENDBRANCH   1  17
TORSDOF 6
