REMARK  Name = ZINC63712855
REMARK  4 active torsions:
REMARK  status: ('A' for Active; 'I' for Inactive)
REMARK    1  A    between atoms: C_1  and  C_2
REMARK    2  A    between atoms: C_2  and  C_24
REMARK    3  A    between atoms: C_5  and  N_12
REMARK    4  A    between atoms: C_13  and  C_15
REMARK                            x       y       z     vdW  Elec       q    Type
REMARK                         _______ _______ _______ _____ _____    ______ ____
ROOT
ATOM      1  N   UNL     1       4.188  -0.574   0.144  0.00  0.00    -0.308 N 
ATOM      2  C   UNL     1       5.100  -1.439   0.629  0.00  0.00    +0.217 C 
ATOM      3  O   UNL     1       4.787  -2.590   0.851  0.00  0.00    -0.275 OA
ATOM      4  H   UNL     1       4.438   0.346  -0.033  0.00  0.00    +0.149 HD
ENDROOT
BRANCH   1   9
ATOM      5  C   UNL     1      -0.015   1.539   0.005  0.00  0.00    +0.016 C 
ATOM      6  C   UNL     1       0.004   0.009  -0.009  0.00  0.00    -0.009 C 
ATOM      7  C   UNL     1       0.697  -0.474  -1.281  0.00  0.00    +0.013 C 
ATOM      8  C   UNL     1       2.187  -0.130  -1.181  0.00  0.00    +0.028 C 
ATOM      9  C   UNL     1       2.817  -1.023  -0.114  0.00  0.00    +0.103 C 
ATOM     10  C   UNL     1       2.024  -0.960   1.165  0.00  0.00    -0.024 A 
ATOM     11  C   UNL     1       0.731  -0.490   1.212  0.00  0.00    -0.037 A 
ATOM     12  C   UNL     1       0.053  -0.465   2.424  0.00  0.00    +0.004 A 
ATOM     13  C   UNL     1       0.665  -0.904   3.580  0.00  0.00    +0.000 A 
ATOM     14  C   UNL     1       1.965  -1.373   3.532  0.00  0.00    +0.000 A 
ATOM     15  C   UNL     1       2.640  -1.400   2.329  0.00  0.00    +0.006 A 
ATOM     16  C   UNL     1      -1.434  -0.513   0.011  0.00  0.00    +0.016 C 
ENDBRANCH   1   9
BRANCH   2  17
ATOM     17  C   UNL     1       6.510  -0.977   0.895  0.00  0.00    +0.078 C 
ATOM     18  C   UNL     1       7.134  -0.469  -0.406  0.00  0.00    +0.032 C 
ATOM     19  C   UNL     1       8.554   0.032  -0.126  0.00  0.00    +0.110 C 
ATOM     20  N   UNL     1       9.314  -1.042   0.529  0.00  0.00    -0.286 N 
ATOM     21  C   UNL     1       8.758  -1.664   1.739  0.00  0.00    +0.110 C 
ATOM     22  C   UNL     1       7.336  -2.146   1.437  0.00  0.00    +0.032 C 
ATOM     23  C   UNL     1      10.497  -1.449   0.029  0.00  0.00    +0.300 C 
ATOM     24  O   UNL     1      10.901  -0.995  -1.024  0.00  0.00    -0.253 OA
ATOM     25  N   UNL     1      11.233  -2.360   0.696  0.00  0.00    -0.313 N 
ATOM     26  H   UNL     1      10.879  -2.776   1.498  0.00  0.00    +0.146 HD
ATOM     27  H   UNL     1      12.116  -2.600   0.374  0.00  0.00    +0.146 HD
ENDBRANCH   2  17
TORSDOF 2
