REMARK  Name = ZINC04387914
REMARK  6 active torsions:
REMARK  status: ('A' for Active; 'I' for Inactive)
REMARK    1  A    between atoms: C_3  and  C_6
REMARK    2  A    between atoms: C_6  and  C_8
REMARK    3  A    between atoms: C_10  and  C_22
REMARK    4  A    between atoms: C_16  and  C_17
REMARK    5  A    between atoms: C_16  and  O_21
REMARK    6  A    between atoms: C_25  and  O_28
REMARK                            x       y       z     vdW  Elec       q    Type
REMARK                         _______ _______ _______ _____ _____    ______ ____
ROOT
ATOM      1  C   UNL     1      -1.943   5.793  -0.196  0.00  0.00    +0.144 C 
ATOM      2  C   UNL     1      -2.870   6.521   0.782  0.00  0.00    +0.117 C 
ATOM      3  N   UNL     1      -3.029   7.911   0.350  0.00  0.00    -0.319 N 
ATOM      4  C   UNL     1      -2.939   8.253  -0.944  0.00  0.00    +0.133 C 
ATOM      5  S   UNL     1      -3.150   9.896  -1.376  0.00  0.00    -0.019 S 
ATOM      6  N   UNL     1      -2.691   7.359  -1.913  0.00  0.00    -0.291 N 
ATOM      7  C   UNL     1      -2.514   5.938  -1.610  0.00  0.00    +0.241 C 
ATOM      8  H   UNL     1      -3.201   8.598   1.012  0.00  0.00    +0.148 HD
ATOM      9  H   UNL     1      -2.628   7.660  -2.833  0.00  0.00    +0.151 HD
ENDROOT
BRANCH   2  10
ATOM     10  C   UNL     1      -2.270   6.490   2.164  0.00  0.00    -0.026 A 
ATOM     11  C   UNL     1      -2.570   5.449   3.024  0.00  0.00    +0.009 A 
ATOM     12  C   UNL     1      -2.017   5.415   4.289  0.00  0.00    +0.046 A 
ATOM     13  C   UNL     1      -1.167   6.431   4.701  0.00  0.00    +0.117 A 
ATOM     14  C   UNL     1      -0.872   7.477   3.839  0.00  0.00    +0.046 A 
ATOM     15  C   UNL     1      -1.423   7.504   2.573  0.00  0.00    +0.009 A 
BRANCH  13  16
ATOM     16  O   UNL     1      -0.625   6.402   5.947  0.00  0.00    -0.507 OA
ATOM     17  H   UNL     1      -1.161   6.846   6.619  0.00  0.00    +0.292 HD
ENDBRANCH  13  16
ENDBRANCH   2  10
BRANCH   7  18
ATOM     18  C   UNL     1      -3.866   5.225  -1.691  0.00  0.00    +0.436 C 
ATOM     19  F   UNL     1      -4.750   5.797  -0.770  0.00  0.00    -0.166 F 
ATOM     20  F   UNL     1      -4.387   5.358  -2.982  0.00  0.00    -0.166 F 
ATOM     21  F   UNL     1      -3.696   3.869  -1.394  0.00  0.00    -0.166 F 
ENDBRANCH   7  18
BRANCH   1  22
ATOM     22  C   UNL     1      -0.567   6.406  -0.141  0.00  0.00    +0.179 C 
ATOM     23  O   UNL     1      -0.442   7.603   0.020  0.00  0.00    -0.291 OA
BRANCH  22  26
ATOM     24  C   UNL     1       2.837   4.942  -0.413  0.00  0.00    +0.008 A 
ATOM     25  C   UNL     1       1.920   5.948  -0.256  0.00  0.00    +0.019 A 
ATOM     26  C   UNL     1       0.576   5.588  -0.277  0.00  0.00    +0.055 A 
ATOM     27  S   UNL     1       0.674   3.824  -0.527  0.00  0.00    -0.094 S 
ATOM     28  C   UNL     1       2.400   3.664  -0.579  0.00  0.00    +0.046 A 
ENDBRANCH  22  26
ENDBRANCH   1  22
BRANCH   7  29
ATOM     29  O   UNL     1      -1.610   5.358  -2.553  0.00  0.00    -0.364 OA
ATOM     30  H   UNL     1      -1.909   5.415  -3.471  0.00  0.00    +0.212 HD
ENDBRANCH   7  29
TORSDOF 6
