REMARK  Name = ZINC04870964
REMARK  7 active torsions:
REMARK  status: ('A' for Active; 'I' for Inactive)
REMARK    1  A    between atoms: C_1  and  C_2
REMARK    2  A    between atoms: C_2  and  C_3
REMARK    3  A    between atoms: C_2  and  C_4
REMARK    4  A    between atoms: C_2  and  C_5
REMARK    5  A    between atoms: C_12  and  N_24
REMARK    6  A    between atoms: C_13  and  C_22
REMARK    7  A    between atoms: C_14  and  C_16
REMARK                            x       y       z     vdW  Elec       q    Type
REMARK                         _______ _______ _______ _____ _____    ______ ____
ROOT
ATOM      1  C   UNL     1       1.045  -0.626  -1.929  0.00  0.00    +0.076 A 
ATOM      2  C   UNL     1       1.096  -2.013  -1.891  0.00  0.00    +0.050 A 
ATOM      3  C   UNL     1       1.923  -2.434  -2.896  0.00  0.00    +0.223 A 
ATOM      4  N   UNL     1       2.369  -1.343  -3.538  0.00  0.00    -0.246 N 
ATOM      5  H   UNL     1       2.973  -1.334  -4.297  0.00  0.00    +0.192 HD
ATOM      6  N   UNL     1       1.803  -0.218  -2.919  0.00  0.00    -0.175 NA
ATOM      7  O   UNL     1       2.187  -3.744  -3.126  0.00  0.00    -0.423 OA
ATOM      8  C   UNL     1       1.835  -4.629  -2.171  0.00  0.00    +0.200 C 
ATOM      9  C   UNL     1       1.016  -4.335  -1.137  0.00  0.00    +0.099 C 
ATOM     10  C   UNL     1       0.404  -2.968  -0.954  0.00  0.00    +0.108 C 
ENDROOT
BRANCH  10  11
ATOM     11  C   UNL     1      -1.067  -3.022  -1.278  0.00  0.00    +0.004 A 
ATOM     12  C   UNL     1      -2.129  -2.961  -0.438  0.00  0.00    +0.027 A 
ATOM     13  C   UNL     1      -3.406  -3.030  -0.965  0.00  0.00    +0.025 A 
ATOM     14  C   UNL     1      -3.557  -3.156  -2.306  0.00  0.00    +0.060 A 
ATOM     15  S   UNL     1      -1.863  -3.173  -2.869  0.00  0.00    -0.100 S 
ATOM     16 BR   UNL     1      -4.917  -2.949   0.169  0.00  0.00    -0.050 Br
ENDBRANCH  10  11
BRANCH   1  18
ATOM     17  C   UNL     1      -1.242   0.068  -1.270  0.00  0.00    +0.017 C 
ATOM     18  C   UNL     1       0.252   0.256  -1.000  0.00  0.00    +0.007 C 
ATOM     19  C   UNL     1       0.633   1.718  -1.235  0.00  0.00    +0.017 C 
ATOM     20  C   UNL     1       0.560  -0.124   0.450  0.00  0.00    +0.017 C 
ENDBRANCH   1  18
BRANCH   8  21
ATOM     21  N   UNL     1       2.339  -5.904  -2.253  0.00  0.00    -0.328 N 
ATOM     22  H   UNL     1       2.930  -6.145  -2.984  0.00  0.00    +0.145 HD
ATOM     23  H   UNL     1       2.104  -6.562  -1.581  0.00  0.00    +0.145 HD
ENDBRANCH   8  21
BRANCH   9  24
ATOM     24  C   UNL     1       0.718  -5.358  -0.181  0.00  0.00    +0.101 C 
ATOM     25  N   UNL     1       0.481  -6.169   0.578  0.00  0.00    -0.191 NA
ENDBRANCH   9  24
TORSDOF 4
