REMARK  Name = ZINC44785896
REMARK  4 active torsions:
REMARK  status: ('A' for Active; 'I' for Inactive)
REMARK    1  A    between atoms: C_4  and  C_7
REMARK    2  A    between atoms: C_4  and  C_11
REMARK    3  A    between atoms: N_8  and  O_9
REMARK    4  A    between atoms: N_16  and  C_19
REMARK                            x       y       z     vdW  Elec       q    Type
REMARK                         _______ _______ _______ _____ _____    ______ ____
ROOT
ATOM      1  C   UNL     1       4.467   1.203   2.624  0.00  0.00    +0.000 C 
ATOM      2  C   UNL     1       4.441  -0.300   2.339  0.00  0.00    +0.001 C 
ATOM      3  C   UNL     1       2.992  -0.788   2.301  0.00  0.00    +0.024 C 
ATOM      4  C   UNL     1       2.234  -0.046   1.197  0.00  0.00    +0.105 C 
ATOM      5  C   UNL     1       2.259   1.457   1.482  0.00  0.00    +0.024 C 
ATOM      6  C   UNL     1       3.709   1.944   1.521  0.00  0.00    +0.001 C 
ENDROOT
BRANCH   4   7
ATOM      7  C   UNL     1       2.890  -0.317  -0.132  0.00  0.00    +0.229 C 
ATOM      8  O   UNL     1       3.301   0.605  -0.804  0.00  0.00    -0.275 OA
ATOM      9  N   UNL     1       3.020  -1.584  -0.574  0.00  0.00    -0.298 N 
ATOM     10  C   UNL     1       2.417  -2.705   0.162  0.00  0.00    +0.123 C 
ATOM     11  C   UNL     1       1.594  -3.545  -0.821  0.00  0.00    +0.103 C 
ATOM     12  N   UNL     1       2.439  -3.931  -1.958  0.00  0.00    -0.296 NA
ATOM     13  C   UNL     1       2.892  -2.753  -2.709  0.00  0.00    +0.103 C 
ATOM     14  C   UNL     1       3.764  -1.880  -1.808  0.00  0.00    +0.123 C 
BRANCH  12  15
ATOM     15  C   UNL     1       1.739  -4.878  -2.837  0.00  0.00    +0.057 C 
ATOM     16  C   UNL     1       2.261  -6.315  -2.885  0.00  0.00    +0.020 C 
ATOM     17  C   UNL     1       2.487  -5.379  -4.074  0.00  0.00    +0.020 C 
ENDBRANCH  12  15
ENDBRANCH   4   7
BRANCH   4  18
ATOM     18  C   UNL     1       0.806  -0.526   1.159  0.00  0.00    +0.147 C 
ATOM     19  N   UNL     1      -0.000  -0.085   0.251  0.00  0.00    -0.076 NA
ATOM     20  N   UNL     1       0.360  -1.436   2.092  0.00  0.00    -0.343 N 
ATOM     21  H   UNL     1       0.981  -1.819   2.732  0.00  0.00    +0.144 HD
ATOM     22  H   UNL     1      -0.575  -1.694   2.110  0.00  0.00    +0.144 HD
BRANCH  19  23
ATOM     23  O   UNL     1       0.484   0.765  -0.772  0.00  0.00    -0.408 OA
ATOM     24  H   UNL     1      -0.192   1.044  -1.405  0.00  0.00    +0.328 HD
ENDBRANCH  19  23
ENDBRANCH   4  18
TORSDOF 4
