REMARK  Name = ZINC37579646
REMARK  10 active torsions:
REMARK  status: ('A' for Active; 'I' for Inactive)
REMARK    1  A    between atoms: C_3  and  S_12
REMARK    2  A    between atoms: C_6  and  C_7
REMARK    3  A    between atoms: C_8  and  C_9
REMARK    4  A    between atoms: C_9  and  C_10
REMARK    5  A    between atoms: C_10  and  O_11
REMARK    6  A    between atoms: S_12  and  N_15
REMARK    7  A    between atoms: N_15  and  C_16
REMARK    8  A    between atoms: C_16  and  C_17
REMARK    9  A    between atoms: C_17  and  S_18
REMARK   10  A    between atoms: S_18  and  N_21
REMARK                            x       y       z     vdW  Elec       q    Type
REMARK                         _______ _______ _______ _____ _____    ______ ____
ROOT
ATOM      1  S   UNL     1       3.889   2.324  -0.023  0.00  0.00    +0.058 S 
ATOM      2  O   UNL     1       4.872   1.467  -0.588  0.00  0.00    -0.153 OA
ATOM      3  O   UNL     1       3.592   3.604  -0.565  0.00  0.00    -0.153 OA
ENDROOT
BRANCH   1   6
ATOM      4  C   UNL     1      -0.017   1.391   0.010  0.00  0.00    +0.019 A 
ATOM      5  C   UNL     1       1.170   2.094   0.002  0.00  0.00    +0.030 A 
ATOM      6  C   UNL     1       2.378   1.419  -0.013  0.00  0.00    +0.105 A 
ATOM      7  C   UNL     1       2.403   0.036  -0.021  0.00  0.00    +0.030 A 
ATOM      8  C   UNL     1       1.223  -0.679  -0.014  0.00  0.00    +0.019 A 
ATOM      9  C   UNL     1       0.002  -0.004   0.002  0.00  0.00    +0.025 A 
BRANCH   9  10
ATOM     10  C   UNL     1      -1.226  -0.740   0.010  0.00  0.00    -0.066 C 
ATOM     11  C   UNL     1      -2.233  -1.343   0.017  0.00  0.00    -0.095 C 
BRANCH  11  12
ATOM     12  C   UNL     1      -3.496  -2.100   0.025  0.00  0.00    +0.117 C 
BRANCH  12  13
ATOM     13  C   UNL     1      -3.193  -3.599   0.015  0.00  0.00    +0.168 C 
BRANCH  13  14
ATOM     14  O   UNL     1      -4.418  -4.333   0.023  0.00  0.00    -0.394 OA
ATOM     15  H   UNL     1      -4.302  -5.293   0.016  0.00  0.00    +0.209 HD
ENDBRANCH  13  14
ENDBRANCH  12  13
ENDBRANCH  11  12
ENDBRANCH   9  10
ENDBRANCH   1   6
BRANCH   1  16
ATOM     16  N   UNL     1       4.325   2.568   1.556  0.00  0.00    -0.188 NA
ATOM     17  H   UNL     1       4.351   3.467   1.919  0.00  0.00    +0.148 HD
BRANCH  16  18
ATOM     18  C   UNL     1       4.670   1.425   2.405  0.00  0.00    +0.130 C 
BRANCH  18  19
ATOM     19  C   UNL     1       5.381   1.923   3.665  0.00  0.00    +0.201 C 
BRANCH  19  20
ATOM     20  S   UNL     1       5.809   0.508   4.717  0.00  0.00    +0.028 S 
ATOM     21  O   UNL     1       4.629  -0.089   5.238  0.00  0.00    -0.158 OA
ATOM     22  O   UNL     1       6.806  -0.286   4.087  0.00  0.00    -0.158 OA
BRANCH  20  23
ATOM     23  N   UNL     1       6.565   1.169   6.033  0.00  0.00    -0.208 NA
ATOM     24  H   UNL     1       6.505   0.732   6.897  0.00  0.00    +0.144 HD
ATOM     25  H   UNL     1       7.067   1.994   5.941  0.00  0.00    +0.144 HD
ENDBRANCH  20  23
ENDBRANCH  19  20
ENDBRANCH  18  19
ENDBRANCH  16  18
ENDBRANCH   1  16
TORSDOF 10
