REMARK  Name = ZINC00139508
REMARK  9 active torsions:
REMARK  status: ('A' for Active; 'I' for Inactive)
REMARK    1  A    between atoms: C_1  and  C_2
REMARK    2  A    between atoms: C_3  and  C_22
REMARK    3  A    between atoms: C_4  and  C_21
REMARK    4  A    between atoms: C_5  and  S_10
REMARK    5  A    between atoms: C_6  and  C_9
REMARK    6  A    between atoms: C_7  and  C_8
REMARK    7  A    between atoms: S_10  and  N_13
REMARK    8  A    between atoms: N_13  and  C_14
REMARK    9  A    between atoms: C_19  and  N_20
REMARK                            x       y       z     vdW  Elec       q    Type
REMARK                         _______ _______ _______ _____ _____    ______ ____
ROOT
ATOM      1  S   UNL     1      -2.505   3.801   4.370  0.00  0.00    +0.073 S 
ATOM      2  O   UNL     1      -1.459   4.627   4.864  0.00  0.00    -0.150 OA
ATOM      3  O   UNL     1      -3.629   4.327   3.678  0.00  0.00    -0.150 OA
ENDROOT
BRANCH   1   8
ATOM      4  C   UNL     1       0.068  -0.220   0.680  0.00  0.00    +0.044 C 
ATOM      5  C   UNL     1      -0.575   0.784   1.602  0.00  0.00    -0.044 A 
ATOM      6  C   UNL     1      -1.923   1.066   1.485  0.00  0.00    -0.043 A 
ATOM      7  C   UNL     1      -2.514   1.983   2.334  0.00  0.00    -0.020 A 
ATOM      8  C   UNL     1      -1.754   2.626   3.293  0.00  0.00    +0.115 A 
ATOM      9  C   UNL     1      -0.405   2.348   3.407  0.00  0.00    -0.020 A 
ATOM     10  C   UNL     1       0.185   1.427   2.562  0.00  0.00    -0.043 A 
ATOM     11  C   UNL     1       1.656   1.124   2.685  0.00  0.00    +0.044 C 
ATOM     12  C   UNL     1       0.424   3.049   4.453  0.00  0.00    +0.046 C 
ATOM     13  C   UNL     1      -3.985   2.287   2.209  0.00  0.00    +0.046 C 
ATOM     14  C   UNL     1      -2.750   0.369   0.435  0.00  0.00    +0.044 C 
ENDBRANCH   1   8
BRANCH   1  15
ATOM     15  N   UNL     1      -3.100   2.963   5.670  0.00  0.00    -0.214 N 
ATOM     16  H   UNL     1      -4.053   2.962   5.851  0.00  0.00    +0.174 HD
BRANCH  15  17
ATOM     17  C   UNL     1      -2.227   2.258   6.507  0.00  0.00    +0.069 A 
ATOM     18  C   UNL     1      -1.822   0.976   6.167  0.00  0.00    +0.026 A 
ATOM     19  C   UNL     1      -0.956   0.283   6.993  0.00  0.00    +0.002 A 
ATOM     20  C   UNL     1      -0.500   0.861   8.164  0.00  0.00    +0.002 A 
ATOM     21  C   UNL     1      -0.903   2.136   8.513  0.00  0.00    +0.024 A 
ATOM     22  C   UNL     1      -1.767   2.840   7.688  0.00  0.00    +0.047 A 
BRANCH  22  23
ATOM     23  N   UNL     1      -2.177   4.132   8.040  0.00  0.00    -0.357 N 
ATOM     24  H   UNL     1      -2.782   4.623   7.462  0.00  0.00    +0.142 HD
ATOM     25  H   UNL     1      -1.857   4.536   8.861  0.00  0.00    +0.142 HD
ENDBRANCH  22  23
ENDBRANCH  15  17
ENDBRANCH   1  15
TORSDOF 4
