REMARK  Name = ZINC47817080
REMARK  5 active torsions:
REMARK  status: ('A' for Active; 'I' for Inactive)
REMARK    1  A    between atoms: C_1  and  C_2
REMARK    2  A    between atoms: C_4  and  C_10
REMARK    3  A    between atoms: C_5  and  O_9
REMARK    4  A    between atoms: N_12  and  C_13
REMARK    5  A    between atoms: C_13  and  C_14
REMARK                            x       y       z     vdW  Elec       q    Type
REMARK                         _______ _______ _______ _____ _____    ______ ____
ROOT
ATOM      1  C   UNL     1       0.028  -2.813  -2.487  0.00  0.00    +0.248 C 
ATOM      2  O   UNL     1       0.044  -4.029  -2.491  0.00  0.00    -0.270 OA
ATOM      3  N   UNL     1       0.013  -2.135  -3.652  0.00  0.00    -0.303 N 
ATOM      4  H   UNL     1      -0.000  -1.165  -3.648  0.00  0.00    +0.150 HD
ENDROOT
BRANCH   1   8
ATOM      5  C   UNL     1      -0.018   1.503   0.010  0.00  0.00    +0.044 C 
ATOM      6  C   UNL     1       0.002  -0.004   0.002  0.00  0.00    -0.048 A 
ATOM      7  C   UNL     1       0.006  -0.683  -1.197  0.00  0.00    +0.020 A 
ATOM      8  C   UNL     1       0.025  -2.080  -1.207  0.00  0.00    +0.079 A 
ATOM      9  C   UNL     1       0.040  -2.781   0.007  0.00  0.00    +0.143 A 
ATOM     10  C   UNL     1       0.036  -2.081   1.205  0.00  0.00    +0.060 A 
ATOM     11  C   UNL     1       0.023  -0.700   1.200  0.00  0.00    +0.022 A 
ATOM     12 BR   UNL     1       0.056  -3.019   2.847  0.00  0.00    -0.046 Br
BRANCH   9  13
ATOM     13  O   UNL     1       0.058  -4.138   0.010  0.00  0.00    -0.505 OA
ATOM     14  H   UNL     1       0.946  -4.519   0.006  0.00  0.00    +0.292 HD
ENDBRANCH   9  13
ENDBRANCH   1   8
BRANCH   3  15
ATOM     15  C   UNL     1       0.016  -2.863  -4.923  0.00  0.00    +0.200 C 
BRANCH  15  16
ATOM     16  C   UNL     1      -0.003  -1.880  -6.065  0.00  0.00    +0.233 C 
ATOM     17  O   UNL     1      -0.018  -0.688  -5.839  0.00  0.00    -0.274 OA
ATOM     18  N   UNL     1      -0.003  -2.325  -7.337  0.00  0.00    -0.300 N 
ATOM     19  C   UNL     1       0.007  -3.735  -7.752  0.00  0.00    +0.108 C 
ATOM     20  C   UNL     1       0.029  -3.759  -9.295  0.00  0.00    +0.020 C 
ATOM     21  C   UNL     1       0.600  -2.362  -9.656  0.00  0.00    +0.020 C 
ATOM     22  C   UNL     1      -0.021  -1.477  -8.544  0.00  0.00    +0.108 C 
ENDBRANCH  15  16
ENDBRANCH   3  15
TORSDOF 4
