REMARK  Name = ZINC02192456
REMARK  7 active torsions:
REMARK  status: ('A' for Active; 'I' for Inactive)
REMARK    1  A    between atoms: C_1  and  C_2
REMARK    2  A    between atoms: C_5  and  N_8
REMARK    3  A    between atoms: C_16  and  C_20
REMARK    4  A    between atoms: C_16  and  N_24
REMARK    5  A    between atoms: C_25  and  C_27
REMARK    6  A    between atoms: C_30  and  O_33
REMARK    7  A    between atoms: O_33  and  C_34
REMARK                            x       y       z     vdW  Elec       q    Type
REMARK                         _______ _______ _______ _____ _____    ______ ____
ROOT
ATOM      1  N   UNL     1       0.041  -4.038   0.133  0.00  0.00    -0.249 N 
ATOM      2  C   UNL     1       0.150  -4.798   1.280  0.00  0.00    +0.125 A 
ATOM      3  C   UNL     1       0.219  -6.154   1.155  0.00  0.00    +0.097 A 
ATOM      4  C   UNL     1       0.179  -6.747  -0.113  0.00  0.00    +0.262 A 
ATOM      5  N   UNL     1       0.071  -5.964  -1.206  0.00  0.00    -0.274 N 
ATOM      6  C   UNL     1      -0.000  -4.626  -1.075  0.00  0.00    +0.335 A 
ATOM      7  O   UNL     1      -0.101  -3.935  -2.070  0.00  0.00    -0.246 OA
ATOM      8  O   UNL     1       0.240  -7.959  -0.228  0.00  0.00    -0.267 OA
ATOM      9  C   UNL     1       0.331  -6.712   2.554  0.00  0.00    +0.240 C 
ATOM     10  C   UNL     1       0.312  -5.476   3.431  0.00  0.00    +0.256 C 
ATOM     11  O   UNL     1       0.381  -5.443   4.641  0.00  0.00    -0.272 OA
ATOM     12  N   UNL     1       0.205  -4.423   2.601  0.00  0.00    -0.269 N 
ATOM     13  H   UNL     1       0.043  -6.365  -2.089  0.00  0.00    +0.173 HD
ATOM     14  H   UNL     1       0.171  -3.502   2.902  0.00  0.00    +0.156 HD
ENDROOT
BRANCH   1  19
ATOM     15  C   UNL     1      -0.256   1.615   0.522  0.00  0.00    +0.044 C 
ATOM     16  C   UNL     1      -0.177   0.114   0.419  0.00  0.00    -0.050 A 
ATOM     17  C   UNL     1      -1.278  -0.607  -0.006  0.00  0.00    +0.005 A 
ATOM     18  C   UNL     1      -1.209  -1.983  -0.102  0.00  0.00    +0.026 A 
ATOM     19  C   UNL     1      -0.032  -2.643   0.229  0.00  0.00    +0.053 A 
ATOM     20  C   UNL     1       1.072  -1.915   0.654  0.00  0.00    +0.026 A 
ATOM     21  C   UNL     1       0.998  -0.539   0.743  0.00  0.00    +0.005 A 
ENDBRANCH   1  19
BRANCH   9  22
ATOM     22  C   UNL     1      -0.862  -7.616   2.871  0.00  0.00    +0.424 C 
ATOM     23  F   UNL     1      -0.828  -8.742   2.041  0.00  0.00    -0.167 F 
ATOM     24  F   UNL     1      -0.799  -8.020   4.209  0.00  0.00    -0.167 F 
ATOM     25  F   UNL     1      -2.051  -6.911   2.653  0.00  0.00    -0.167 F 
ENDBRANCH   9  22
BRANCH   9  26
ATOM     26  N   UNL     1       1.591  -7.442   2.719  0.00  0.00    -0.287 N 
ATOM     27  C   UNL     1       2.766  -6.801   2.565  0.00  0.00    +0.245 C 
ATOM     28  O   UNL     1       2.783  -5.640   2.207  0.00  0.00    -0.270 OA
ATOM     29  H   UNL     1       1.578  -8.387   2.938  0.00  0.00    +0.151 HD
BRANCH  27  30
ATOM     30  C   UNL     1       4.033  -7.510   2.832  0.00  0.00    +0.037 A 
ATOM     31  C   UNL     1       4.016  -8.847   3.238  0.00  0.00    +0.016 A 
ATOM     32  C   UNL     1       5.201  -9.504   3.486  0.00  0.00    +0.046 A 
ATOM     33  C   UNL     1       6.412  -8.839   3.333  0.00  0.00    +0.120 A 
ATOM     34  C   UNL     1       6.433  -7.510   2.929  0.00  0.00    +0.046 A 
ATOM     35  C   UNL     1       5.253  -6.847   2.674  0.00  0.00    +0.016 A 
BRANCH  33  36
ATOM     36  O   UNL     1       7.577  -9.491   3.578  0.00  0.00    -0.495 OA
ATOM     37  C   UNL     1       8.785  -8.748   3.401  0.00  0.00    +0.277 C 
ENDBRANCH  33  36
ENDBRANCH  27  30
ENDBRANCH   9  26
TORSDOF 5
