REMARK  Name = ZINC20766261
REMARK  3 active torsions:
REMARK  status: ('A' for Active; 'I' for Inactive)
REMARK    1  A    between atoms: C_6  and  C_7
REMARK    2  A    between atoms: C_17  and  S_19
REMARK    3  A    between atoms: S_19  and  N_22
REMARK                            x       y       z     vdW  Elec       q    Type
REMARK                         _______ _______ _______ _____ _____    ______ ____
ROOT
ATOM      1  C   UNL     1      -1.420   6.472  -4.760  0.00  0.00    +0.251 C 
ATOM      2  O   UNL     1      -0.756   6.772  -3.787  0.00  0.00    -0.270 OA
ATOM      3  N   UNL     1      -2.215   5.384  -4.724  0.00  0.00    -0.267 N 
ATOM      4  C   UNL     1      -3.122   5.085  -5.840  0.00  0.00    +0.114 C 
ATOM      5  C   UNL     1      -4.483   4.696  -5.248  0.00  0.00    +0.024 C 
ATOM      6  C   UNL     1      -4.316   3.420  -4.422  0.00  0.00    +0.038 C 
ATOM      7  C   UNL     1      -3.185   3.571  -3.440  0.00  0.00    -0.024 A 
ATOM      8  C   UNL     1      -2.190   4.520  -3.621  0.00  0.00    +0.040 A 
ATOM      9  C   UNL     1      -1.154   4.627  -2.701  0.00  0.00    +0.026 A 
ATOM     10  C   UNL     1      -1.119   3.793  -1.601  0.00  0.00    +0.030 A 
ATOM     11  C   UNL     1      -2.110   2.846  -1.422  0.00  0.00    +0.105 A 
ATOM     12  C   UNL     1      -3.140   2.737  -2.336  0.00  0.00    +0.034 A 
ENDROOT
BRANCH   1  18
ATOM     13  C   UNL     1      -1.613   6.729  -7.230  0.00  0.00    +0.014 A 
ATOM     14  C   UNL     1      -1.557   7.508  -8.366  0.00  0.00    +0.021 A 
ATOM     15  C   UNL     1      -1.236   8.852  -8.273  0.00  0.00    +0.041 A 
ATOM     16  C   UNL     1      -0.974   9.423  -7.038  0.00  0.00    +0.021 A 
ATOM     17  C   UNL     1      -1.032   8.655  -5.894  0.00  0.00    +0.014 A 
ATOM     18  C   UNL     1      -1.356   7.300  -5.982  0.00  0.00    +0.037 A 
ATOM     19 CL   UNL     1      -1.162   9.825  -9.709  0.00  0.00    -0.084 Cl
ENDBRANCH   1  18
BRANCH  11  20
ATOM     20  S   UNL     1      -2.063   1.779  -0.020  0.00  0.00    +0.056 S 
ATOM     21  O   UNL     1      -3.398   1.352   0.211  0.00  0.00    -0.153 OA
ATOM     22  O   UNL     1      -1.294   2.446   0.972  0.00  0.00    -0.153 OA
BRANCH  20  23
ATOM     23  N   UNL     1      -1.204   0.432  -0.458  0.00  0.00    -0.204 NA
ATOM     24  H   UNL     1      -1.152  -0.262   0.394  0.00  0.00    +0.144 HD
ATOM     25  H   UNL     1      -0.187   0.727  -0.755  0.00  0.00    +0.144 HD
ENDBRANCH  20  23
ENDBRANCH  11  20
TORSDOF 3
