REMARK  Name = ZINC08997637
REMARK  3 active torsions:
REMARK  status: ('A' for Active; 'I' for Inactive)
REMARK    1  A    between atoms: C_1  and  C_2
REMARK    2  A    between atoms: C_7  and  N_8
REMARK    3  A    between atoms: N_15  and  C_19
REMARK                            x       y       z     vdW  Elec       q    Type
REMARK                         _______ _______ _______ _____ _____    ______ ____
ROOT
ATOM      1  C   UNL     1      -0.018   1.503   0.010  0.00  0.00    +0.046 C 
ATOM      2  C   UNL     1       0.002  -0.004   0.002  0.00  0.00    -0.028 A 
ATOM      3  C   UNL     1       0.005  -0.660  -1.186  0.00  0.00    +0.035 A 
ATOM      4  C   UNL     1       0.024  -2.070  -1.208  0.00  0.00    +0.091 A 
ATOM      5  C   UNL     1       0.040  -2.800   0.064  0.00  0.00    +0.093 A 
ATOM      6  C   UNL     1       0.036  -2.072   1.264  0.00  0.00    +0.053 A 
ATOM      7  C   UNL     1       0.023  -0.695   1.221  0.00  0.00    +0.030 A 
ATOM      8  N   UNL     1       0.058  -4.136   0.070  0.00  0.00    -0.224 NA
ATOM      9  C   UNL     1       0.061  -4.793  -1.080  0.00  0.00    +0.189 A 
ATOM     10  C   UNL     1       0.045  -4.055  -2.347  0.00  0.00    +0.173 A 
ATOM     11  N   UNL     1       0.027  -2.738  -2.361  0.00  0.00    -0.237 NA
ATOM     12  C   UNL     1       0.049  -4.844  -3.595  0.00  0.00    +0.285 A 
ATOM     13  O   UNL     1       0.037  -4.305  -4.686  0.00  0.00    -0.265 OA
ATOM     14  N   UNL     1       0.068  -6.192  -3.477  0.00  0.00    -0.255 N 
ATOM     15  C   UNL     1       0.082  -6.791  -2.256  0.00  0.00    +0.353 A 
ATOM     16  N   UNL     1       0.079  -6.142  -1.122  0.00  0.00    -0.171 NA
ATOM     17  O   UNL     1       0.100  -8.140  -2.212  0.00  0.00    -0.244 OA
ENDROOT
BRANCH  14  18
ATOM     18  C   UNL     1       0.073  -7.020  -4.685  0.00  0.00    +0.095 C 
ATOM     19  C   UNL     1      -1.164  -7.920  -4.692  0.00  0.00    +0.025 C 
ATOM     20  C   UNL     1      -1.159  -8.786  -5.953  0.00  0.00    +0.002 C 
ATOM     21  C   UNL     1       0.102  -9.652  -5.972  0.00  0.00    +0.000 C 
ATOM     22  C   UNL     1       1.340  -8.752  -5.966  0.00  0.00    +0.002 C 
ATOM     23  C   UNL     1       1.334  -7.887  -4.704  0.00  0.00    +0.025 C 
ENDBRANCH  14  18
BRANCH   7  24
ATOM     24  N   UNL     1       0.025   0.025   2.413  0.00  0.00    -0.358 N 
ATOM     25  H   UNL     1       0.011   0.994   2.394  0.00  0.00    +0.142 HD
ATOM     26  H   UNL     1       0.039  -0.444   3.262  0.00  0.00    +0.142 HD
ENDBRANCH   7  24
TORSDOF 2
