REMARK  Name = ZINC20425734
REMARK  3 active torsions:
REMARK  status: ('A' for Active; 'I' for Inactive)
REMARK    1  A    between atoms: C_5  and  N_7
REMARK    2  A    between atoms: N_10  and  C_13
REMARK    3  A    between atoms: C_13  and  N_15
REMARK                            x       y       z     vdW  Elec       q    Type
REMARK                         _______ _______ _______ _____ _____    ______ ____
ROOT
ATOM      1  N   UNL     1      -0.002  -0.002   0.002  0.00  0.00    -0.326 N 
ATOM      2  C   UNL     1      -0.601  -0.531  -1.231  0.00  0.00    +0.124 C 
ATOM      3  C   UNL     1      -0.397  -2.049  -1.284  0.00  0.00    +0.125 C 
ATOM      4  N   UNL     1      -0.918  -2.634  -0.039  0.00  0.00    -0.310 N 
ATOM      5  C   UNL     1      -0.468  -2.063   1.240  0.00  0.00    +0.125 C 
ATOM      6  C   UNL     1      -0.669  -0.545   1.193  0.00  0.00    +0.124 C 
ENDROOT
BRANCH   1  11
ATOM      7  C   UNL     1      -1.251   3.454   0.033  0.00  0.00    +0.002 A 
ATOM      8  C   UNL     1      -0.063   4.163   0.025  0.00  0.00    +0.002 A 
ATOM      9  C   UNL     1       1.145   3.491   0.010  0.00  0.00    +0.022 A 
ATOM     10  C   UNL     1       1.170   2.109   0.002  0.00  0.00    +0.062 A 
ATOM     11  C   UNL     1      -0.022   1.395   0.010  0.00  0.00    +0.048 A 
ATOM     12  C   UNL     1      -1.234   2.074   0.019  0.00  0.00    +0.024 A 
ATOM     13 CL   UNL     1       2.688   1.267  -0.017  0.00  0.00    -0.082 Cl
ENDBRANCH   1  11
BRANCH   4  14
ATOM     14  C   UNL     1      -1.785  -3.665  -0.070  0.00  0.00    +0.130 C 
ATOM     15  S   UNL     1      -2.278  -4.412   1.390  0.00  0.00    -0.019 S 
BRANCH  14  16
ATOM     16  N   UNL     1      -2.265  -4.107  -1.249  0.00  0.00    -0.340 N 
ATOM     17  H   UNL     1      -2.973  -4.949  -1.274  0.00  0.00    +0.144 HD
ATOM     18  H   UNL     1      -1.948  -3.627  -2.186  0.00  0.00    +0.144 HD
ENDBRANCH  14  16
ENDBRANCH   4  14
TORSDOF 3
