REMARK  Name = ZINC00494509
REMARK  4 active torsions:
REMARK  status: ('A' for Active; 'I' for Inactive)
REMARK    1  A    between atoms: C_1  and  C_2
REMARK    2  A    between atoms: C_9  and  C_17
REMARK    3  A    between atoms: C_11  and  C_15
REMARK    4  A    between atoms: C_12  and  N_14
REMARK                            x       y       z     vdW  Elec       q    Type
REMARK                         _______ _______ _______ _____ _____    ______ ____
ROOT
ATOM      1  C   UNL     1      -2.466   0.946   0.019  0.00  0.00    +0.086 C 
ATOM      2  C   UNL     1      -1.184   1.738   0.017  0.00  0.00    +0.110 A 
ATOM      3  C   UNL     1      -0.013   1.076   0.008  0.00  0.00    +0.088 A 
ATOM      4  C   UNL     1       1.199   1.805   0.000  0.00  0.00    +0.144 A 
ATOM      5  C   UNL     1       1.132   3.182   0.008  0.00  0.00    +0.088 A 
ATOM      6  C   UNL     1      -0.124   3.799   0.023  0.00  0.00    +0.344 A 
ATOM      7  O   UNL     1      -0.195   5.017   0.029  0.00  0.00    -0.245 OA
ATOM      8  O   UNL     1      -1.250   3.072   0.030  0.00  0.00    -0.427 OA
ATOM      9  C   UNL     1       2.387   4.011   0.001  0.00  0.00    +0.085 C 
ATOM     10  C   UNL     1       3.562   3.167  -0.407  0.00  0.00    +0.095 C 
ATOM     11  C   UNL     1       3.496   1.815  -0.391  0.00  0.00    +0.198 C 
ATOM     12  O   UNL     1       2.382   1.161  -0.015  0.00  0.00    -0.441 OA
ENDROOT
BRANCH   9  13
ATOM     13  C   UNL     1       2.629   4.576   1.402  0.00  0.00    +0.001 C 
ATOM     14  C   UNL     1       1.512   5.504   1.977  0.00  0.00    +0.012 C 
ATOM     15  C   UNL     1       2.211   6.239   3.145  0.00  0.00    +0.008 C 
ATOM     16  C   UNL     1       3.663   5.663   3.128  0.00  0.00    +0.012 C 
ATOM     17  C   UNL     1       3.887   5.503   1.580  0.00  0.00    +0.019 C 
ATOM     18  C   UNL     1       3.487   4.197   3.542  0.00  0.00    -0.027 C 
ATOM     19  C   UNL     1       2.873   3.551   2.516  0.00  0.00    -0.023 C 
ENDBRANCH   9  13
BRANCH  11  20
ATOM     20  N   UNL     1       4.598   1.089  -0.771  0.00  0.00    -0.328 N 
ATOM     21  H   UNL     1       4.566   0.120  -0.765  0.00  0.00    +0.145 HD
ATOM     22  H   UNL     1       5.408   1.546  -1.045  0.00  0.00    +0.145 HD
ENDBRANCH  11  20
BRANCH  10  23
ATOM     23  C   UNL     1       4.776   3.805  -0.819  0.00  0.00    +0.100 C 
ATOM     24  N   UNL     1       5.739   4.312  -1.145  0.00  0.00    -0.191 NA
ENDBRANCH  10  23
TORSDOF 3
