REMARK  Name = ZINC22196486
REMARK  5 active torsions:
REMARK  status: ('A' for Active; 'I' for Inactive)
REMARK    1  A    between atoms: C_7  and  C_11
REMARK    2  A    between atoms: C_11  and  C_13
REMARK    3  A    between atoms: C_11  and  C_25
REMARK    4  A    between atoms: C_13  and  N_14
REMARK    5  A    between atoms: N_17  and  C_18
REMARK                            x       y       z     vdW  Elec       q    Type
REMARK                         _______ _______ _______ _____ _____    ______ ____
ROOT
ATOM      1  C   UNL     1       3.683   4.002   0.007  0.00  0.00    +0.075 C 
ENDROOT
BRANCH   1   8
ATOM      2  C   UNL     1      -0.018   1.125   0.058  0.00  0.00    +0.001 A 
ATOM      3  C   UNL     1      -1.230   1.803   0.068  0.00  0.00    +0.002 A 
ATOM      4  C   UNL     1      -1.264   3.180   0.073  0.00  0.00    +0.026 A 
ATOM      5  C   UNL     1      -0.075   3.901   0.057  0.00  0.00    +0.047 A 
ATOM      6  C   UNL     1       1.150   3.210   0.041  0.00  0.00    +0.003 A 
ATOM      7  C   UNL     1       1.162   1.813   0.042  0.00  0.00    +0.010 A 
ATOM      8  C   UNL     1       2.194   4.237   0.027  0.00  0.00    -0.013 A 
ATOM      9  C   UNL     1       1.574   5.427   0.035  0.00  0.00    +0.088 A 
ATOM     10  N   UNL     1       0.218   5.246   0.053  0.00  0.00    -0.360 N 
ATOM     11  H   UNL     1      -0.596   5.986   0.064  0.00  0.00    +0.165 HD
ENDBRANCH   1   8
BRANCH   1  12
ATOM     12  C   UNL     1       4.306   4.625   1.229  0.00  0.00    -0.001 A 
ATOM     13  C   UNL     1       5.013   4.033   2.223  0.00  0.00    +0.012 A 
ATOM     14  C   UNL     1       5.499   4.812   3.256  0.00  0.00    +0.008 A 
ATOM     15  C   UNL     1       5.246   6.144   3.250  0.00  0.00    +0.045 A 
ATOM     16  S   UNL     1       4.301   6.333   1.747  0.00  0.00    -0.101 S 
ENDBRANCH   1  12
BRANCH   1  17
ATOM     17  C   UNL     1       4.282   4.635  -1.251  0.00  0.00    +0.119 C 
BRANCH  17  18
ATOM     18  N   UNL     1       5.707   4.305  -1.332  0.00  0.00    -0.298 N 
ATOM     19  C   UNL     1       6.446   4.758  -2.364  0.00  0.00    +0.304 C 
ATOM     20  O   UNL     1       5.930   5.441  -3.228  0.00  0.00    -0.253 OA
ATOM     21  N   UNL     1       7.757   4.455  -2.439  0.00  0.00    -0.267 N 
ATOM     22  H   UNL     1       6.174   3.687  -0.551  0.00  0.00    +0.150 HD
ATOM     23  H   UNL     1       8.240   3.900  -1.621  0.00  0.00    +0.156 HD
BRANCH  21  24
ATOM     24  C   UNL     1       8.504   4.847  -3.557  0.00  0.00    +0.070 A 
ATOM     25  C   UNL     1       8.223   6.047  -4.196  0.00  0.00    +0.026 A 
ATOM     26  C   UNL     1       8.965   6.433  -5.295  0.00  0.00    +0.002 A 
ATOM     27  C   UNL     1       9.979   5.621  -5.768  0.00  0.00    +0.003 A 
ATOM     28  C   UNL     1      10.259   4.422  -5.138  0.00  0.00    +0.040 A 
ATOM     29  C   UNL     1       9.524   4.032  -4.034  0.00  0.00    +0.145 A 
ATOM     30  F   UNL     1       9.797   2.860  -3.419  0.00  0.00    -0.204 F 
ENDBRANCH  21  24
ENDBRANCH  17  18
ENDBRANCH   1  17
TORSDOF 5
