REMARK  Name = ZINC36744812
REMARK  6 active torsions:
REMARK  status: ('A' for Active; 'I' for Inactive)
REMARK    1  A    between atoms: C_2  and  C_11
REMARK    2  A    between atoms: C_11  and  N_12
REMARK    3  A    between atoms: N_12  and  C_13
REMARK    4  A    between atoms: C_13  and  C_14
REMARK    5  A    between atoms: C_14  and  S_15
REMARK    6  A    between atoms: S_15  and  N_18
REMARK                            x       y       z     vdW  Elec       q    Type
REMARK                         _______ _______ _______ _____ _____    ______ ____
ROOT
ATOM      1  C   UNL     1       1.147   3.596   0.010  0.00  0.00    -0.047 C 
ENDROOT
BRANCH   1   3
ATOM      2  C   UNL     1      -0.017   1.381   0.010  0.00  0.00    +0.051 A 
ATOM      3  C   UNL     1       1.171   2.090   0.002  0.00  0.00    -0.060 A 
ATOM      4  C   UNL     1       2.379   1.419  -0.013  0.00  0.00    +0.021 A 
ATOM      5  C   UNL     1       2.406   0.036  -0.021  0.00  0.00    +0.063 A 
ATOM      6  C   UNL     1       1.220  -0.680  -0.014  0.00  0.00    +0.180 A 
ATOM      7  C   UNL     1       0.002  -0.004   0.002  0.00  0.00    +0.168 A 
ATOM      8  O   UNL     1      -1.007  -0.923   0.006  0.00  0.00    -0.453 OA
ATOM      9  C   UNL     1      -0.404  -2.159  -0.419  0.00  0.00    +0.466 C 
ATOM     10  O   UNL     1       0.973  -2.023  -0.020  0.00  0.00    -0.451 OA
ATOM     11 BR   UNL     1       4.061  -0.877  -0.043  0.00  0.00    -0.046 Br
ENDBRANCH   1   3
BRANCH   1  12
ATOM     12  N   UNL     1       1.153   4.079   1.398  0.00  0.00    +0.383 N 
ATOM     13  H   UNL     1       0.339   3.727   1.879  0.00  0.00    -0.085 HD
ATOM     14  H   UNL     1       1.986   3.753   1.864  0.00  0.00    -0.085 HD
BRANCH  12  15
ATOM     15  C   UNL     1       1.129   5.547   1.406  0.00  0.00    -0.058 C 
BRANCH  15  16
ATOM     16  C   UNL     1       1.135   6.050   2.851  0.00  0.00    +0.166 C 
BRANCH  16  17
ATOM     17  S   UNL     1       1.107   7.863   2.861  0.00  0.00    +0.025 S 
ATOM     18  O   UNL     1       2.329   8.375   2.347  0.00  0.00    -0.158 OA
ATOM     19  O   UNL     1      -0.140   8.336   2.370  0.00  0.00    -0.158 OA
BRANCH  17  20
ATOM     20  N   UNL     1       1.115   8.280   4.464  0.00  0.00    -0.208 NA
ATOM     21  H   UNL     1       1.133   7.590   5.145  0.00  0.00    +0.144 HD
ATOM     22  H   UNL     1       1.103   9.215   4.722  0.00  0.00    +0.144 HD
ENDBRANCH  17  20
ENDBRANCH  16  17
ENDBRANCH  15  16
ENDBRANCH  12  15
ENDBRANCH   1  12
TORSDOF 6
