REMARK  Name = ZINC22907480
REMARK  6 active torsions:
REMARK  status: ('A' for Active; 'I' for Inactive)
REMARK    1  A    between atoms: N_9  and  C_11
REMARK    2  A    between atoms: C_11  and  C_13
REMARK    3  A    between atoms: C_11  and  C_27
REMARK    4  A    between atoms: C_13  and  N_14
REMARK    5  A    between atoms: C_15  and  C_17
REMARK    6  A    between atoms: N_19  and  C_20
REMARK                            x       y       z     vdW  Elec       q    Type
REMARK                         _______ _______ _______ _____ _____    ______ ____
ROOT
ATOM      1  C   UNL     1      -0.206   1.698  -2.795  0.00  0.00    +0.140 C 
ENDROOT
BRANCH   1  10
ATOM      2  C   UNL     1      -2.394   3.285   3.037  0.00  0.00    +0.000 A 
ATOM      3  C   UNL     1      -1.591   2.165   3.152  0.00  0.00    +0.000 A 
ATOM      4  C   UNL     1      -0.949   1.663   2.038  0.00  0.00    +0.005 A 
ATOM      5  C   UNL     1      -1.109   2.275   0.800  0.00  0.00    -0.030 A 
ATOM      6  C   UNL     1      -1.907   3.389   0.688  0.00  0.00    -0.042 A 
ATOM      7  C   UNL     1      -2.550   3.894   1.808  0.00  0.00    +0.004 A 
ATOM      8  C   UNL     1      -2.110   4.085  -0.633  0.00  0.00    +0.051 C 
ATOM      9  C   UNL     1      -1.027   3.654  -1.622  0.00  0.00    +0.090 C 
ATOM     10  N   UNL     1      -0.964   2.183  -1.634  0.00  0.00    -0.287 NA
ATOM     11  C   UNL     1      -0.380   1.691  -0.382  0.00  0.00    +0.120 C 
ENDBRANCH   1  10
BRANCH   1  12
ATOM     12  C   UNL     1       1.180   2.288  -2.772  0.00  0.00    +0.123 A 
ATOM     13  C   UNL     1       1.811   2.854  -3.816  0.00  0.00    +0.046 A 
ATOM     14  C   UNL     1       3.081   3.268  -3.352  0.00  0.00    +0.041 A 
ATOM     15  C   UNL     1       3.149   2.931  -2.051  0.00  0.00    +0.195 A 
ATOM     16  O   UNL     1       1.993   2.342  -1.704  0.00  0.00    -0.466 OA
ENDBRANCH   1  12
BRANCH   1  17
ATOM     17  C   UNL     1      -0.113   0.172  -2.741  0.00  0.00    +0.131 C 
BRANCH  17  18
ATOM     18  N   UNL     1      -1.459  -0.397  -2.642  0.00  0.00    -0.306 N 
ATOM     19  C   UNL     1      -1.623  -1.733  -2.581  0.00  0.00    +0.299 C 
ATOM     20  O   UNL     1      -0.655  -2.466  -2.607  0.00  0.00    -0.265 OA
ATOM     21  H   UNL     1      -2.336   0.266  -2.619  0.00  0.00    +0.149 HD
BRANCH  19  22
ATOM     22  C   UNL     1      -2.996  -2.313  -2.481  0.00  0.00    +0.303 C 
ATOM     23  O   UNL     1      -3.963  -1.581  -2.455  0.00  0.00    -0.265 OA
ATOM     24  N   UNL     1      -3.160  -3.650  -2.420  0.00  0.00    -0.276 N 
ATOM     25  H   UNL     1      -2.282  -4.309  -2.353  0.00  0.00    +0.155 HD
BRANCH  24  26
ATOM     26  C   UNL     1      -4.446  -4.198  -2.441  0.00  0.00    +0.052 A 
ATOM     27  C   UNL     1      -5.507  -3.463  -2.954  0.00  0.00    +0.025 A 
ATOM     28  C   UNL     1      -6.775  -4.010  -2.979  0.00  0.00    +0.002 A 
ATOM     29  C   UNL     1      -6.992  -5.282  -2.483  0.00  0.00    +0.002 A 
ATOM     30  C   UNL     1      -5.939  -6.015  -1.965  0.00  0.00    +0.022 A 
ATOM     31  C   UNL     1      -4.666  -5.477  -1.943  0.00  0.00    +0.062 A 
ATOM     32 CL   UNL     1      -3.345  -6.396  -1.292  0.00  0.00    -0.082 Cl
ENDBRANCH  24  26
ENDBRANCH  19  22
ENDBRANCH  17  18
ENDBRANCH   1  17
TORSDOF 6
