REMARK  Name = ZINC18140649
REMARK  2 active torsions:
REMARK  status: ('A' for Active; 'I' for Inactive)
REMARK    1  A    between atoms: C_6  and  C_7
REMARK    2  A    between atoms: N_16  and  C_19
REMARK                            x       y       z     vdW  Elec       q    Type
REMARK                         _______ _______ _______ _____ _____    ______ ____
ROOT
ATOM      1  C   UNL     1      -1.265  -0.763   0.011  0.00  0.00    +0.080 C 
ATOM      2  N   UNL     1      -2.536  -0.208   0.020  0.00  0.00    -0.264 N 
ATOM      3  O   UNL     1      -3.405  -1.220   0.570  0.00  0.00    -0.256 OA
ATOM      4  C   UNL     1      -2.884  -2.383  -0.091  0.00  0.00    +0.272 C 
ATOM      5  C   UNL     1      -1.373  -2.116   0.004  0.00  0.00    +0.081 C 
ATOM      6  H   UNL     1      -2.789   0.678  -0.281  0.00  0.00    +0.194 HD
ATOM      7  C   UNL     1      -0.848  -3.406   0.138  0.00  0.00    +0.258 C 
ATOM      8  O   UNL     1       0.269  -3.750  -0.203  0.00  0.00    -0.269 OA
ATOM      9  N   UNL     1      -1.772  -4.208   0.703  0.00  0.00    -0.204 N 
ATOM     10  C   UNL     1      -3.028  -3.666   0.679  0.00  0.00    +0.263 C 
ATOM     11  O   UNL     1      -4.043  -4.116   1.165  0.00  0.00    -0.271 OA
ENDROOT
BRANCH   9  12
ATOM     12  C   UNL     1      -1.482  -5.463   1.253  0.00  0.00    +0.047 A 
ATOM     13  C   UNL     1      -2.497  -6.229   1.812  0.00  0.00    +0.044 A 
ATOM     14  C   UNL     1      -2.208  -7.467   2.354  0.00  0.00    +0.044 A 
ATOM     15  C   UNL     1      -0.908  -7.943   2.342  0.00  0.00    +0.040 A 
ATOM     16  C   UNL     1       0.105  -7.181   1.786  0.00  0.00    +0.044 A 
ATOM     17  C   UNL     1      -0.180  -5.945   1.237  0.00  0.00    +0.044 A 
ATOM     18 CL   UNL     1       1.734  -7.781   1.774  0.00  0.00    -0.083 Cl
ATOM     19 CL   UNL     1      -3.475  -8.425   3.052  0.00  0.00    -0.083 Cl
ENDBRANCH   9  12
BRANCH   1  25
ATOM     20  C   UNL     1      -0.017   1.393   0.010  0.00  0.00    +0.011 A 
ATOM     21  C   UNL     1       1.170   2.095   0.002  0.00  0.00    +0.016 A 
ATOM     22  C   UNL     1       2.378   1.419  -0.013  0.00  0.00    +0.018 A 
ATOM     23  C   UNL     1       2.404   0.035  -0.022  0.00  0.00    +0.016 A 
ATOM     24  C   UNL     1       1.224  -0.680  -0.014  0.00  0.00    +0.011 A 
ATOM     25  C   UNL     1       0.002  -0.004   0.002  0.00  0.00    +0.001 A 
ATOM     26 BR   UNL     1       4.000   2.391  -0.024  0.00  0.00    -0.050 Br
ENDBRANCH   1  25
TORSDOF 2
