REMARK  Name = ZINC62720751
REMARK  3 active torsions:
REMARK  status: ('A' for Active; 'I' for Inactive)
REMARK    1  A    between atoms: C_1  and  C_2
REMARK    2  A    between atoms: C_2  and  C_3
REMARK    3  A    between atoms: C_6  and  C_10
REMARK                            x       y       z     vdW  Elec       q    Type
REMARK                         _______ _______ _______ _____ _____    ______ ____
ROOT
ATOM      1  C   UNL     1       0.707  -0.490  -1.238  0.00  0.00    +0.046 A 
ATOM      2  C   UNL     1      -0.028  -0.715  -2.395  0.00  0.00    -0.022 A 
ATOM      3  C   UNL     1       0.622  -1.155  -3.524  0.00  0.00    -0.027 A 
ATOM      4  C   UNL     1       2.008  -1.366  -3.458  0.00  0.00    +0.077 A 
ATOM      5  C   UNL     1       2.675  -1.118  -2.257  0.00  0.00    +0.142 A 
ATOM      6  N   UNL     1       2.009  -0.688  -1.203  0.00  0.00    -0.239 NA
ATOM      7 CL   UNL     1       4.389  -1.371  -2.152  0.00  0.00    -0.061 Cl
ATOM      8  C   UNL     1      -0.086  -1.413  -4.825  0.00  0.00    +0.036 C 
ATOM      9  C   UNL     1      -1.592  -1.544  -4.598  0.00  0.00    +0.005 C 
ATOM     10  C   UNL     1      -2.066  -0.339  -3.778  0.00  0.00    +0.005 C 
ATOM     11  C   UNL     1      -1.512  -0.469  -2.360  0.00  0.00    +0.037 C 
ENDROOT
BRANCH   4  12
ATOM     12  C   UNL     1       2.751  -1.845  -4.643  0.00  0.00    +0.245 C 
ATOM     13  O   UNL     1       3.222  -1.046  -5.428  0.00  0.00    -0.270 OA
ATOM     14  N   UNL     1       2.906  -3.167  -4.852  0.00  0.00    -0.325 N 
ATOM     15  H   UNL     1       2.530  -3.805  -4.225  0.00  0.00    +0.145 HD
ATOM     16  H   UNL     1       3.393  -3.481  -5.629  0.00  0.00    +0.145 HD
ENDBRANCH   4  12
BRANCH   1  18
ATOM     17  C   UNL     1      -0.019   1.526   0.010  0.00  0.00    +0.010 C 
ATOM     18  C   UNL     1       0.002  -0.004   0.002  0.00  0.00    +0.052 C 
ENDBRANCH   1  18
TORSDOF 2
