REMARK  Name = ZINC08110917
REMARK  10 active torsions:
REMARK  status: ('A' for Active; 'I' for Inactive)
REMARK    1  A    between atoms: C_1  and  C_2
REMARK    2  A    between atoms: C_5  and  N_12
REMARK    3  A    between atoms: C_7  and  S_8
REMARK    4  A    between atoms: S_8  and  N_11
REMARK    5  A    between atoms: N_12  and  S_13
REMARK    6  A    between atoms: S_13  and  C_16
REMARK    7  A    between atoms: C_17  and  C_25
REMARK    8  A    between atoms: C_18  and  C_24
REMARK    9  A    between atoms: C_20  and  C_23
REMARK   10  A    between atoms: C_21  and  C_22
REMARK                            x       y       z     vdW  Elec       q    Type
REMARK                         _______ _______ _______ _____ _____    ______ ____
ROOT
ATOM      1  N   UNL     1       0.255  -3.108   0.190  0.00  0.00    -0.216 N 
ATOM      2  H   UNL     1      -0.375  -3.345   0.889  0.00  0.00    +0.174 HD
ENDROOT
BRANCH   1   7
ATOM      3  C   UNL     1       1.618   2.329  -0.673  0.00  0.00    +0.046 C 
ATOM      4  C   UNL     1       1.256   0.884  -0.444  0.00  0.00    -0.024 A 
ATOM      5  C   UNL     1       0.968   0.065  -1.521  0.00  0.00    +0.007 A 
ATOM      6  C   UNL     1       0.636  -1.259  -1.314  0.00  0.00    +0.025 A 
ATOM      7  C   UNL     1       0.591  -1.769  -0.022  0.00  0.00    +0.050 A 
ATOM      8  C   UNL     1       0.880  -0.944   1.057  0.00  0.00    +0.053 A 
ATOM      9  C   UNL     1       1.218   0.378   0.843  0.00  0.00    +0.110 A 
BRANCH   9  10
ATOM     10  S   UNL     1       1.592   1.423   2.211  0.00  0.00    +0.056 S 
ATOM     11  O   UNL     1       0.828   2.608   2.038  0.00  0.00    -0.153 OA
ATOM     12  O   UNL     1       1.494   0.617   3.377  0.00  0.00    -0.153 OA
BRANCH  10  13
ATOM     13  N   UNL     1       3.183   1.862   2.071  0.00  0.00    -0.204 NA
ATOM     14  H   UNL     1       3.712   1.538   1.325  0.00  0.00    +0.144 HD
ATOM     15  H   UNL     1       3.586   2.443   2.735  0.00  0.00    +0.144 HD
ENDBRANCH  10  13
ENDBRANCH   9  10
ENDBRANCH   1   7
BRANCH   1  16
ATOM     16  S   UNL     1       0.931  -4.291  -0.751  0.00  0.00    +0.073 S 
ATOM     17  O   UNL     1       0.418  -5.529  -0.279  0.00  0.00    -0.150 OA
ATOM     18  O   UNL     1       0.783  -3.870  -2.100  0.00  0.00    -0.150 OA
BRANCH  16  19
ATOM     19  C   UNL     1       2.660  -4.300  -0.414  0.00  0.00    +0.115 A 
ATOM     20  C   UNL     1       3.142  -4.951   0.707  0.00  0.00    -0.021 A 
ATOM     21  C   UNL     1       4.499  -4.958   0.972  0.00  0.00    -0.045 A 
ATOM     22  C   UNL     1       5.374  -4.316   0.116  0.00  0.00    +0.007 A 
ATOM     23  C   UNL     1       4.892  -3.666  -1.005  0.00  0.00    -0.045 A 
ATOM     24  C   UNL     1       3.536  -3.662  -1.272  0.00  0.00    -0.021 A 
ATOM     25  C   UNL     1       3.011  -2.958  -2.497  0.00  0.00    +0.046 C 
ATOM     26  C   UNL     1       5.846  -2.965  -1.938  0.00  0.00    +0.044 C 
ATOM     27  C   UNL     1       5.024  -5.667   2.194  0.00  0.00    +0.044 C 
ATOM     28  C   UNL     1       2.188  -5.652   1.640  0.00  0.00    +0.046 C 
ENDBRANCH  16  19
ENDBRANCH   1  16
TORSDOF 5
