REMARK  Name = ZINC59147667
REMARK  7 active torsions:
REMARK  status: ('A' for Active; 'I' for Inactive)
REMARK    1  A    between atoms: C_4  and  N_7
REMARK    2  A    between atoms: N_7  and  C_8
REMARK    3  A    between atoms: C_8  and  N_10
REMARK    4  A    between atoms: N_10  and  N_11
REMARK    5  A    between atoms: N_19  and  C_22
REMARK    6  A    between atoms: C_22  and  C_23
REMARK    7  A    between atoms: C_23  and  N_24
REMARK                            x       y       z     vdW  Elec       q    Type
REMARK                         _______ _______ _______ _____ _____    ______ ____
ROOT
ATOM      1  N   UNL     1       6.022  -1.921   0.134  0.00  0.00    -0.175 NA
ATOM      2  C   UNL     1       7.169  -2.553   0.218  0.00  0.00    +0.153 C 
ATOM      3  C   UNL     1       8.527  -1.961   0.230  0.00  0.00    +0.028 A 
ATOM      4  C   UNL     1       8.996  -0.654   0.162  0.00  0.00    +0.012 A 
ATOM      5  C   UNL     1      10.355  -0.412   0.196  0.00  0.00    +0.001 A 
ATOM      6  C   UNL     1      11.246  -1.467   0.297  0.00  0.00    +0.002 A 
ATOM      7  C   UNL     1      10.789  -2.768   0.365  0.00  0.00    +0.024 A 
ATOM      8  C   UNL     1       9.424  -3.031   0.333  0.00  0.00    +0.046 A 
ATOM      9  N   UNL     1       8.712  -4.224   0.384  0.00  0.00    -0.267 N 
ATOM     10  C   UNL     1       7.387  -4.009   0.327  0.00  0.00    +0.271 C 
ATOM     11  O   UNL     1       6.520  -4.862   0.358  0.00  0.00    -0.268 OA
ENDROOT
BRANCH   1  12
ATOM     12  N   UNL     1       4.822  -2.644   0.143  0.00  0.00    -0.217 N 
ATOM     13  H   UNL     1       4.839  -3.611   0.211  0.00  0.00    +0.176 HD
BRANCH  12  14
ATOM     14  C   UNL     1       3.644  -1.994   0.057  0.00  0.00    +0.154 C 
ATOM     15  S   UNL     1       2.178  -2.877   0.068  0.00  0.00    -0.017 S 
BRANCH  14  16
ATOM     16  N   UNL     1       3.621  -0.650  -0.037  0.00  0.00    -0.296 N 
ATOM     17  H   UNL     1       4.451  -0.156  -0.124  0.00  0.00    +0.154 HD
BRANCH  16  21
ATOM     18  C   UNL     1      -0.014   1.382   0.046  0.00  0.00    +0.000 A 
ATOM     19  C   UNL     1       0.205   0.325   0.910  0.00  0.00    +0.002 A 
ATOM     20  C   UNL     1       1.410  -0.350   0.886  0.00  0.00    +0.023 A 
ATOM     21  C   UNL     1       2.400   0.032  -0.010  0.00  0.00    +0.033 A 
ATOM     22  C   UNL     1       2.176   1.093  -0.877  0.00  0.00    +0.023 A 
ATOM     23  C   UNL     1       0.970   1.765  -0.847  0.00  0.00    +0.002 A 
ENDBRANCH  16  21
ENDBRANCH  14  16
ENDBRANCH  12  14
ENDBRANCH   1  12
BRANCH   9  24
ATOM     24  C   UNL     1       9.328  -5.549   0.493  0.00  0.00    +0.095 C 
BRANCH  24  25
ATOM     25  C   UNL     1       9.490  -5.917   1.970  0.00  0.00    -0.059 C 
BRANCH  25  26
ATOM     26  N   UNL     1      10.107  -7.245   2.079  0.00  0.00    +0.381 N 
ATOM     27  C   UNL     1       9.201  -8.252   1.516  0.00  0.00    -0.079 C 
ATOM     28  C   UNL     1       9.873  -9.627   1.554  0.00  0.00    -0.019 C 
ATOM     29  C   UNL     1      10.203  -9.988   3.005  0.00  0.00    -0.004 C 
ATOM     30  C   UNL     1      11.088  -8.892   3.605  0.00  0.00    -0.019 C 
ATOM     31  C   UNL     1      10.371  -7.545   3.491  0.00  0.00    -0.079 C 
ATOM     32  H   UNL     1      10.977  -7.254   1.566  0.00  0.00    -0.082 HD
ENDBRANCH  25  26
ENDBRANCH  24  25
ENDBRANCH   9  24
TORSDOF 7
