REMARK  Name = ZINC13750047
REMARK  8 active torsions:
REMARK  status: ('A' for Active; 'I' for Inactive)
REMARK    1  A    between atoms: C_1  and  C_2
REMARK    2  A    between atoms: C_2  and  C_4
REMARK    3  A    between atoms: C_2  and  O_30
REMARK    4  A    between atoms: C_4  and  N_5
REMARK    5  A    between atoms: C_8  and  C_19
REMARK    6  A    between atoms: N_12  and  C_13
REMARK    7  A    between atoms: C_19  and  C_20
REMARK    8  A    between atoms: N_22  and  C_23
REMARK                            x       y       z     vdW  Elec       q    Type
REMARK                         _______ _______ _______ _____ _____    ______ ____
ROOT
ATOM      1  N   UNL     1       0.624  -1.962  -1.334  0.00  0.00    -0.247 N 
ATOM      2  C   UNL     1       1.580  -2.677  -0.765  0.00  0.00    +0.235 C 
ATOM      3  O   UNL     1       2.518  -2.161  -0.195  0.00  0.00    -0.274 OA
ATOM      4  C   UNL     1       1.429  -4.186  -0.869  0.00  0.00    +0.149 C 
ATOM      5  S   UNL     1      -0.145  -4.295  -1.817  0.00  0.00    -0.077 S 
ATOM      6  C   UNL     1      -0.449  -2.542  -1.978  0.00  0.00    +0.164 C 
ATOM      7  N   UNL     1      -1.456  -1.945  -2.572  0.00  0.00    -0.226 NA
ENDROOT
BRANCH   7   8
ATOM      8  C   UNL     1      -2.439  -2.690  -3.166  0.00  0.00    +0.067 A 
ATOM      9  C   UNL     1      -2.104  -3.784  -3.966  0.00  0.00    +0.028 A 
ATOM     10  C   UNL     1      -3.100  -4.530  -4.561  0.00  0.00    +0.002 A 
ATOM     11  C   UNL     1      -4.429  -4.197  -4.366  0.00  0.00    +0.000 A 
ATOM     12  C   UNL     1      -4.768  -3.114  -3.575  0.00  0.00    +0.002 A 
ATOM     13  C   UNL     1      -3.783  -2.363  -2.969  0.00  0.00    +0.028 A 
ENDBRANCH   7   8
BRANCH   1  14
ATOM     14  C   UNL     1       0.704  -0.501  -1.272  0.00  0.00    +0.146 C 
BRANCH  14  16
ATOM     15  C   UNL     1      -0.032   1.526  -0.010  0.00  0.00    +0.039 C 
ATOM     16  C   UNL     1      -0.007  -0.004  -0.011  0.00  0.00    +0.129 C 
BRANCH  16  17
ATOM     17  O   UNL     1       0.692  -0.470   1.145  0.00  0.00    -0.390 OA
ATOM     18  H   UNL     1       0.296  -0.193   1.982  0.00  0.00    +0.210 HD
ENDBRANCH  16  17
ENDBRANCH  14  16
ENDBRANCH   1  14
BRANCH   4  19
ATOM     19  C   UNL     1       2.591  -4.807  -1.647  0.00  0.00    +0.120 C 
BRANCH  19  20
ATOM     20  C   UNL     1       2.467  -6.309  -1.621  0.00  0.00    +0.219 C 
ATOM     21  O   UNL     1       1.541  -6.831  -1.037  0.00  0.00    -0.275 OA
ATOM     22  N   UNL     1       3.386  -7.071  -2.247  0.00  0.00    -0.285 N 
ATOM     23  H   UNL     1       4.088  -6.654  -2.769  0.00  0.00    +0.155 HD
BRANCH  22  24
ATOM     24  C   UNL     1       3.326  -8.466  -2.142  0.00  0.00    +0.033 A 
ATOM     25  C   UNL     1       4.498  -9.210  -2.092  0.00  0.00    +0.025 A 
ATOM     26  C   UNL     1       4.436 -10.586  -1.989  0.00  0.00    +0.022 A 
ATOM     27  C   UNL     1       3.209 -11.223  -1.934  0.00  0.00    +0.041 A 
ATOM     28  C   UNL     1       2.040 -10.483  -1.983  0.00  0.00    +0.022 A 
ATOM     29  C   UNL     1       2.096  -9.107  -2.081  0.00  0.00    +0.025 A 
ATOM     30 CL   UNL     1       3.135 -12.952  -1.805  0.00  0.00    -0.084 Cl
ENDBRANCH  22  24
ENDBRANCH  19  20
ENDBRANCH   4  19
TORSDOF 7
