REMARK  Name = ZINC04698856
REMARK  3 active torsions:
REMARK  status: ('A' for Active; 'I' for Inactive)
REMARK    1  A    between atoms: C_10  and  N_11
REMARK    2  A    between atoms: C_15  and  C_16
REMARK    3  A    between atoms: C_19  and  O_22
REMARK                            x       y       z     vdW  Elec       q    Type
REMARK                         _______ _______ _______ _____ _____    ______ ____
ROOT
ATOM      1  N   UNL     1       7.267   4.637   2.617  0.00  0.00    -0.214 N 
ATOM      2  C   UNL     1       6.926   4.397   1.362  0.00  0.00    +0.263 C 
ATOM      3  O   UNL     1       7.628   4.751   0.433  0.00  0.00    -0.269 OA
ATOM      4  C   UNL     1       5.656   3.681   1.138  0.00  0.00    +0.078 C 
ATOM      5  C   UNL     1       5.072   3.309  -0.029  0.00  0.00    +0.028 C 
ATOM      6  S   UNL     1       5.089   3.441   2.816  0.00  0.00    -0.049 S 
ATOM      7  C   UNL     1       6.454   4.226   3.657  0.00  0.00    +0.165 C 
ATOM      8  N   UNL     1       6.637   4.379   4.939  0.00  0.00    -0.279 NA
ATOM      9  H   UNL     1       5.980   4.039   5.566  0.00  0.00    +0.189 HD
ENDROOT
BRANCH   1  19
ATOM     10  C   UNL     1      12.042   3.223   3.445  0.00  0.00    +0.001 A 
ATOM     11  C   UNL     1      10.865   2.530   3.170  0.00  0.00    +0.001 A 
ATOM     12  C   UNL     1       9.689   3.192   2.988  0.00  0.00    +0.010 A 
ATOM     13  C   UNL     1       9.659   4.593   3.078  0.00  0.00    +0.004 A 
ATOM     14  C   UNL     1      10.855   5.298   3.358  0.00  0.00    -0.016 A 
ATOM     15  C   UNL     1      12.050   4.580   3.540  0.00  0.00    +0.008 A 
ATOM     16  C   UNL     1      10.827   6.700   3.448  0.00  0.00    +0.008 A 
ATOM     17  C   UNL     1       9.655   7.369   3.266  0.00  0.00    +0.002 A 
ATOM     18  C   UNL     1       8.475   6.687   2.985  0.00  0.00    +0.024 A 
ATOM     19  C   UNL     1       8.460   5.312   2.894  0.00  0.00    +0.051 A 
ENDBRANCH   1  19
BRANCH   5  20
ATOM     20  C   UNL     1       3.712   2.753  -0.025  0.00  0.00    -0.024 A 
ATOM     21  C   UNL     1       2.948   2.772   1.148  0.00  0.00    +0.011 A 
ATOM     22  C   UNL     1       1.675   2.250   1.146  0.00  0.00    +0.046 A 
ATOM     23  C   UNL     1       1.146   1.705  -0.019  0.00  0.00    +0.117 A 
ATOM     24  C   UNL     1       1.902   1.678  -1.185  0.00  0.00    +0.046 A 
ATOM     25  C   UNL     1       3.176   2.202  -1.195  0.00  0.00    +0.011 A 
BRANCH  23  26
ATOM     26  O   UNL     1      -0.110   1.191  -0.016  0.00  0.00    -0.507 OA
ATOM     27  H   UNL     1      -0.798   1.833  -0.238  0.00  0.00    +0.292 HD
ENDBRANCH  23  26
ENDBRANCH   5  20
TORSDOF 3
