REMARK  Name = ZINC52727959
REMARK  5 active torsions:
REMARK  status: ('A' for Active; 'I' for Inactive)
REMARK    1  A    between atoms: C_4  and  N_18
REMARK    2  A    between atoms: C_6  and  C_7
REMARK    3  A    between atoms: C_7  and  O_8
REMARK    4  A    between atoms: O_8  and  C_9
REMARK    5  A    between atoms: N_18  and  N_19
REMARK                            x       y       z     vdW  Elec       q    Type
REMARK                         _______ _______ _______ _____ _____    ______ ____
ROOT
ATOM      1  C   UNL     1      -0.017   1.384   0.010  0.00  0.00    +0.027 A 
ATOM      2  C   UNL     1       1.178   2.077   0.002  0.00  0.00    +0.113 A 
ATOM      3  N   UNL     1       2.331   1.436  -0.013  0.00  0.00    -0.239 NA
ATOM      4  C   UNL     1       2.391   0.113  -0.020  0.00  0.00    +0.132 A 
ATOM      5  C   UNL     1       1.227  -0.648  -0.014  0.00  0.00    +0.051 A 
ATOM      6  C   UNL     1       0.002  -0.004   0.002  0.00  0.00    -0.006 A 
ENDROOT
BRANCH   4   7
ATOM      7  N   UNL     1       3.628  -0.520  -0.035  0.00  0.00    -0.268 N 
ATOM      8  H   UNL     1       3.677  -1.489  -0.041  0.00  0.00    +0.167 HD
BRANCH   7   9
ATOM      9  N   UNL     1       4.775   0.221  -0.042  0.00  0.00    -0.255 NA
ATOM     10  H   UNL     1       4.801   0.855   0.742  0.00  0.00    +0.140 HD
ATOM     11  H   UNL     1       5.590  -0.373  -0.053  0.00  0.00    +0.140 HD
ENDBRANCH   7   9
ENDBRANCH   4   7
BRANCH   6  12
ATOM     12  C   UNL     1      -1.282  -0.792   0.011  0.00  0.00    +0.264 C 
BRANCH  12  13
ATOM     13  O   UNL     1      -1.702  -1.034  -1.334  0.00  0.00    -0.485 OA
BRANCH  13  14
ATOM     14  C   UNL     1      -2.852  -1.738  -1.504  0.00  0.00    +0.149 A 
ATOM     15  C   UNL     1      -2.813  -3.122  -1.598  0.00  0.00    +0.062 A 
ATOM     16  C   UNL     1      -3.984  -3.835  -1.771  0.00  0.00    +0.034 A 
ATOM     17  C   UNL     1      -5.195  -3.171  -1.852  0.00  0.00    +0.020 A 
ATOM     18  C   UNL     1      -5.237  -1.791  -1.759  0.00  0.00    +0.034 A 
ATOM     19  C   UNL     1      -4.069  -1.074  -1.580  0.00  0.00    +0.062 A 
ATOM     20 BR   UNL     1      -4.127   0.812  -1.446  0.00  0.00    -0.046 Br
ATOM     21 BR   UNL     1      -6.795  -4.149  -2.090  0.00  0.00    -0.050 Br
ATOM     22 BR   UNL     1      -1.159  -4.031  -1.488  0.00  0.00    -0.046 Br
ENDBRANCH  13  14
ENDBRANCH  12  13
ENDBRANCH   6  12
TORSDOF 5
