REMARK  Name = ZINC05026027
REMARK  4 active torsions:
REMARK  status: ('A' for Active; 'I' for Inactive)
REMARK    1  A    between atoms: C_1  and  C_2
REMARK    2  A    between atoms: C_2  and  C_24
REMARK    3  A    between atoms: C_9  and  O_21
REMARK    4  A    between atoms: C_11  and  C_14
REMARK                            x       y       z     vdW  Elec       q    Type
REMARK                         _______ _______ _______ _____ _____    ______ ____
ROOT
ATOM      1  C   UNL     1      -0.019   1.526   0.010  0.00  0.00    +0.041 C 
ATOM      2  C   UNL     1       0.002  -0.004   0.002  0.00  0.00    +0.068 C 
ATOM      3  C   UNL     1       0.704  -0.495  -1.268  0.00  0.00    +0.071 C 
ATOM      4  C   UNL     1       0.926  -1.996  -1.132  0.00  0.00    -0.018 A 
ATOM      5  C   UNL     1       0.850  -2.583   0.087  0.00  0.00    +0.021 A 
ATOM      6  S   UNL     1       1.168  -4.296  -0.217  0.00  0.00    -0.075 S 
ATOM      7  C   UNL     1       1.394  -4.246  -1.859  0.00  0.00    +0.080 A 
ATOM      8  C   UNL     1       1.224  -2.903  -2.221  0.00  0.00    +0.068 A 
ATOM      9  C   UNL     1       1.357  -2.561  -3.661  0.00  0.00    +0.220 C 
ATOM     10  N   UNL     1       1.864  -3.465  -4.455  0.00  0.00    -0.223 NA
ATOM     11  C   UNL     1       2.367  -4.761  -4.017  0.00  0.00    +0.224 C 
ATOM     12  N   UNL     1       1.694  -5.217  -2.787  0.00  0.00    -0.313 N 
ATOM     13  C   UNL     1       0.558  -1.889   1.380  0.00  0.00    +0.203 C 
ATOM     14  O   UNL     1       0.694  -0.475   1.161  0.00  0.00    -0.368 OA
ATOM     15  C   UNL     1      -1.434  -0.531   0.020  0.00  0.00    +0.041 C 
ATOM     16  H   UNL     1       1.474  -6.151  -2.640  0.00  0.00    +0.149 HD
ENDROOT
BRANCH  11  17
ATOM     17  C   UNL     1       3.847  -4.651  -3.754  0.00  0.00    -0.005 A 
ATOM     18  C   UNL     1       4.441  -5.458  -2.802  0.00  0.00    +0.008 A 
ATOM     19  C   UNL     1       5.798  -5.358  -2.561  0.00  0.00    +0.015 A 
ATOM     20  C   UNL     1       6.562  -4.451  -3.273  0.00  0.00    +0.018 A 
ATOM     21  C   UNL     1       5.967  -3.644  -4.226  0.00  0.00    +0.015 A 
ATOM     22  C   UNL     1       4.611  -3.748  -4.470  0.00  0.00    +0.008 A 
ATOM     23 BR   UNL     1       8.419  -4.314  -2.943  0.00  0.00    -0.050 Br
ENDBRANCH  11  17
BRANCH   9  24
ATOM     24  O   UNL     1       0.967  -1.354  -4.132  0.00  0.00    -0.492 OA
ATOM     25  H   UNL     1       1.100  -1.242  -5.084  0.00  0.00    +0.294 HD
ENDBRANCH   9  24
TORSDOF 2
