REMARK  Name = ZINC35668829
REMARK  3 active torsions:
REMARK  status: ('A' for Active; 'I' for Inactive)
REMARK    1  A    between atoms: C_2  and  C_10
REMARK    2  A    between atoms: C_6  and  O_7
REMARK    3  A    between atoms: C_22  and  O_24
REMARK                            x       y       z     vdW  Elec       q    Type
REMARK                         _______ _______ _______ _____ _____    ______ ____
ROOT
ATOM      1  C   UNL     1       1.151   3.596   0.010  0.00  0.00    +0.225 C 
ATOM      2  N   UNL     1       2.236   4.087   0.879  0.00  0.00    -0.313 N 
ATOM      3  C   UNL     1       1.961   4.140   2.227  0.00  0.00    +0.080 A 
ATOM      4  C   UNL     1       0.652   4.253   2.711  0.00  0.00    +0.068 A 
ATOM      5  C   UNL     1       0.517   4.284   4.156  0.00  0.00    -0.023 A 
ATOM      6  C   UNL     1       1.687   4.206   4.831  0.00  0.00    -0.005 A 
ATOM      7  S   UNL     1       2.929   4.093   3.572  0.00  0.00    -0.078 S 
ATOM      8  C   UNL     1       1.873   4.214   6.316  0.00  0.00    +0.043 C 
ATOM      9  C   UNL     1       0.568   4.702   6.963  0.00  0.00    +0.005 C 
ATOM     10  C   UNL     1      -0.607   3.943   6.341  0.00  0.00    +0.005 C 
ATOM     11  C   UNL     1      -0.810   4.394   4.893  0.00  0.00    +0.037 C 
ATOM     12  C   UNL     1      -0.444   4.337   1.711  0.00  0.00    +0.220 C 
ATOM     13  N   UNL     1      -0.154   4.051   0.472  0.00  0.00    -0.223 NA
ATOM     14  H   UNL     1       3.095   4.358   0.520  0.00  0.00    +0.149 HD
ENDROOT
BRANCH   1  16
ATOM     15  C   UNL     1       0.328   1.383   0.839  0.00  0.00    +0.055 A 
ATOM     16  C   UNL     1       1.171   2.089   0.002  0.00  0.00    +0.012 A 
ATOM     17  C   UNL     1       2.033   1.414  -0.843  0.00  0.00    +0.026 A 
ATOM     18  C   UNL     1       2.054   0.030  -0.853  0.00  0.00    +0.034 A 
ATOM     19  C   UNL     1       1.212  -0.680  -0.018  0.00  0.00    +0.060 A 
ATOM     20  C   UNL     1       0.346  -0.004   0.831  0.00  0.00    +0.131 A 
ATOM     21 BR   UNL     1       1.239  -2.571  -0.032  0.00  0.00    -0.046 Br
ATOM     22 BR   UNL     1       3.185   2.383  -1.987  0.00  0.00    -0.050 Br
BRANCH  20  23
ATOM     23  O   UNL     1      -0.482  -0.700   1.654  0.00  0.00    -0.506 OA
ATOM     24  H   UNL     1      -1.342  -0.906   1.263  0.00  0.00    +0.292 HD
ENDBRANCH  20  23
ENDBRANCH   1  16
BRANCH  12  25
ATOM     25  O   UNL     1      -1.697   4.696   2.074  0.00  0.00    -0.492 OA
ATOM     26  H   UNL     1      -2.328   4.717   1.342  0.00  0.00    +0.294 HD
ENDBRANCH  12  25
TORSDOF 3
