REMARK  Name = ZINC63303541
REMARK  9 active torsions:
REMARK  status: ('A' for Active; 'I' for Inactive)
REMARK    1  A    between atoms: C_1  and  C_2
REMARK    2  A    between atoms: C_6  and  C_7
REMARK    3  A    between atoms: C_7  and  N_8
REMARK    4  A    between atoms: N_11  and  C_12
REMARK    5  A    between atoms: C_12  and  C_13
REMARK    6  A    between atoms: C_13  and  C_14
REMARK    7  A    between atoms: C_13  and  O_24
REMARK    8  A    between atoms: C_14  and  O_15
REMARK    9  A    between atoms: O_15  and  C_16
REMARK                            x       y       z     vdW  Elec       q    Type
REMARK                         _______ _______ _______ _____ _____    ______ ____
ROOT
ATOM      1  C   UNL     1      -3.118   1.056   6.088  0.00  0.00    +0.140 C 
ENDROOT
BRANCH   1   5
ATOM      2  N   UNL     1      -1.349  -0.028   3.053  0.00  0.00    -0.295 N 
ATOM      3  C   UNL     1      -1.589   0.425   4.299  0.00  0.00    +0.300 C 
ATOM      4  O   UNL     1      -0.661   0.710   5.032  0.00  0.00    -0.253 OA
ATOM      5  N   UNL     1      -2.857   0.564   4.733  0.00  0.00    -0.297 N 
ATOM      6  H   UNL     1      -2.089  -0.255   2.468  0.00  0.00    +0.151 HD
ATOM      7  H   UNL     1      -3.598   0.337   4.149  0.00  0.00    +0.150 HD
BRANCH   2   8
ATOM      8  C   UNL     1       0.030  -0.179   2.581  0.00  0.00    +0.148 C 
BRANCH   8  14
ATOM      9  C   UNL     1      -0.018   1.503   0.010  0.00  0.00    +0.044 C 
ATOM     10  C   UNL     1       0.002  -0.004   0.002  0.00  0.00    -0.039 A 
ATOM     11  C   UNL     1       0.006  -0.699  -1.193  0.00  0.00    +0.011 A 
ATOM     12  C   UNL     1       0.024  -2.054  -1.165  0.00  0.00    +0.046 A 
ATOM     13  S   UNL     1       0.037  -2.387   0.589  0.00  0.00    -0.100 S 
ATOM     14  C   UNL     1       0.023  -0.698   1.166  0.00  0.00    +0.010 A 
ENDBRANCH   8  14
ENDBRANCH   2   8
ENDBRANCH   1   5
BRANCH   1  15
ATOM     15  C   UNL     1      -4.628   1.119   6.326  0.00  0.00    +0.169 C 
BRANCH  15  16
ATOM     16  O   UNL     1      -5.171  -0.203   6.294  0.00  0.00    -0.387 OA
ATOM     17  H   UNL     1      -4.801  -0.796   6.962  0.00  0.00    +0.210 HD
ENDBRANCH  15  16
BRANCH  15  18
ATOM     18  C   UNL     1      -4.904   1.750   7.692  0.00  0.00    +0.262 C 
BRANCH  18  19
ATOM     19  O   UNL     1      -6.313   1.915   7.866  0.00  0.00    -0.488 OA
BRANCH  19  20
ATOM     20  C   UNL     1      -6.730   2.466   9.036  0.00  0.00    +0.140 A 
ATOM     21  C   UNL     1      -5.802   2.846   9.995  0.00  0.00    +0.047 A 
ATOM     22  C   UNL     1      -6.228   3.407  11.183  0.00  0.00    +0.005 A 
ATOM     23  C   UNL     1      -7.578   3.590  11.419  0.00  0.00    +0.022 A 
ATOM     24  C   UNL     1      -8.507   3.212  10.465  0.00  0.00    +0.063 A 
ATOM     25  C   UNL     1      -8.085   2.656   9.271  0.00  0.00    +0.101 A 
ATOM     26 CL   UNL     1      -9.248   2.188   8.070  0.00  0.00    -0.078 Cl
ATOM     27 CL   UNL     1     -10.201   3.442  10.765  0.00  0.00    -0.082 Cl
ENDBRANCH  19  20
ENDBRANCH  18  19
ENDBRANCH  15  18
ENDBRANCH   1  15
TORSDOF 8
