REMARK  Name = ZINC40568880
REMARK  8 active torsions:
REMARK  status: ('A' for Active; 'I' for Inactive)
REMARK    1  A    between atoms: C_1  and  C_2
REMARK    2  A    between atoms: C_6  and  C_8
REMARK    3  A    between atoms: C_8  and  N_9
REMARK    4  A    between atoms: C_20  and  C_33
REMARK    5  A    between atoms: C_26  and  N_32
REMARK    6  A    between atoms: C_27  and  C_28
REMARK    7  A    between atoms: C_28  and  O_30
REMARK    8  A    between atoms: O_30  and  C_31
REMARK                            x       y       z     vdW  Elec       q    Type
REMARK                         _______ _______ _______ _____ _____    ______ ____
ROOT
ATOM      1  N   UNL     1       1.576  -3.400   2.793  0.00  0.00    -0.265 N 
ATOM      2  C   UNL     1       2.406  -4.477   2.540  0.00  0.00    +0.041 A 
ATOM      3  C   UNL     1       2.155  -5.636   1.803  0.00  0.00    +0.024 A 
ATOM      4  C   UNL     1       3.180  -6.563   1.710  0.00  0.00    +0.002 A 
ATOM      5  C   UNL     1       4.404  -6.362   2.315  0.00  0.00    +0.000 A 
ATOM      6  C   UNL     1       4.668  -5.213   3.052  0.00  0.00    +0.007 A 
ATOM      7  C   UNL     1       3.652  -4.285   3.149  0.00  0.00    -0.002 A 
ATOM      8  C   UNL     1       3.578  -2.963   3.842  0.00  0.00    +0.142 C 
ATOM      9  C   UNL     1       2.184  -2.458   3.544  0.00  0.00    +0.240 C 
ATOM     10  O   UNL     1       1.704  -1.407   3.912  0.00  0.00    -0.274 OA
ATOM     11  C   UNL     1       4.604  -2.006   3.306  0.00  0.00    +0.061 A 
ATOM     12  C   UNL     1       4.684  -1.397   2.061  0.00  0.00    +0.068 A 
ATOM     13  N   UNL     1       5.756  -0.640   2.044  0.00  0.00    -0.176 NA
ATOM     14  N   UNL     1       6.393  -0.747   3.290  0.00  0.00    -0.246 N 
ATOM     15  H   UNL     1       7.209  -0.293   3.555  0.00  0.00    +0.192 HD
ATOM     16  C   UNL     1       5.674  -1.587   4.051  0.00  0.00    +0.223 A 
ATOM     17  O   UNL     1       5.886  -2.004   5.323  0.00  0.00    -0.424 OA
ATOM     18  C   UNL     1       4.882  -2.641   5.955  0.00  0.00    +0.198 C 
ATOM     19  C   UNL     1       3.776  -3.113   5.326  0.00  0.00    +0.117 C 
ATOM     20  C   UNL     1       3.710  -1.576   0.925  0.00  0.00    +0.068 C 
ENDROOT
BRANCH  18  21
ATOM     21  N   UNL     1       4.982  -2.823   7.309  0.00  0.00    -0.329 N 
ATOM     22  H   UNL     1       5.795  -2.571   7.773  0.00  0.00    +0.145 HD
ATOM     23  H   UNL     1       4.239  -3.204   7.803  0.00  0.00    +0.145 HD
ENDBRANCH  18  21
BRANCH  19  24
ATOM     24  C   UNL     1       2.788  -3.760   6.082  0.00  0.00    +0.341 C 
ATOM     25  O   UNL     1       2.729  -4.977   6.093  0.00  0.00    -0.245 OA
BRANCH  24  26
ATOM     26  O   UNL     1       1.901  -3.035   6.796  0.00  0.00    -0.465 OA
ATOM     27  C   UNL     1       0.921  -3.760   7.543  0.00  0.00    +0.280 C 
ENDBRANCH  24  26
ENDBRANCH  19  24
BRANCH   1  28
ATOM     28  C   UNL     1       0.201  -3.291   2.299  0.00  0.00    +0.148 C 
BRANCH  28  34
ATOM     29  C   UNL     1      -0.019   0.873  -0.468  0.00  0.00    +0.044 C 
ATOM     30  C   UNL     1       0.097  -0.627  -0.374  0.00  0.00    -0.050 A 
ATOM     31  C   UNL     1       0.206  -1.385  -1.524  0.00  0.00    +0.003 A 
ATOM     32  C   UNL     1       0.313  -2.761  -1.437  0.00  0.00    +0.001 A 
ATOM     33  C   UNL     1       0.311  -3.377  -0.200  0.00  0.00    +0.005 A 
ATOM     34  C   UNL     1       0.203  -2.619   0.950  0.00  0.00    -0.029 A 
ATOM     35  C   UNL     1       0.101  -1.243   0.864  0.00  0.00    +0.008 A 
ENDBRANCH  28  34
ENDBRANCH   1  28
TORSDOF 5
