REMARK  Name = ZINC04661927
REMARK  4 active torsions:
REMARK  status: ('A' for Active; 'I' for Inactive)
REMARK    1  A    between atoms: C_4  and  N_7
REMARK    2  A    between atoms: C_11  and  C_12
REMARK    3  A    between atoms: C_15  and  O_19
REMARK    4  A    between atoms: C_17  and  O_18
REMARK                            x       y       z     vdW  Elec       q    Type
REMARK                         _______ _______ _______ _____ _____    ______ ____
ROOT
ATOM      1  N   UNL     1      -0.069   5.254  -0.403  0.00  0.00    -0.224 N 
ATOM      2  C   UNL     1      -1.228   5.890  -0.394  0.00  0.00    +0.263 C 
ATOM      3  O   UNL     1      -2.281   5.301  -0.556  0.00  0.00    -0.269 OA
ATOM      4  C   UNL     1      -1.181   7.347  -0.176  0.00  0.00    +0.078 C 
ATOM      5  C   UNL     1      -2.198   8.247  -0.118  0.00  0.00    +0.031 C 
ATOM      6  S   UNL     1       0.580   7.606  -0.010  0.00  0.00    -0.061 S 
ATOM      7  C   UNL     1       1.096   5.909  -0.217  0.00  0.00    +0.125 C 
ATOM      8  S   UNL     1       2.683   5.269  -0.189  0.00  0.00    -0.027 S 
ENDROOT
BRANCH   1  12
ATOM      9  C   UNL     1      -0.014   1.130  -1.004  0.00  0.00    +0.000 A 
ATOM     10  C   UNL     1      -0.080   1.639   0.280  0.00  0.00    +0.002 A 
ATOM     11  C   UNL     1      -0.092   3.005   0.482  0.00  0.00    +0.024 A 
ATOM     12  C   UNL     1      -0.050   3.867  -0.605  0.00  0.00    +0.043 A 
ATOM     13  C   UNL     1       0.011   3.353  -1.893  0.00  0.00    +0.024 A 
ATOM     14  C   UNL     1       0.029   1.986  -2.089  0.00  0.00    +0.002 A 
ENDBRANCH   1  12
BRANCH   5  15
ATOM     15  C   UNL     1      -3.589   7.783  -0.119  0.00  0.00    +0.018 A 
ATOM     16  C   UNL     1      -3.957   6.662   0.637  0.00  0.00    +0.015 A 
ATOM     17  C   UNL     1      -5.265   6.234   0.637  0.00  0.00    +0.046 A 
ATOM     18  C   UNL     1      -6.222   6.904  -0.119  0.00  0.00    +0.120 A 
ATOM     19  C   UNL     1      -5.868   8.012  -0.876  0.00  0.00    +0.091 A 
ATOM     20  C   UNL     1      -4.558   8.457  -0.882  0.00  0.00    +0.127 A 
BRANCH  20  21
ATOM     21  O   UNL     1      -4.211   9.541  -1.621  0.00  0.00    -0.506 OA
ATOM     22  H   UNL     1      -3.934   9.330  -2.523  0.00  0.00    +0.292 HD
ENDBRANCH  20  21
BRANCH  18  23
ATOM     23  O   UNL     1      -7.509   6.471  -0.117  0.00  0.00    -0.507 OA
ATOM     24  H   UNL     1      -7.706   5.819  -0.804  0.00  0.00    +0.292 HD
ENDBRANCH  18  23
ENDBRANCH   5  15
TORSDOF 4
