REMARK  Name = ZINC52094095
REMARK  2 active torsions:
REMARK  status: ('A' for Active; 'I' for Inactive)
REMARK    1  A    between atoms: C_6  and  C_7
REMARK    2  A    between atoms: C_7  and  C_9
REMARK                            x       y       z     vdW  Elec       q    Type
REMARK                         _______ _______ _______ _____ _____    ______ ____
ROOT
ATOM      1  C   UNL     1      -1.349  -2.235   0.034  0.00  0.00    +0.038 A 
ATOM      2  C   UNL     1      -0.181  -3.001   0.092  0.00  0.00    +0.040 A 
ATOM      3  C   UNL     1      -0.266  -4.380   0.114  0.00  0.00    +0.068 A 
ATOM      4  C   UNL     1      -1.517  -5.005   0.078  0.00  0.00    +0.068 A 
ATOM      5  C   UNL     1      -2.677  -4.242   0.019  0.00  0.00    +0.043 A 
ATOM      6  C   UNL     1      -2.598  -2.867   0.004  0.00  0.00    +0.031 A 
ATOM      7 BR   UNL     1      -4.178  -1.831  -0.066  0.00  0.00    -0.049 Br
ATOM      8  N   UNL     1      -1.283  -6.373   0.112  0.00  0.00    -0.306 N 
ATOM      9  H   UNL     1      -1.962  -7.066   0.099  0.00  0.00    +0.170 HD
ATOM     10  C   UNL     1       0.047  -6.578   0.167  0.00  0.00    +0.325 A 
ATOM     11  O   UNL     1       0.587  -7.667   0.207  0.00  0.00    -0.247 OA
ATOM     12  N   UNL     1       0.689  -5.394   0.169  0.00  0.00    -0.306 N 
ATOM     13  H   UNL     1       1.650  -5.269   0.204  0.00  0.00    +0.170 HD
ENDROOT
BRANCH   1  14
ATOM     14  C   UNL     1      -1.265  -0.763   0.011  0.00  0.00    +0.194 C 
ATOM     15  O   UNL     1      -1.013  -0.152   1.031  0.00  0.00    -0.287 OA
BRANCH  14  21
ATOM     16  C   UNL     1      -1.525   1.366  -1.257  0.00  0.00    +0.013 A 
ATOM     17  C   UNL     1      -1.734   2.043  -2.440  0.00  0.00    +0.016 A 
ATOM     18  C   UNL     1      -1.908   1.342  -3.622  0.00  0.00    +0.018 A 
ATOM     19  C   UNL     1      -1.873  -0.042  -3.624  0.00  0.00    +0.016 A 
ATOM     20  C   UNL     1      -1.665  -0.732  -2.448  0.00  0.00    +0.013 A 
ATOM     21  C   UNL     1      -1.489  -0.031  -1.253  0.00  0.00    +0.022 A 
ATOM     22 BR   UNL     1      -2.195   2.280  -5.239  0.00  0.00    -0.050 Br
ENDBRANCH  14  21
ENDBRANCH   1  14
TORSDOF 2
