REMARK  Name = ZINC10531847
REMARK  8 active torsions:
REMARK  status: ('A' for Active; 'I' for Inactive)
REMARK    1  A    between atoms: C_3  and  N_29
REMARK    2  A    between atoms: C_4  and  N_26
REMARK    3  A    between atoms: C_6  and  C_7
REMARK    4  A    between atoms: C_7  and  O_9
REMARK    5  A    between atoms: O_9  and  C_10
REMARK    6  A    between atoms: C_10  and  C_11
REMARK    7  A    between atoms: N_13  and  C_14
REMARK    8  A    between atoms: C_15  and  C_24
REMARK                            x       y       z     vdW  Elec       q    Type
REMARK                         _______ _______ _______ _____ _____    ______ ____
ROOT
ATOM      1  C   UNL     1      -1.358   1.807   0.950  0.00  0.00    +0.328 C 
ENDROOT
BRANCH   1   2
ATOM      2  C   UNL     1      -0.077   1.034   1.135  0.00  0.00    +0.255 C 
ATOM      3  O   UNL     1      -0.084  -0.177   1.067  0.00  0.00    -0.272 OA
ATOM      4  N   UNL     1       1.077   1.689   1.370  0.00  0.00    -0.276 N 
ATOM      5  H   UNL     1       1.083   2.658   1.424  0.00  0.00    +0.155 HD
BRANCH   4   6
ATOM      6  C   UNL     1       2.257   0.978   1.535  0.00  0.00    +0.090 A 
ATOM      7  C   UNL     1       3.531   1.467   1.775  0.00  0.00    +0.084 A 
ATOM      8  C   UNL     1       4.612   0.502   1.919  0.00  0.00    -0.018 A 
ATOM      9  C   UNL     1       4.244  -0.790   1.780  0.00  0.00    -0.004 A 
ATOM     10  S   UNL     1       2.498  -0.736   1.482  0.00  0.00    -0.077 S 
ATOM     11  C   UNL     1       5.118  -2.003   1.846  0.00  0.00    +0.043 C 
ATOM     12  C   UNL     1       6.001  -1.923   3.099  0.00  0.00    +0.005 C 
ATOM     13  C   UNL     1       7.290  -1.194   2.735  0.00  0.00    +0.001 C 
ATOM     14  C   UNL     1       7.013  -0.135   1.669  0.00  0.00    +0.005 C 
ATOM     15  C   UNL     1       6.049   0.919   2.204  0.00  0.00    +0.037 C 
BRANCH   7  16
ATOM     16  C   UNL     1       3.775   2.874   1.884  0.00  0.00    +0.102 C 
ATOM     17  N   UNL     1       3.969   3.990   1.969  0.00  0.00    -0.191 NA
ENDBRANCH   7  16
ENDBRANCH   4   6
ENDBRANCH   1   2
BRANCH   1  18
ATOM     18  O   UNL     1      -2.450   0.882   0.705  0.00  0.00    -0.452 OA
BRANCH  18  19
ATOM     19  C   UNL     1      -3.673   1.416   0.517  0.00  0.00    +0.340 C 
ATOM     20  O   UNL     1      -3.823   2.621   0.557  0.00  0.00    -0.245 OA
BRANCH  19  26
ATOM     21  C   UNL     1      -4.658  -0.850   0.212  0.00  0.00    +0.017 A 
ATOM     22  C   UNL     1      -5.742  -1.665  -0.020  0.00  0.00    +0.026 A 
ATOM     23  C   UNL     1      -7.003  -1.106  -0.213  0.00  0.00    +0.055 A 
ATOM     24  C   UNL     1      -7.170   0.275  -0.166  0.00  0.00    +0.147 A 
ATOM     25  C   UNL     1      -6.099   1.090   0.069  0.00  0.00    +0.049 A 
ATOM     26  C   UNL     1      -4.829   0.537   0.264  0.00  0.00    +0.061 A 
BRANCH  24  27
ATOM     27  N   UNL     1      -8.513   0.863  -0.372  0.00  0.00    +0.058 N 
ATOM     28  O   UNL     1      -8.644   2.072  -0.445  0.00  0.00    -0.126 OA
ATOM     29  O   UNL     1      -9.487   0.138  -0.468  0.00  0.00    -0.126 OA
ENDBRANCH  24  27
BRANCH  23  30
ATOM     30  N   UNL     1      -8.097  -1.930  -0.453  0.00  0.00    -0.356 N 
ATOM     31  H   UNL     1      -8.866  -1.586  -0.934  0.00  0.00    +0.142 HD
ATOM     32  H   UNL     1      -8.091  -2.847  -0.139  0.00  0.00    +0.142 HD
ENDBRANCH  23  30
ENDBRANCH  19  26
ENDBRANCH  18  19
ENDBRANCH   1  18
TORSDOF 8
