REMARK  Name = ZINC50416877
REMARK  7 active torsions:
REMARK  status: ('A' for Active; 'I' for Inactive)
REMARK    1  A    between atoms: C_1  and  C_2
REMARK    2  A    between atoms: C_2  and  C_4
REMARK    3  A    between atoms: C_2  and  N_10
REMARK    4  A    between atoms: N_8  and  C_9
REMARK    5  A    between atoms: N_10  and  S_11
REMARK    6  A    between atoms: S_11  and  C_14
REMARK    7  A    between atoms: C_19  and  N_20
REMARK                            x       y       z     vdW  Elec       q    Type
REMARK                         _______ _______ _______ _____ _____    ______ ____
ROOT
ATOM      1  S   UNL     1      -0.126  -0.789   2.622  0.00  0.00    +0.061 S 
ATOM      2  O   UNL     1       0.751  -1.125   3.688  0.00  0.00    -0.153 OA
ATOM      3  O   UNL     1      -1.010   0.322   2.683  0.00  0.00    -0.153 OA
ENDROOT
BRANCH   1   4
ATOM      4  C   UNL     1      -1.124  -2.211   2.323  0.00  0.00    +0.126 A 
ATOM      5  C   UNL     1      -2.497  -2.085   2.235  0.00  0.00    +0.031 A 
ATOM      6  C   UNL     1      -3.281  -3.200   2.001  0.00  0.00    +0.017 A 
ATOM      7  C   UNL     1      -2.694  -4.444   1.854  0.00  0.00    +0.020 A 
ATOM      8  C   UNL     1      -1.321  -4.576   1.942  0.00  0.00    +0.040 A 
ATOM      9  C   UNL     1      -0.531  -3.457   2.171  0.00  0.00    +0.052 A 
ATOM     10 BR   UNL     1      -3.771  -5.965   1.535  0.00  0.00    -0.050 Br
BRANCH   9  11
ATOM     11  N   UNL     1       0.858  -3.586   2.254  0.00  0.00    -0.356 N 
ATOM     12  H   UNL     1       1.414  -2.796   2.336  0.00  0.00    +0.142 HD
ATOM     13  H   UNL     1       1.265  -4.466   2.231  0.00  0.00    +0.142 HD
ENDBRANCH   9  11
ENDBRANCH   1   4
BRANCH   1  14
ATOM     14  N   UNL     1       0.821  -0.567   1.282  0.00  0.00    -0.180 NA
ATOM     15  H   UNL     1       1.785  -0.655   1.349  0.00  0.00    +0.149 HD
BRANCH  14  17
ATOM     16  C   UNL     1       0.225   1.280  -0.206  0.00  0.00    +0.034 C 
ATOM     17  C   UNL     1       0.204  -0.236  -0.005  0.00  0.00    +0.141 C 
BRANCH  17  18
ATOM     18  C   UNL     1       0.975  -0.901  -1.117  0.00  0.00    +0.151 A 
ATOM     19  N   UNL     1       2.273  -0.942  -1.241  0.00  0.00    -0.133 NA
ATOM     20  N   UNL     1       2.586  -1.592  -2.306  0.00  0.00    -0.138 NA
ATOM     21  C   UNL     1       1.501  -1.994  -2.909  0.00  0.00    +0.224 A 
ATOM     22  N   UNL     1       0.447  -1.572  -2.169  0.00  0.00    -0.319 N 
ATOM     23  C   UNL     1      -0.973  -1.794  -2.451  0.00  0.00    +0.151 C 
ENDBRANCH  17  18
ENDBRANCH  14  17
ENDBRANCH   1  14
TORSDOF 5
