REMARK  Name = ZINC05604982
REMARK  3 active torsions:
REMARK  status: ('A' for Active; 'I' for Inactive)
REMARK    1  A    between atoms: C_10  and  C_11
REMARK    2  A    between atoms: N_12  and  C_13
REMARK    3  A    between atoms: C_14  and  C_22
REMARK                            x       y       z     vdW  Elec       q    Type
REMARK                         _______ _______ _______ _____ _____    ______ ____
ROOT
ATOM      1  C   UNL     1       6.148   2.069  -0.146  0.00  0.00    +0.114 A 
ATOM      2  C   UNL     1       6.369   3.449  -0.230  0.00  0.00    +0.072 A 
ATOM      3  C   UNL     1       7.694   3.919  -0.219  0.00  0.00    -0.023 A 
ATOM      4  C   UNL     1       8.675   2.986  -0.128  0.00  0.00    -0.004 A 
ATOM      5  S   UNL     1       7.816   1.438  -0.044  0.00  0.00    -0.073 S 
ATOM      6  C   UNL     1      10.153   3.222  -0.098  0.00  0.00    +0.043 C 
ATOM      7  C   UNL     1      10.424   4.661  -0.559  0.00  0.00    +0.005 C 
ATOM      8  C   UNL     1       9.476   5.602   0.191  0.00  0.00    +0.005 C 
ATOM      9  C   UNL     1       8.044   5.402  -0.305  0.00  0.00    +0.037 C 
ENDROOT
BRANCH   2  10
ATOM     10  C   UNL     1       5.243   4.384  -0.328  0.00  0.00    +0.244 C 
ATOM     11  O   UNL     1       4.743   4.842   0.683  0.00  0.00    -0.270 OA
ATOM     12  N   UNL     1       4.763   4.737  -1.536  0.00  0.00    -0.325 N 
ATOM     13  H   UNL     1       5.161   4.372  -2.342  0.00  0.00    +0.145 HD
ATOM     14  H   UNL     1       4.018   5.355  -1.601  0.00  0.00    +0.145 HD
ENDBRANCH   2  10
BRANCH   1  16
ATOM     15  C   UNL     1       4.981   0.087  -0.046  0.00  0.00    +0.120 C 
ATOM     16  N   UNL     1       4.980   1.393  -0.138  0.00  0.00    -0.247 NA
BRANCH  15  26
ATOM     17  C   UNL     1      -0.016   1.357   0.039  0.00  0.00    +0.001 A 
ATOM     18  C   UNL     1       1.168   2.091   0.032  0.00  0.00    +0.001 A 
ATOM     19  C   UNL     1       2.379   1.465   0.007  0.00  0.00    +0.009 A 
ATOM     20  C   UNL     1       2.435   0.067  -0.011  0.00  0.00    -0.009 A 
ATOM     21  C   UNL     1       1.233  -0.682  -0.003  0.00  0.00    -0.017 A 
ATOM     22  C   UNL     1       0.002  -0.004   0.022  0.00  0.00    +0.008 A 
ATOM     23  C   UNL     1       1.294  -2.086  -0.021  0.00  0.00    +0.008 A 
ATOM     24  C   UNL     1       2.493  -2.731  -0.044  0.00  0.00    +0.001 A 
ATOM     25  C   UNL     1       3.696  -2.040  -0.052  0.00  0.00    +0.010 A 
ATOM     26  C   UNL     1       3.712  -0.647  -0.037  0.00  0.00    +0.001 A 
ENDBRANCH  15  26
ENDBRANCH   1  16
TORSDOF 3
