REMARK  Name = ZINC33225971
REMARK  7 active torsions:
REMARK  status: ('A' for Active; 'I' for Inactive)
REMARK    1  A    between atoms: C_1  and  C_2
REMARK    2  A    between atoms: C_2  and  C_4
REMARK    3  A    between atoms: C_2  and  O_17
REMARK    4  A    between atoms: N_6  and  N_7
REMARK    5  A    between atoms: C_8  and  C_10
REMARK    6  A    between atoms: C_15  and  O_16
REMARK    7  A    between atoms: O_17  and  C_18
REMARK                            x       y       z     vdW  Elec       q    Type
REMARK                         _______ _______ _______ _____ _____    ______ ____
ROOT
ATOM      1  C   UNL     1      -1.424  -0.753  -0.044  0.00  0.00    +0.270 C 
ATOM      2  O   UNL     1      -1.833  -1.194  -1.098  0.00  0.00    -0.270 OA
ATOM      3  N   UNL     1      -2.231  -0.732   1.035  0.00  0.00    -0.231 N 
ATOM      4  H   UNL     1      -1.904  -0.380   1.878  0.00  0.00    +0.173 HD
ENDROOT
BRANCH   3   5
ATOM      5  N   UNL     1      -3.541  -1.219   0.940  0.00  0.00    -0.230 N 
ATOM      6  C   UNL     1      -4.348  -1.197   2.020  0.00  0.00    +0.264 C 
ATOM      7  O   UNL     1      -3.938  -0.756   3.076  0.00  0.00    -0.269 OA
ATOM      8  H   UNL     1      -3.868  -1.571   0.098  0.00  0.00    +0.173 HD
BRANCH   6   9
ATOM      9  C   UNL     1      -5.728  -1.710   1.920  0.00  0.00    +0.079 A 
ATOM     10  C   UNL     1      -6.200  -2.224   0.710  0.00  0.00    +0.017 A 
ATOM     11  C   UNL     1      -7.490  -2.701   0.623  0.00  0.00    +0.001 A 
ATOM     12  C   UNL     1      -8.322  -2.674   1.731  0.00  0.00    +0.004 A 
ATOM     13  C   UNL     1      -7.867  -2.168   2.933  0.00  0.00    +0.046 A 
ATOM     14  C   UNL     1      -6.570  -1.690   3.040  0.00  0.00    +0.129 A 
BRANCH  14  15
ATOM     15  O   UNL     1      -6.120  -1.199   4.222  0.00  0.00    -0.506 OA
ATOM     16  H   UNL     1      -6.272  -0.251   4.338  0.00  0.00    +0.292 HD
ENDBRANCH  14  15
ENDBRANCH   6   9
ENDBRANCH   3   5
BRANCH   1  18
ATOM     17  C   UNL     1      -0.048   1.273   0.344  0.00  0.00    +0.062 C 
ATOM     18  C   UNL     1      -0.015  -0.230   0.058  0.00  0.00    +0.257 C 
BRANCH  18  19
ATOM     19  O   UNL     1       0.671  -0.465  -1.174  0.00  0.00    -0.479 OA
BRANCH  19  20
ATOM     20  C   UNL     1       2.027  -0.553  -1.118  0.00  0.00    +0.136 A 
ATOM     21  C   UNL     1       2.690  -0.303   0.074  0.00  0.00    +0.049 A 
ATOM     22  C   UNL     1       4.068  -0.394   0.129  0.00  0.00    +0.042 A 
ATOM     23  C   UNL     1       4.786  -0.733  -1.005  0.00  0.00    +0.125 A 
ATOM     24  C   UNL     1       4.126  -0.982  -2.196  0.00  0.00    +0.057 A 
ATOM     25  C   UNL     1       2.747  -0.899  -2.253  0.00  0.00    +0.062 A 
ATOM     26 BR   UNL     1       1.844  -1.247  -3.877  0.00  0.00    -0.046 Br
ATOM     27  F   UNL     1       6.133  -0.820  -0.949  0.00  0.00    -0.205 F 
ENDBRANCH  19  20
ENDBRANCH  18  19
ENDBRANCH   1  18
TORSDOF 6
