REMARK  Name = ZINC13458135
REMARK  10 active torsions:
REMARK  status: ('A' for Active; 'I' for Inactive)
REMARK    1  A    between atoms: C_1  and  C_2
REMARK    2  A    between atoms: C_3  and  C_12
REMARK    3  A    between atoms: C_4  and  C_11
REMARK    4  A    between atoms: CA_7  and  C_8
REMARK    5  A    between atoms: C_12  and  C_14
REMARK    6  A    between atoms: C_15  and  C_16
REMARK    7  A    between atoms: C_19  and  C_21
REMARK    8  A    between atoms: C_24  and  S_27
REMARK    9  A    between atoms: S_27  and  N_30
REMARK   10  A    between atoms: N_30  and  C_31
REMARK                            x       y       z     vdW  Elec       q    Type
REMARK                         _______ _______ _______ _____ _____    ______ ____
ROOT
ATOM      1  C   UNL     1       0.312  -1.891  -5.917  0.00  0.00    +0.129 A 
ATOM      2  C   UNL     1       0.417  -1.609  -7.267  0.00  0.00    +0.050 A 
ATOM      3  C   UNL     1       0.505  -2.836  -7.929  0.00  0.00    +0.050 A 
ATOM      4  C   UNL     1       0.451  -3.818  -6.966  0.00  0.00    +0.136 A 
ATOM      5  O   UNL     1       0.340  -3.231  -5.761  0.00  0.00    -0.455 OA
ENDROOT
BRANCH   4   6
ATOM      6  C   UNL     1       0.511  -5.272  -7.214  0.00  0.00    +0.017 A 
ATOM      7  C   UNL     1       0.638  -5.757  -8.518  0.00  0.00    +0.013 A 
ATOM      8  C   UNL     1       0.694  -7.117  -8.742  0.00  0.00    +0.029 A 
ATOM      9  C   UNL     1       0.622  -8.000  -7.679  0.00  0.00    +0.105 A 
ATOM     10  C   UNL     1       0.496  -7.527  -6.385  0.00  0.00    +0.029 A 
ATOM     11  C   UNL     1       0.446  -6.170  -6.146  0.00  0.00    +0.013 A 
BRANCH   9  12
ATOM     12  S   UNL     1       0.693  -9.736  -7.975  0.00  0.00    +0.058 S 
ATOM     13  O   UNL     1       0.058 -10.362  -6.869  0.00  0.00    -0.153 OA
ATOM     14  O   UNL     1       0.263  -9.937  -9.315  0.00  0.00    -0.153 OA
BRANCH  12  15
ATOM     15  N   UNL     1       2.287 -10.178  -7.919  0.00  0.00    -0.193 NA
ATOM     16  C   UNL     1       3.036 -10.062  -6.665  0.00  0.00    +0.127 C 
ATOM     17  H   UNL     1       2.726 -10.514  -8.716  0.00  0.00    +0.148 HD
ENDBRANCH  12  15
ENDBRANCH   9  12
ENDBRANCH   4   6
BRANCH   1  19
ATOM     18  C   UNL     1       0.109  -1.351  -3.586  0.00  0.00    +0.055 C 
ATOM     19  C   UNL     1       0.200  -0.940  -4.879  0.00  0.00    +0.050 C 
BRANCH  18  20
ATOM     20  C   UNL     1      -0.003  -0.399  -2.547  0.00  0.00    +0.188 C 
ATOM     21  O   UNL     1      -0.113   0.785  -2.815  0.00  0.00    -0.287 OA
BRANCH  20  24
ATOM     22  C   UNL     1       2.593  -0.917  -0.778  0.00  0.00    +0.047 C 
ATOM     23  C   UNL     1       1.157  -1.071  -0.346  0.00  0.00    -0.008 A 
ATOM     24  C   UNL     1       0.013  -0.839  -1.138  0.00  0.00    +0.046 A 
ATOM     25  C   UNL     1      -1.091  -1.101  -0.347  0.00  0.00    +0.025 A 
ATOM     26  N   UNL     1      -0.662  -1.474   0.870  0.00  0.00    -0.352 N 
ATOM     27  H   UNL     1      -1.232  -1.715   1.617  0.00  0.00    +0.166 HD
ATOM     28  CA  UNL     1       0.717  -1.467   0.886  0.00  0.00    +0.132 A 
ATOM     29  C   UNL     1      -2.530  -0.985  -0.776  0.00  0.00    +0.064 C 
BRANCH  28  30
ATOM     30  C   UNL     1       1.563  -1.819   2.026  0.00  0.00    +0.403 C 
ATOM     31  O   UNL     1       1.052  -2.160   3.085  0.00  0.00    -0.239 OA
ATOM     32  OXT UNL     1       2.783  -1.772   1.921  0.00  0.00    -0.239 OA
ENDBRANCH  28  30
ENDBRANCH  20  24
ENDBRANCH  18  20
ENDBRANCH   1  19
TORSDOF 7
