REMARK  Name = ZINC46614278
REMARK  7 active torsions:
REMARK  status: ('A' for Active; 'I' for Inactive)
REMARK    1  A    between atoms: C_1  and  C_2
REMARK    2  A    between atoms: C_2  and  C_4
REMARK    3  A    between atoms: C_2  and  N_14
REMARK    4  A    between atoms: C_7  and  O_10
REMARK    5  A    between atoms: O_10  and  C_11
REMARK    6  A    between atoms: N_17  and  N_18
REMARK    7  A    between atoms: C_19  and  C_21
REMARK                            x       y       z     vdW  Elec       q    Type
REMARK                         _______ _______ _______ _____ _____    ______ ____
ROOT
ATOM      1  N   UNL     1       0.688  -0.476  -1.203  0.00  0.00    -0.292 N 
ATOM      2  C   UNL     1       2.031  -0.587  -1.215  0.00  0.00    +0.316 C 
ATOM      3  O   UNL     1       2.674  -0.294  -0.225  0.00  0.00    -0.251 OA
ATOM      4  N   UNL     1       2.662  -1.022  -2.324  0.00  0.00    -0.218 N 
ATOM      5  H   UNL     1       0.175  -0.710  -1.993  0.00  0.00    +0.151 HD
ATOM      6  H   UNL     1       3.628  -1.101  -2.332  0.00  0.00    +0.174 HD
ENDROOT
BRANCH   4   7
ATOM      7  N   UNL     1       1.921  -1.359  -3.464  0.00  0.00    -0.233 N 
ATOM      8  C   UNL     1       2.552  -1.793  -4.573  0.00  0.00    +0.234 C 
ATOM      9  O   UNL     1       3.761  -1.893  -4.584  0.00  0.00    -0.274 OA
ATOM     10  H   UNL     1       0.955  -1.279  -3.456  0.00  0.00    +0.173 HD
BRANCH   8  11
ATOM     11  C   UNL     1       1.756  -2.156  -5.800  0.00  0.00    +0.099 C 
ATOM     12  C   UNL     1       0.976  -0.922  -6.285  0.00  0.00    +0.037 C 
ATOM     13  C   UNL     1       0.422  -1.228  -7.707  0.00  0.00    +0.166 C 
ATOM     14  S   UNL     1       1.863  -2.104  -8.448  0.00  0.00    -0.030 S 
ATOM     15  O   UNL     1       2.682  -1.159  -9.124  0.00  0.00    -0.174 OA
ATOM     16  O   UNL     1       1.397  -3.251  -9.146  0.00  0.00    -0.174 OA
ATOM     17  C   UNL     1       2.717  -2.642  -6.912  0.00  0.00    +0.178 C 
ENDBRANCH   8  11
ENDBRANCH   4   7
BRANCH   1  19
ATOM     18  C   UNL     1      -0.019   1.526   0.010  0.00  0.00    +0.033 C 
ATOM     19  C   UNL     1       0.002  -0.004   0.002  0.00  0.00    +0.102 C 
BRANCH  19  20
ATOM     20  C   UNL     1      -1.412  -0.526   0.013  0.00  0.00    -0.027 A 
ATOM     21  C   UNL     1      -2.140  -0.568  -1.161  0.00  0.00    +0.009 A 
ATOM     22  C   UNL     1      -3.437  -1.046  -1.154  0.00  0.00    +0.046 A 
ATOM     23  C   UNL     1      -4.007  -1.483   0.032  0.00  0.00    +0.127 A 
ATOM     24  C   UNL     1      -3.274  -1.439   1.209  0.00  0.00    +0.046 A 
ATOM     25  C   UNL     1      -1.976  -0.966   1.196  0.00  0.00    +0.009 A 
BRANCH  23  26
ATOM     26  O   UNL     1      -5.282  -1.952   0.042  0.00  0.00    -0.434 OA
BRANCH  26  27
ATOM     27  C   UNL     1      -5.805  -2.385   1.300  0.00  0.00    +0.541 C 
ATOM     28  F   UNL     1      -5.016  -3.428   1.798  0.00  0.00    -0.166 F 
ATOM     29  F   UNL     1      -5.790  -1.318   2.204  0.00  0.00    -0.166 F 
ENDBRANCH  26  27
ENDBRANCH  23  26
ENDBRANCH  19  20
ENDBRANCH   1  19
TORSDOF 6
