REMARK  Name = ZINC09331088
REMARK  3 active torsions:
REMARK  status: ('A' for Active; 'I' for Inactive)
REMARK    1  A    between atoms: C_1  and  C_2
REMARK    2  A    between atoms: C_5  and  C_9
REMARK    3  A    between atoms: C_9  and  C_10
REMARK                            x       y       z     vdW  Elec       q    Type
REMARK                         _______ _______ _______ _____ _____    ______ ____
ROOT
ATOM      1  C   UNL     1      -1.293  -0.775   0.010  0.00  0.00    +0.059 C 
ENDROOT
BRANCH   1   2
ATOM      2  C   UNL     1      -1.744  -1.028  -1.430  0.00  0.00    +0.144 C 
ATOM      3  C   UNL     1      -3.044  -1.823  -1.474  0.00  0.00    +0.232 C 
ATOM      4  O   UNL     1      -3.145  -2.951  -1.035  0.00  0.00    -0.274 OA
ATOM      5  N   UNL     1      -4.041  -1.181  -2.027  0.00  0.00    -0.264 N 
ATOM      6  C   UNL     1      -3.958   0.047  -2.514  0.00  0.00    +0.153 C 
ATOM      7  S   UNL     1      -2.311   0.521  -2.238  0.00  0.00    -0.078 S 
ATOM      8  N   UNL     1      -4.948   0.777  -3.103  0.00  0.00    -0.280 NA
ATOM      9  H   UNL     1      -5.955   0.350  -3.215  0.00  0.00    +0.189 HD
ATOM     10  H   UNL     1      -5.027  -1.662  -2.110  0.00  0.00    +0.157 HD
ENDBRANCH   1   2
BRANCH   1  15
ATOM     11  C   UNL     1       3.674   2.180  -0.021  0.00  0.00    +0.045 C 
ATOM     12  C   UNL     1       2.379   1.409  -0.013  0.00  0.00    -0.032 A 
ATOM     13  C   UNL     1       2.397   0.027  -0.021  0.00  0.00    +0.005 A 
ATOM     14  C   UNL     1       1.208  -0.679  -0.013  0.00  0.00    +0.004 A 
ATOM     15  C   UNL     1       0.002  -0.004   0.002  0.00  0.00    -0.044 A 
ATOM     16  C   UNL     1      -0.017   1.378   0.010  0.00  0.00    +0.024 A 
ATOM     17  C   UNL     1       1.172   2.086   0.002  0.00  0.00    +0.044 A 
ATOM     18 CL   UNL     1       1.150   3.821   0.011  0.00  0.00    -0.083 Cl
ENDBRANCH   1  15
TORSDOF 2
