REMARK  Name = ZINC48748292
REMARK  5 active torsions:
REMARK  status: ('A' for Active; 'I' for Inactive)
REMARK    1  A    between atoms: C_1  and  C_2
REMARK    2  A    between atoms: C_2  and  C_4
REMARK    3  A    between atoms: C_2  and  N_8
REMARK    4  A    between atoms: N_6  and  C_7
REMARK    5  A    between atoms: C_9  and  C_11
REMARK                            x       y       z     vdW  Elec       q    Type
REMARK                         _______ _______ _______ _____ _____    ______ ____
ROOT
ATOM      1  N   UNL     1      -1.372  -0.511   0.012  0.00  0.00    -0.299 N 
ATOM      2  C   UNL     1      -2.051  -0.643  -1.145  0.00  0.00    +0.261 C 
ATOM      3  O   UNL     1      -1.522  -0.340  -2.198  0.00  0.00    -0.269 OA
ATOM      4  H   UNL     1      -1.794  -0.752   0.852  0.00  0.00    +0.150 HD
ENDROOT
BRANCH   2   5
ATOM      5  C   UNL     1      -3.430  -1.152  -1.134  0.00  0.00    +0.103 A 
ATOM      6  C   UNL     1      -4.211  -1.333  -2.231  0.00  0.00    +0.040 A 
ATOM      7  C   UNL     1      -5.460  -1.836  -1.793  0.00  0.00    +0.000 A 
ATOM      8  C   UNL     1      -6.636  -2.205  -2.460  0.00  0.00    +0.011 A 
ATOM      9  C   UNL     1      -7.704  -2.667  -1.748  0.00  0.00    +0.021 A 
ATOM     10  C   UNL     1      -7.637  -2.777  -0.363  0.00  0.00    +0.043 A 
ATOM     11  C   UNL     1      -6.492  -2.420   0.315  0.00  0.00    +0.046 A 
ATOM     12  C   UNL     1      -5.390  -1.946  -0.390  0.00  0.00    +0.048 A 
ATOM     13  N   UNL     1      -4.137  -1.527  -0.008  0.00  0.00    -0.351 N 
ATOM     14  H   UNL     1      -3.805  -1.498   0.903  0.00  0.00    +0.166 HD
ATOM     15 CL   UNL     1      -9.010  -3.368   0.520  0.00  0.00    -0.083 Cl
ENDBRANCH   2   5
BRANCH   1  17
ATOM     16  C   UNL     1      -0.019   1.526   0.010  0.00  0.00    +0.038 C 
ATOM     17  C   UNL     1       0.002  -0.004   0.002  0.00  0.00    +0.156 C 
BRANCH  17  18
ATOM     18  C   UNL     1       0.731  -0.503   1.223  0.00  0.00    +0.233 C 
ATOM     19  O   UNL     1       0.159  -1.213   2.023  0.00  0.00    -0.274 OA
ATOM     20  N   UNL     1       2.019  -0.161   1.426  0.00  0.00    -0.317 N 
ATOM     21  C   UNL     1       2.727  -0.647   2.613  0.00  0.00    +0.128 C 
ATOM     22  H   UNL     1       2.476   0.406   0.786  0.00  0.00    +0.148 HD
ENDBRANCH  17  18
ENDBRANCH   1  17
TORSDOF 3
