REMARK  Name = ZINC02122536
REMARK  8 active torsions:
REMARK  status: ('A' for Active; 'I' for Inactive)
REMARK    1  A    between atoms: C_1  and  C_2
REMARK    2  A    between atoms: C_3  and  C_17
REMARK    3  A    between atoms: C_9  and  O_15
REMARK    4  A    between atoms: C_11  and  O_13
REMARK    5  A    between atoms: O_13  and  C_14
REMARK    6  A    between atoms: O_15  and  C_16
REMARK    7  A    between atoms: C_17  and  C_18
REMARK    8  A    between atoms: C_23  and  C_26
REMARK                            x       y       z     vdW  Elec       q    Type
REMARK                         _______ _______ _______ _____ _____    ______ ____
ROOT
ATOM      1  C   UNL     1      -1.797   7.631   3.044  0.00  0.00    +0.045 C 
ATOM      2  C   UNL     1      -1.110   7.043   1.839  0.00  0.00    -0.026 A 
ATOM      3  C   UNL     1      -0.370   7.828   1.013  0.00  0.00    +0.049 A 
ATOM      4  C   UNL     1       0.266   7.263  -0.110  0.00  0.00    +0.341 A 
ATOM      5  O   UNL     1       0.927   7.974  -0.845  0.00  0.00    -0.245 OA
ATOM      6  O   UNL     1       0.155   5.951  -0.382  0.00  0.00    -0.422 OA
ATOM      7  C   UNL     1      -0.572   5.136   0.415  0.00  0.00    +0.146 A 
ATOM      8  C   UNL     1      -1.224   5.660   1.547  0.00  0.00    +0.063 A 
ATOM      9  C   UNL     1      -1.979   4.811   2.375  0.00  0.00    +0.134 A 
ATOM     10  C   UNL     1      -2.079   3.468   2.066  0.00  0.00    +0.092 A 
ATOM     11  C   UNL     1      -1.427   2.956   0.949  0.00  0.00    +0.127 A 
ATOM     12  C   UNL     1      -0.680   3.786   0.126  0.00  0.00    +0.092 A 
ENDROOT
BRANCH  11  13
ATOM     13  O   UNL     1      -1.528   1.634   0.658  0.00  0.00    -0.495 OA
ATOM     14  C   UNL     1      -0.841   1.171  -0.506  0.00  0.00    +0.277 C 
ENDBRANCH  11  13
BRANCH   9  15
ATOM     15  O   UNL     1      -2.611   5.308   3.468  0.00  0.00    -0.494 OA
ATOM     16  C   UNL     1      -3.358   4.385   4.262  0.00  0.00    +0.277 C 
ENDBRANCH   9  15
BRANCH   3  17
ATOM     17  C   UNL     1      -0.231   9.302   1.298  0.00  0.00    +0.138 C 
BRANCH  17  18
ATOM     18  C   UNL     1      -1.338  10.054   0.607  0.00  0.00    +0.220 C 
ATOM     19  O   UNL     1      -2.160   9.454  -0.052  0.00  0.00    -0.275 OA
ATOM     20  N   UNL     1      -1.415  11.395   0.721  0.00  0.00    -0.301 N 
ATOM     21  C   UNL     1      -0.430  12.136   1.520  0.00  0.00    +0.108 C 
ATOM     22  C   UNL     1      -1.167  13.004   2.539  0.00  0.00    +0.032 C 
ATOM     23  C   UNL     1      -2.182  13.889   1.812  0.00  0.00    +0.078 C 
ATOM     24  C   UNL     1      -3.207  13.010   1.092  0.00  0.00    +0.032 C 
ATOM     25  C   UNL     1      -2.489  12.143   0.053  0.00  0.00    +0.108 C 
BRANCH  23  26
ATOM     26  C   UNL     1      -2.889  14.768   2.811  0.00  0.00    +0.214 C 
ATOM     27  O   UNL     1      -4.093  14.698   2.936  0.00  0.00    -0.276 OA
ATOM     28  N   UNL     1      -2.182  15.632   3.567  0.00  0.00    -0.329 N 
ATOM     29  H   UNL     1      -1.219  15.689   3.467  0.00  0.00    +0.145 HD
ATOM     30  H   UNL     1      -2.637  16.198   4.210  0.00  0.00    +0.145 HD
ENDBRANCH  23  26
ENDBRANCH  17  18
ENDBRANCH   3  17
TORSDOF 5
