REMARK  Name = ZINC52009117
REMARK  5 active torsions:
REMARK  status: ('A' for Active; 'I' for Inactive)
REMARK    1  A    between atoms: C_1  and  C_2
REMARK    2  A    between atoms: C_2  and  C_22
REMARK    3  A    between atoms: N_8  and  C_9
REMARK    4  A    between atoms: C_15  and  O_17
REMARK    5  A    between atoms: C_18  and  O_21
REMARK                            x       y       z     vdW  Elec       q    Type
REMARK                         _______ _______ _______ _____ _____    ______ ____
ROOT
ATOM      1  C   UNL     1      -0.160   1.583   0.405  0.00  0.00    +0.011 C 
ATOM      2  C   UNL     1      -0.091   0.060   0.277  0.00  0.00    -0.027 C 
ATOM      3  C   UNL     1      -1.512  -0.513   0.218  0.00  0.00    +0.060 C 
ATOM      4  C   UNL     1      -1.427  -2.015   0.341  0.00  0.00    +0.025 A 
ATOM      5  C   UNL     1      -0.337  -2.675   0.794  0.00  0.00    +0.002 A 
ATOM      6  C   UNL     1      -0.628  -4.047   0.763  0.00  0.00    +0.025 A 
ATOM      7  C   UNL     1      -1.888  -4.178   0.292  0.00  0.00    +0.086 A 
ATOM      8  N   UNL     1      -2.381  -2.931   0.033  0.00  0.00    -0.345 N 
ATOM      9  C   UNL     1       0.938  -2.007   1.243  0.00  0.00    +0.147 C 
ATOM     10  C   UNL     1       0.644  -0.521   1.488  0.00  0.00    +0.043 C 
ATOM     11  C   UNL     1       0.661  -0.311  -1.003  0.00  0.00    +0.011 C 
ENDROOT
BRANCH   8  12
ATOM     12  C   UNL     1      -3.716  -2.632  -0.489  0.00  0.00    +0.115 C 
ATOM     13  C   UNL     1      -4.774  -3.165   0.479  0.00  0.00    +0.027 C 
ATOM     14  C   UNL     1      -4.612  -4.679   0.628  0.00  0.00    +0.002 C 
ATOM     15  C   UNL     1      -4.787  -5.347  -0.737  0.00  0.00    +0.003 C 
ATOM     16  C   UNL     1      -3.729  -4.814  -1.706  0.00  0.00    +0.033 C 
ATOM     17  C   UNL     1      -3.891  -3.300  -1.855  0.00  0.00    +0.137 C 
BRANCH  17  18
ATOM     18  O   UNL     1      -2.903  -2.802  -2.759  0.00  0.00    -0.390 OA
ATOM     19  H   UNL     1      -2.955  -3.183  -3.646  0.00  0.00    +0.210 HD
ENDBRANCH  17  18
ENDBRANCH   8  12
BRANCH   9  20
ATOM     20  O   UNL     1       1.399  -2.613   2.452  0.00  0.00    -0.387 OA
ATOM     21  H   UNL     1       1.588  -3.558   2.371  0.00  0.00    +0.210 HD
ENDBRANCH   9  20
TORSDOF 3
