REMARK  Name = ZINC09012968
REMARK  5 active torsions:
REMARK  status: ('A' for Active; 'I' for Inactive)
REMARK    1  A    between atoms: C_1  and  C_2
REMARK    2  A    between atoms: C_2  and  C_3
REMARK    3  A    between atoms: C_6  and  N_9
REMARK    4  A    between atoms: C_13  and  C_14
REMARK    5  A    between atoms: C_20  and  O_24
REMARK                            x       y       z     vdW  Elec       q    Type
REMARK                         _______ _______ _______ _____ _____    ______ ____
ROOT
ATOM      1  N   UNL     1      -0.191  -0.471   2.049  0.00  0.00    -0.188 N 
ATOM      2  C   UNL     1      -1.301  -1.042   1.533  0.00  0.00    +0.263 C 
ATOM      3  O   UNL     1      -2.397  -0.535   1.686  0.00  0.00    -0.269 OA
ATOM      4  C   UNL     1      -1.143  -2.294   0.775  0.00  0.00    +0.098 C 
ATOM      5  C   UNL     1      -2.241  -2.939   0.207  0.00  0.00    +0.043 C 
ATOM      6  C   UNL     1       0.172  -2.823   0.647  0.00  0.00    +0.218 C 
ATOM      7  N   UNL     1       1.183  -2.176   1.202  0.00  0.00    -0.127 NA
ATOM      8  C   UNL     1       1.012  -1.043   1.878  0.00  0.00    +0.340 C 
ATOM      9  O   UNL     1       1.989  -0.500   2.362  0.00  0.00    -0.250 OA
ENDROOT
BRANCH   1  13
ATOM     10  C   UNL     1      -0.504   3.083   4.204  0.00  0.00    -0.048 A 
ATOM     11  C   UNL     1      -0.170   1.909   4.854  0.00  0.00    +0.005 A 
ATOM     12  C   UNL     1      -0.066   0.730   4.143  0.00  0.00    +0.024 A 
ATOM     13  C   UNL     1      -0.296   0.724   2.773  0.00  0.00    +0.046 A 
ATOM     14  C   UNL     1      -0.626   1.905   2.123  0.00  0.00    +0.024 A 
ATOM     15  C   UNL     1      -0.734   3.081   2.840  0.00  0.00    +0.005 A 
BRANCH  10  17
ATOM     16  C   UNL     1       0.742   5.070   5.010  0.00  0.00    +0.009 C 
ATOM     17  C   UNL     1      -0.617   4.368   4.983  0.00  0.00    +0.032 C 
ENDBRANCH  10  17
ENDBRANCH   1  13
BRANCH   5  18
ATOM     18  C   UNL     1      -3.502  -2.326   0.226  0.00  0.00    +0.040 A 
ATOM     19  C   UNL     1      -4.725  -2.959   0.425  0.00  0.00    +0.027 A 
ATOM     20  C   UNL     1      -5.706  -1.973   0.366  0.00  0.00    +0.019 A 
ATOM     21  C   UNL     1      -5.092  -0.782   0.137  0.00  0.00    +0.083 A 
ATOM     22  N   UNL     1      -3.760  -0.980   0.055  0.00  0.00    -0.361 N 
ATOM     23  H   UNL     1      -3.095  -0.292  -0.099  0.00  0.00    +0.165 HD
ENDBRANCH   5  18
BRANCH   6  24
ATOM     24  O   UNL     1       0.385  -3.971  -0.032  0.00  0.00    -0.493 OA
ATOM     25  H   UNL     1       1.312  -4.245  -0.060  0.00  0.00    +0.294 HD
ENDBRANCH   6  24
TORSDOF 4
