REMARK  Name = ZINC07203918
REMARK  9 active torsions:
REMARK  status: ('A' for Active; 'I' for Inactive)
REMARK    1  A    between atoms: C_1  and  C_2
REMARK    2  A    between atoms: C_6  and  C_25
REMARK    3  A    between atoms: C_7  and  N_8
REMARK    4  A    between atoms: C_9  and  C_11
REMARK    5  A    between atoms: C_11  and  C_13
REMARK    6  A    between atoms: C_11  and  O_14
REMARK    7  A    between atoms: O_14  and  C_15
REMARK    8  A    between atoms: C_15  and  C_17
REMARK    9  A    between atoms: C_22  and  N_23
REMARK                            x       y       z     vdW  Elec       q    Type
REMARK                         _______ _______ _______ _____ _____    ______ ____
ROOT
ATOM      1  C   UNL     1      -0.840   3.562  -0.489  0.00  0.00    +0.259 C 
ATOM      2  C   UNL     1       0.455   3.921  -1.220  0.00  0.00    +0.062 C 
ENDROOT
BRANCH   1   4
ATOM      3  N   UNL     1      -0.149   1.279   0.164  0.00  0.00    -0.282 N 
ATOM      4  C   UNL     1      -1.022   2.067  -0.494  0.00  0.00    +0.258 C 
ATOM      5  O   UNL     1      -1.955   1.571  -1.091  0.00  0.00    -0.271 OA
ATOM      6  H   UNL     1       0.551   1.677   0.705  0.00  0.00    +0.155 HD
BRANCH   3  13
ATOM      7  C   UNL     1      -2.610   0.051   0.894  0.00  0.00    +0.045 C 
ATOM      8  C   UNL     1      -1.431  -0.753   0.409  0.00  0.00    -0.029 A 
ATOM      9  C   UNL     1      -1.527  -2.127   0.304  0.00  0.00    +0.005 A 
ATOM     10  C   UNL     1      -0.444  -2.866  -0.136  0.00  0.00    +0.001 A 
ATOM     11  C   UNL     1       0.737  -2.232  -0.477  0.00  0.00    +0.005 A 
ATOM     12  C   UNL     1       0.838  -0.858  -0.379  0.00  0.00    -0.029 A 
ATOM     13  C   UNL     1      -0.248  -0.113   0.063  0.00  0.00    +0.039 A 
ATOM     14  C   UNL     1       2.125  -0.168  -0.750  0.00  0.00    +0.045 C 
ENDBRANCH   3  13
ENDBRANCH   1   4
BRANCH   1  15
ATOM     15  O   UNL     1      -1.964   4.189  -1.161  0.00  0.00    -0.449 OA
BRANCH  15  16
ATOM     16  C   UNL     1      -2.314   5.423  -0.748  0.00  0.00    +0.342 C 
ATOM     17  O   UNL     1      -1.696   5.961   0.150  0.00  0.00    -0.245 OA
BRANCH  16  18
ATOM     18  C   UNL     1      -3.444   6.121  -1.384  0.00  0.00    +0.081 A 
ATOM     19  C   UNL     1      -4.082   5.559  -2.494  0.00  0.00    +0.032 A 
ATOM     20  C   UNL     1      -5.140   6.216  -3.084  0.00  0.00    +0.019 A 
ATOM     21  C   UNL     1      -5.576   7.434  -2.582  0.00  0.00    +0.017 A 
ATOM     22  C   UNL     1      -4.957   8.000  -1.487  0.00  0.00    +0.024 A 
ATOM     23  C   UNL     1      -3.892   7.350  -0.876  0.00  0.00    +0.039 A 
ATOM     24 BR   UNL     1      -6.001   5.455  -4.585  0.00  0.00    -0.050 Br
BRANCH  23  25
ATOM     25  N   UNL     1      -3.271   7.916   0.230  0.00  0.00    -0.357 N 
ATOM     26  H   UNL     1      -2.473   7.508   0.600  0.00  0.00    +0.142 HD
ATOM     27  H   UNL     1      -3.635   8.720   0.632  0.00  0.00    +0.142 HD
ENDBRANCH  23  25
ENDBRANCH  16  18
ENDBRANCH  15  16
ENDBRANCH   1  15
TORSDOF 6
