REMARK  Name = ZINC12499352
REMARK  7 active torsions:
REMARK  status: ('A' for Active; 'I' for Inactive)
REMARK    1  A    between atoms: C_1  and  C_2
REMARK    2  A    between atoms: C_2  and  O_3
REMARK    3  A    between atoms: O_3  and  C_4
REMARK    4  A    between atoms: C_7  and  N_10
REMARK    5  A    between atoms: N_13  and  C_14
REMARK    6  A    between atoms: C_24  and  C_25
REMARK    7  A    between atoms: C_24  and  N_57
REMARK                            x       y       z     vdW  Elec       q    Type
REMARK                         _______ _______ _______ _____ _____    ______ ____
ROOT
ATOM      1  C   UNL     1       1.643   2.926   1.243  0.00  0.00    +0.071 C 
ATOM      2  C   UNL     1       1.352   2.111   2.507  0.00  0.00    +0.007 C 
ATOM      3  C   UNL     1      -0.082   1.577   2.444  0.00  0.00    -0.066 C 
ATOM      4  C   UNL     1      -0.062   0.051   2.522  0.00  0.00    -0.015 C 
ATOM      5  C   UNL     1       0.657  -0.528   1.303  0.00  0.00    -0.003 C 
ATOM      6  C   UNL     1       0.008  -0.012   0.020  0.00  0.00    -0.015 C 
ATOM      7  C   UNL     1      -0.014   1.516   0.018  0.00  0.00    -0.066 C 
ATOM      8  C   UNL     1       1.423   2.049   0.008  0.00  0.00    +0.007 C 
ATOM      9  N   UNL     1      -0.695   2.091   1.198  0.00  0.00    +0.388 N 
ATOM     10  H   UNL     1      -0.575   3.110   1.176  0.00  0.00    -0.080 HD
ENDROOT
BRANCH   1  14
ATOM     11  N   UNL     1       4.665   4.922   0.609  0.00  0.00    -0.269 N 
ATOM     12  C   UNL     1       3.387   4.495   0.584  0.00  0.00    +0.304 C 
ATOM     13  O   UNL     1       2.554   5.104  -0.060  0.00  0.00    -0.253 OA
ATOM     14  N   UNL     1       3.032   3.391   1.271  0.00  0.00    -0.296 N 
ATOM     15  H   UNL     1       5.314   4.476   1.175  0.00  0.00    +0.156 HD
ATOM     16  H   UNL     1       3.696   2.905   1.784  0.00  0.00    +0.151 HD
BRANCH  11  20
ATOM     17  C   UNL     1       5.826   8.163  -1.744  0.00  0.00    +0.121 A 
ATOM     18  C   UNL     1       4.560   8.136  -1.178  0.00  0.00    +0.047 A 
ATOM     19  C   UNL     1       4.175   7.063  -0.398  0.00  0.00    +0.027 A 
ATOM     20  C   UNL     1       5.055   6.012  -0.182  0.00  0.00    +0.035 A 
ATOM     21  C   UNL     1       6.324   6.042  -0.744  0.00  0.00    +0.027 A 
ATOM     22  C   UNL     1       6.706   7.113  -1.528  0.00  0.00    +0.047 A 
BRANCH  17  23
ATOM     23  O   UNL     1       6.205   9.220  -2.511  0.00  0.00    -0.492 OA
BRANCH  23  25
ATOM     24  C   UNL     1       7.766  10.447  -3.889  0.00  0.00    +0.048 C 
ATOM     25  C   UNL     1       7.522   9.182  -3.063  0.00  0.00    +0.225 C 
ENDBRANCH  23  25
ENDBRANCH  17  23
ENDBRANCH  11  20
ENDBRANCH   1  14
BRANCH   9  26
ATOM     26  C   UNL     1      -2.148   1.794   1.165  0.00  0.00    -0.002 C 
BRANCH  26  27
ATOM     27  C   UNL     1      -2.743   2.122   2.510  0.00  0.00    +0.089 A 
ATOM     28  C   UNL     1      -3.211   3.324   2.892  0.00  0.00    +0.042 A 
ATOM     29  C   UNL     1      -3.673   3.181   4.220  0.00  0.00    +0.041 A 
ATOM     30  C   UNL     1      -3.459   1.900   4.572  0.00  0.00    +0.195 A 
ATOM     31  O   UNL     1      -2.901   1.262   3.530  0.00  0.00    -0.470 OA
ENDBRANCH  26  27
ENDBRANCH   9  26
TORSDOF 6
