REMARK  Name = ZINC19680665
REMARK  7 active torsions:
REMARK  status: ('A' for Active; 'I' for Inactive)
REMARK    1  A    between atoms: C_1  and  C_2
REMARK    2  A    between atoms: C_2  and  C_3
REMARK    3  A    between atoms: C_6  and  S_9
REMARK    4  A    between atoms: S_9  and  N_12
REMARK    5  A    between atoms: C_15  and  C_18
REMARK    6  A    between atoms: C_15  and  O_20
REMARK    7  A    between atoms: C_18  and  N_19
REMARK                            x       y       z     vdW  Elec       q    Type
REMARK                         _______ _______ _______ _____ _____    ______ ____
ROOT
ATOM      1  N   UNL     1      -1.995   2.453   6.274  0.00  0.00    -0.176 NA
ATOM      2  C   UNL     1      -2.334   1.153   6.868  0.00  0.00    +0.112 C 
ATOM      3  C   UNL     1      -1.062   0.294   6.924  0.00  0.00    +0.050 C 
ATOM      4  C   UNL     1       0.031   1.061   7.673  0.00  0.00    +0.053 C 
ATOM      5  C   UNL     1       0.356   2.354   6.923  0.00  0.00    +0.050 C 
ATOM      6  C   UNL     1      -0.897   3.233   6.863  0.00  0.00    +0.112 C 
ENDROOT
BRANCH   1   7
ATOM      7  S   UNL     1      -2.837   3.032   4.972  0.00  0.00    +0.061 S 
ATOM      8  O   UNL     1      -2.695   4.446   4.992  0.00  0.00    -0.153 OA
ATOM      9  O   UNL     1      -4.107   2.394   4.993  0.00  0.00    -0.153 OA
BRANCH   7  13
ATOM     10  C   UNL     1      -0.718   1.572   1.248  0.00  0.00    -0.048 A 
ATOM     11  C   UNL     1      -0.360   2.779   1.819  0.00  0.00    +0.005 A 
ATOM     12  C   UNL     1      -1.010   3.227   2.953  0.00  0.00    +0.029 A 
ATOM     13  C   UNL     1      -2.012   2.463   3.523  0.00  0.00    +0.105 A 
ATOM     14  C   UNL     1      -2.366   1.254   2.955  0.00  0.00    +0.029 A 
ATOM     15  C   UNL     1      -1.719   0.808   1.818  0.00  0.00    +0.005 A 
BRANCH  10  17
ATOM     16  C   UNL     1      -0.753   1.593  -1.232  0.00  0.00    +0.009 C 
ATOM     17  C   UNL     1      -0.013   1.086   0.008  0.00  0.00    +0.032 C 
ENDBRANCH  10  17
ENDBRANCH   7  13
ENDBRANCH   1   7
BRANCH   4  18
ATOM     18  O   UNL     1      -0.426   1.377   8.990  0.00  0.00    -0.390 OA
ATOM     19  H   UNL     1       0.227   1.930   9.681  0.00  0.00    +0.210 HD
ENDBRANCH   4  18
BRANCH   4  20
ATOM     20  C   UNL     1       1.289   0.195   7.765  0.00  0.00    -0.051 C 
BRANCH  20  21
ATOM     21  N   UNL     1       0.952  -1.096   8.379  0.00  0.00    +0.380 N 
ATOM     22  H   UNL     1       1.856  -1.718   8.445  0.00  0.00    -0.090 HD
ATOM     23  H   UNL     1       0.198  -1.609   7.763  0.00  0.00    -0.090 HD
ATOM     24  H   UNL     1       0.548  -0.928   9.389  0.00  0.00    -0.090 HD
ENDBRANCH  20  21
ENDBRANCH   4  20
TORSDOF 6
