REMARK  Name = ZINC67253960
REMARK  11 active torsions:
REMARK  status: ('A' for Active; 'I' for Inactive)
REMARK    1  A    between atoms: C_1  and  C_2
REMARK    2  A    between atoms: C_6  and  O_8
REMARK    3  A    between atoms: O_8  and  C_9
REMARK    4  A    between atoms: C_9  and  C_10
REMARK    5  A    between atoms: C_10  and  C_12
REMARK    6  A    between atoms: C_10  and  O_30
REMARK    7  A    between atoms: C_12  and  N_13
REMARK    8  A    between atoms: N_13  and  C_14
REMARK    9  A    between atoms: C_14  and  C_15
REMARK   10  A    between atoms: N_17  and  C_29
REMARK   11  A    between atoms: C_19  and  C_20
REMARK                            x       y       z     vdW  Elec       q    Type
REMARK                         _______ _______ _______ _____ _____    ______ ____
ROOT
ATOM      1  N   UNL     1      -0.130  -6.883   4.948  0.00  0.00    +0.384 N 
ATOM      2  H   UNL     1       0.689  -6.633   5.482  0.00  0.00    -0.085 HD
ATOM      3  H   UNL     1      -0.952  -6.514   5.402  0.00  0.00    -0.085 HD
ENDROOT
BRANCH   1   4
ATOM      4  C   UNL     1      -0.023  -6.320   3.595  0.00  0.00    -0.047 C 
BRANCH   4   5
ATOM      5  C   UNL     1       0.083  -4.796   3.683  0.00  0.00    +0.135 C 
BRANCH   5   6
ATOM      6  O   UNL     1       1.302  -4.441   4.338  0.00  0.00    -0.390 OA
ATOM      7  H   UNL     1       2.097  -4.756   3.887  0.00  0.00    +0.210 HD
ENDBRANCH   5   6
BRANCH   5   8
ATOM      8  C   UNL     1       0.069  -4.202   2.274  0.00  0.00    +0.258 C 
BRANCH   8   9
ATOM      9  O   UNL     1       0.050  -2.776   2.358  0.00  0.00    -0.489 OA
BRANCH   9  15
ATOM     10  C   UNL     1      -0.018   1.503   0.010  0.00  0.00    +0.044 C 
ATOM     11  C   UNL     1       0.002  -0.004   0.002  0.00  0.00    -0.047 A 
ATOM     12  C   UNL     1       0.006  -0.688  -1.200  0.00  0.00    +0.003 A 
ATOM     13  C   UNL     1       0.024  -2.071  -1.211  0.00  0.00    +0.004 A 
ATOM     14  C   UNL     1       0.039  -2.772  -0.020  0.00  0.00    +0.045 A 
ATOM     15  C   UNL     1       0.035  -2.088   1.186  0.00  0.00    +0.121 A 
ATOM     16  C   UNL     1       0.023  -0.700   1.195  0.00  0.00    +0.049 A 
ENDBRANCH   9  15
ENDBRANCH   8   9
ENDBRANCH   5   8
ENDBRANCH   4   5
ENDBRANCH   1   4
BRANCH   1  17
ATOM     17  C   UNL     1      -0.232  -8.345   4.864  0.00  0.00    -0.043 C 
BRANCH  17  18
ATOM     18  C   UNL     1      -0.341  -8.922   6.252  0.00  0.00    -0.016 A 
ATOM     19  C   UNL     1       0.664  -9.473   6.965  0.00  0.00    +0.110 A 
ATOM     20  N   UNL     1       0.163  -9.871   8.155  0.00  0.00    -0.274 N 
ATOM     21  N   UNL     1      -1.201  -9.555   8.182  0.00  0.00    -0.168 NA
ATOM     22  C   UNL     1      -1.510  -8.977   7.039  0.00  0.00    +0.129 A 
ATOM     23  C   UNL     1       0.916 -10.519   9.231  0.00  0.00    +0.172 C 
BRANCH  22  24
ATOM     24  C   UNL     1      -2.846  -8.479   6.648  0.00  0.00    +0.156 A 
ATOM     25  C   UNL     1      -4.023  -9.049   7.001  0.00  0.00    +0.060 A 
ATOM     26  C   UNL     1      -5.071  -8.223   6.395  0.00  0.00    +0.021 A 
ATOM     27  C   UNL     1      -6.466  -8.276   6.383  0.00  0.00    +0.011 A 
ATOM     28  C   UNL     1      -7.174  -7.325   5.702  0.00  0.00    +0.001 A 
ATOM     29  C   UNL     1      -6.514  -6.310   5.024  0.00  0.00    +0.004 A 
ATOM     30  C   UNL     1      -5.137  -6.242   5.024  0.00  0.00    +0.047 A 
ATOM     31  C   UNL     1      -4.398  -7.197   5.710  0.00  0.00    +0.136 A 
ATOM     32  O   UNL     1      -3.075  -7.386   5.893  0.00  0.00    -0.453 OA
ENDBRANCH  22  24
ENDBRANCH  17  18
ENDBRANCH   1  17
TORSDOF 9
