REMARK  Name = ZINC13253054
REMARK  6 active torsions:
REMARK  status: ('A' for Active; 'I' for Inactive)
REMARK    1  A    between atoms: C_3  and  N_20
REMARK    2  A    between atoms: C_6  and  N_7
REMARK    3  A    between atoms: C_8  and  C_10
REMARK    4  A    between atoms: C_16  and  C_18
REMARK    5  A    between atoms: N_20  and  S_21
REMARK    6  A    between atoms: S_21  and  C_24
REMARK                            x       y       z     vdW  Elec       q    Type
REMARK                         _______ _______ _______ _____ _____    ______ ____
ROOT
ATOM      1  C   UNL     1       5.776  -2.323  -0.559  0.00  0.00    +0.025 A 
ATOM      2  C   UNL     1       6.994  -2.881  -0.891  0.00  0.00    +0.026 A 
ATOM      3  C   UNL     1       7.333  -4.141  -0.416  0.00  0.00    +0.048 A 
ATOM      4  C   UNL     1       6.449  -4.837   0.398  0.00  0.00    +0.026 A 
ATOM      5  C   UNL     1       5.233  -4.277   0.734  0.00  0.00    +0.025 A 
ATOM      6  C   UNL     1       4.894  -3.017   0.258  0.00  0.00    +0.034 A 
ENDROOT
BRANCH   6   7
ATOM      7  N   UNL     1       3.659  -2.448   0.599  0.00  0.00    -0.285 N 
ATOM      8  C   UNL     1       3.552  -1.114   0.756  0.00  0.00    +0.221 C 
ATOM      9  O   UNL     1       4.541  -0.415   0.695  0.00  0.00    -0.275 OA
ATOM     10  H   UNL     1       2.881  -3.015   0.723  0.00  0.00    +0.155 HD
BRANCH   8  11
ATOM     11  C   UNL     1       2.203  -0.491   1.007  0.00  0.00    +0.093 C 
ATOM     12  C   UNL     1       1.268  -0.799  -0.165  0.00  0.00    +0.040 C 
ATOM     13  C   UNL     1       0.019   0.026  -0.060  0.00  0.00    -0.030 C 
ATOM     14  C   UNL     1      -0.094   1.080   0.683  0.00  0.00    -0.030 C 
ATOM     15  C   UNL     1       1.005   1.619   1.551  0.00  0.00    +0.042 C 
ATOM     16  C   UNL     1       2.352   1.032   1.121  0.00  0.00    +0.118 C 
BRANCH  16  17
ATOM     17  C   UNL     1       3.404   1.362   2.148  0.00  0.00    +0.360 C 
ATOM     18  O   UNL     1       3.979   0.474   2.731  0.00  0.00    -0.246 OA
ATOM     19  O   UNL     1       3.703   2.643   2.415  0.00  0.00    -0.246 OA
ENDBRANCH  16  17
ENDBRANCH   8  11
ENDBRANCH   6   7
BRANCH   3  20
ATOM     20  N   UNL     1       8.566  -4.708  -0.757  0.00  0.00    -0.216 N 
ATOM     21  H   UNL     1       9.107  -5.138  -0.076  0.00  0.00    +0.174 HD
BRANCH  20  22
ATOM     22  S   UNL     1       9.101  -4.647  -2.322  0.00  0.00    +0.072 S 
ATOM     23  O   UNL     1       9.002  -3.290  -2.733  0.00  0.00    -0.150 OA
ATOM     24  O   UNL     1      10.325  -5.367  -2.362  0.00  0.00    -0.150 OA
BRANCH  22  25
ATOM     25  C   UNL     1       7.951  -5.554  -3.302  0.00  0.00    +0.109 A 
ATOM     26  C   UNL     1       8.077  -6.926  -3.421  0.00  0.00    +0.031 A 
ATOM     27  C   UNL     1       7.173  -7.639  -4.186  0.00  0.00    +0.040 A 
ATOM     28  C   UNL     1       6.147  -6.978  -4.840  0.00  0.00    +0.124 A 
ATOM     29  C   UNL     1       6.026  -5.604  -4.724  0.00  0.00    +0.040 A 
ATOM     30  C   UNL     1       6.928  -4.893  -3.955  0.00  0.00    +0.031 A 
ATOM     31  F   UNL     1       5.265  -7.674  -5.591  0.00  0.00    -0.205 F 
ENDBRANCH  22  25
ENDBRANCH  20  22
ENDBRANCH   3  20
TORSDOF 6
