REMARK  Name = ZINC20420062
REMARK  5 active torsions:
REMARK  status: ('A' for Active; 'I' for Inactive)
REMARK    1  A    between atoms: C_1  and  C_2
REMARK    2  A    between atoms: C_2  and  C_4
REMARK    3  A    between atoms: C_2  and  O_10
REMARK    4  A    between atoms: O_10  and  C_11
REMARK    5  A    between atoms: C_14  and  C_17
REMARK                            x       y       z     vdW  Elec       q    Type
REMARK                         _______ _______ _______ _____ _____    ______ ____
ROOT
ATOM      1  C   UNL     1      -4.659   1.346  -0.800  0.00  0.00    +0.122 A 
ATOM      2  C   UNL     1      -4.702   0.050  -1.298  0.00  0.00    +0.046 A 
ATOM      3  C   UNL     1      -5.798  -0.378  -2.015  0.00  0.00    +0.012 A 
ATOM      4  C   UNL     1      -6.861   0.496  -2.250  0.00  0.00    -0.022 A 
ATOM      5  C   UNL     1      -6.812   1.799  -1.752  0.00  0.00    +0.012 A 
ATOM      6  C   UNL     1      -5.714   2.218  -1.031  0.00  0.00    +0.046 A 
ENDROOT
BRANCH   4   7
ATOM      7  C   UNL     1      -8.036   0.043  -3.024  0.00  0.00    -0.048 C 
ATOM      8  C   UNL     1      -8.283   0.609  -4.184  0.00  0.00    -0.042 C 
ATOM      9  C   UNL     1      -9.452   0.230  -5.048  0.00  0.00    -0.055 C 
ATOM     10  N   UNL     1      -9.992  -1.070  -4.631  0.00  0.00    +0.382 N 
ATOM     11  C   UNL     1     -10.245  -1.076  -3.181  0.00  0.00    -0.078 C 
ATOM     12  C   UNL     1      -8.896  -1.052  -2.455  0.00  0.00    +0.016 C 
ATOM     13  H   UNL     1     -10.936  -1.262  -5.162  0.00  0.00    -0.085 HD
ATOM     14  H   UNL     1      -9.268  -1.862  -4.873  0.00  0.00    -0.085 HD
ENDBRANCH   4   7
BRANCH   1  15
ATOM     15  O   UNL     1      -3.579   1.763  -0.089  0.00  0.00    -0.480 OA
BRANCH  15  17
ATOM     16  C   UNL     1      -2.724  -0.117   1.167  0.00  0.00    +0.062 C 
ATOM     17  C   UNL     1      -2.479   0.856   0.012  0.00  0.00    +0.256 C 
BRANCH  17  18
ATOM     18  C   UNL     1      -1.211   1.629   0.267  0.00  0.00    +0.261 C 
ATOM     19  O   UNL     1      -1.258   2.828   0.445  0.00  0.00    -0.271 OA
ATOM     20  N   UNL     1      -0.026   0.989   0.299  0.00  0.00    -0.237 N 
ATOM     21  C   UNL     1       1.109   1.682   0.521  0.00  0.00    +0.303 C 
ATOM     22  O   UNL     1       1.062   2.884   0.699  0.00  0.00    -0.253 OA
ATOM     23  N   UNL     1       2.295   1.043   0.547  0.00  0.00    -0.313 N 
ATOM     24  H   UNL     1       0.016  -0.099   0.142  0.00  0.00    +0.159 HD
ATOM     25  H   UNL     1       3.221   1.609   0.729  0.00  0.00    +0.146 HD
ATOM     26  H   UNL     1       2.337  -0.044   0.386  0.00  0.00    +0.146 HD
ENDBRANCH  17  18
ENDBRANCH  15  17
ENDBRANCH   1  15
TORSDOF 4
