REMARK  Name = ZINC01695240
REMARK  6 active torsions:
REMARK  status: ('A' for Active; 'I' for Inactive)
REMARK    1  A    between atoms: C_3  and  C_21
REMARK    2  A    between atoms: C_5  and  N_7
REMARK    3  A    between atoms: N_7  and  S_8
REMARK    4  A    between atoms: S_8  and  C_11
REMARK    5  A    between atoms: C_15  and  S_17
REMARK    6  A    between atoms: S_17  and  N_20
REMARK                            x       y       z     vdW  Elec       q    Type
REMARK                         _______ _______ _______ _____ _____    ______ ____
ROOT
ATOM      1  S   UNL     1      -4.861  -1.491   2.740  0.00  0.00    +0.072 S 
ATOM      2  O   UNL     1      -5.411  -2.772   2.465  0.00  0.00    -0.150 OA
ATOM      3  O   UNL     1      -3.842  -1.292   3.711  0.00  0.00    -0.150 OA
ENDROOT
BRANCH   1   4
ATOM      4  C   UNL     1      -4.229  -0.876   1.215  0.00  0.00    +0.110 A 
ATOM      5  C   UNL     1      -4.736  -1.346   0.017  0.00  0.00    +0.029 A 
ATOM      6  C   UNL     1      -4.241  -0.863  -1.179  0.00  0.00    +0.004 A 
ATOM      7  C   UNL     1      -3.243   0.094  -1.179  0.00  0.00    +0.028 A 
ATOM      8  C   UNL     1      -2.733   0.560   0.018  0.00  0.00    +0.107 A 
ATOM      9  C   UNL     1      -3.228   0.076   1.215  0.00  0.00    +0.057 A 
BRANCH   8  10
ATOM     10  S   UNL     1      -1.456   1.774   0.019  0.00  0.00    +0.056 S 
ATOM     11  O   UNL     1      -1.536   2.446   1.268  0.00  0.00    -0.153 OA
ATOM     12  O   UNL     1      -1.548   2.460  -1.223  0.00  0.00    -0.153 OA
BRANCH  10  13
ATOM     13  N   UNL     1      -0.011   0.966   0.007  0.00  0.00    -0.204 NA
ATOM     14  H   UNL     1       0.002  -0.004   0.002  0.00  0.00    +0.144 HD
ATOM     15  H   UNL     1       0.822   1.462   0.002  0.00  0.00    +0.144 HD
ENDBRANCH  10  13
ENDBRANCH   8  10
ENDBRANCH   1   4
BRANCH   1  16
ATOM     16  N   UNL     1      -6.126  -0.516   3.175  0.00  0.00    -0.216 N 
ATOM     17  H   UNL     1      -6.067   0.028   3.977  0.00  0.00    +0.174 HD
BRANCH  16  22
ATOM     18  C   UNL     1      -8.983  -1.613   1.141  0.00  0.00    +0.002 A 
ATOM     19  C   UNL     1      -9.565  -0.397   0.831  0.00  0.00    +0.012 A 
ATOM     20  C   UNL     1      -9.008   0.779   1.298  0.00  0.00    +0.057 A 
ATOM     21  C   UNL     1      -7.870   0.743   2.080  0.00  0.00    +0.036 A 
ATOM     22  C   UNL     1      -7.280  -0.476   2.389  0.00  0.00    +0.049 A 
ATOM     23  C   UNL     1      -7.843  -1.656   1.918  0.00  0.00    +0.024 A 
BRANCH  20  24
ATOM     24  C   UNL     1      -9.646   2.102   0.958  0.00  0.00    +0.417 C 
ATOM     25  F   UNL     1     -10.779   1.883   0.167  0.00  0.00    -0.166 F 
ATOM     26  F   UNL     1     -10.018   2.756   2.136  0.00  0.00    -0.166 F 
ATOM     27  F   UNL     1      -8.732   2.893   0.254  0.00  0.00    -0.166 F 
ENDBRANCH  20  24
ENDBRANCH  16  22
ENDBRANCH   1  16
TORSDOF 6
