REMARK  Name = ZINC49005115
REMARK  8 active torsions:
REMARK  status: ('A' for Active; 'I' for Inactive)
REMARK    1  A    between atoms: C_1  and  C_2
REMARK    2  A    between atoms: C_2  and  C_3
REMARK    3  A    between atoms: C_10  and  C_12
REMARK    4  A    between atoms: C_17  and  N_18
REMARK    5  A    between atoms: N_18  and  C_19
REMARK    6  A    between atoms: C_22  and  S_25
REMARK    7  A    between atoms: S_25  and  N_28
REMARK    8  A    between atoms: C_31  and  C_33
REMARK                            x       y       z     vdW  Elec       q    Type
REMARK                         _______ _______ _______ _____ _____    ______ ____
ROOT
ATOM      1  C   UNL     1      -3.926   0.423  -3.058  0.00  0.00    +0.077 A 
ATOM      2  C   UNL     1      -3.732  -0.346  -4.216  0.00  0.00    +0.128 A 
ATOM      3  N   UNL     1      -3.034   0.099  -5.229  0.00  0.00    -0.235 NA
ATOM      4  C   UNL     1      -2.462   1.311  -5.223  0.00  0.00    +0.162 A 
ATOM      5  C   UNL     1      -2.606   2.155  -4.096  0.00  0.00    +0.041 A 
ATOM      6  C   UNL     1      -3.361   1.706  -2.986  0.00  0.00    +0.056 A 
ATOM      7  C   UNL     1      -2.004   3.422  -4.104  0.00  0.00    +0.015 A 
ATOM      8  C   UNL     1      -1.294   3.793  -5.214  0.00  0.00    +0.024 A 
ATOM      9  C   UNL     1      -1.190   2.918  -6.289  0.00  0.00    +0.041 A 
ATOM     10  N   UNL     1      -1.756   1.734  -6.275  0.00  0.00    -0.232 NA
ATOM     11  C   UNL     1      -0.405   3.341  -7.504  0.00  0.00    +0.065 C 
ENDROOT
BRANCH   1  18
ATOM     12  C   UNL     1      -5.457  -1.975  -0.537  0.00  0.00    +0.076 C 
ATOM     13  C   UNL     1      -6.077  -3.258  -1.099  0.00  0.00    +0.022 C 
ATOM     14  C   UNL     1      -4.962  -4.193  -1.575  0.00  0.00    +0.003 C 
ATOM     15  C   UNL     1      -4.165  -3.513  -2.690  0.00  0.00    +0.019 C 
ATOM     16  C   UNL     1      -3.523  -2.233  -2.146  0.00  0.00    +0.108 C 
ATOM     17  N   UNL     1      -4.571  -1.390  -1.553  0.00  0.00    -0.294 N 
ATOM     18  C   UNL     1      -4.719  -0.106  -1.936  0.00  0.00    +0.250 C 
ATOM     19  O   UNL     1      -5.507   0.615  -1.355  0.00  0.00    -0.270 OA
BRANCH  12  21
ATOM     20  C   UNL     1      -6.115  -0.106   0.984  0.00  0.00    +0.006 C 
ATOM     21  C   UNL     1      -6.565  -0.980  -0.188  0.00  0.00    +0.019 C 
ENDBRANCH  12  21
ENDBRANCH   1  18
BRANCH   6  22
ATOM     22  N   UNL     1      -3.530   2.497  -1.872  0.00  0.00    -0.313 N 
ATOM     23  H   UNL     1      -4.331   3.037  -1.778  0.00  0.00    +0.152 HD
BRANCH  22  24
ATOM     24  C   UNL     1      -2.548   2.524  -0.878  0.00  0.00    +0.031 A 
ATOM     25  C   UNL     1      -1.235   2.194  -1.188  0.00  0.00    +0.025 A 
ATOM     26  C   UNL     1      -0.267   2.221  -0.203  0.00  0.00    +0.030 A 
ATOM     27  C   UNL     1      -0.604   2.577   1.090  0.00  0.00    +0.105 A 
ATOM     28  C   UNL     1      -1.911   2.906   1.402  0.00  0.00    +0.030 A 
ATOM     29  C   UNL     1      -2.882   2.887   0.421  0.00  0.00    +0.025 A 
BRANCH  27  30
ATOM     30  S   UNL     1       0.634   2.611   2.344  0.00  0.00    +0.056 S 
ATOM     31  O   UNL     1      -0.040   2.447   3.584  0.00  0.00    -0.153 OA
ATOM     32  O   UNL     1       1.668   1.735   1.917  0.00  0.00    -0.153 OA
BRANCH  30  33
ATOM     33  N   UNL     1       1.279   4.136   2.353  0.00  0.00    -0.204 NA
ATOM     34  H   UNL     1       1.628   4.510   3.178  0.00  0.00    +0.144 HD
ATOM     35  H   UNL     1       1.309   4.655   1.535  0.00  0.00    +0.144 HD
ENDBRANCH  30  33
ENDBRANCH  27  30
ENDBRANCH  22  24
ENDBRANCH   6  22
TORSDOF 6
