REMARK  Name = ZINC05447832
REMARK  6 active torsions:
REMARK  status: ('A' for Active; 'I' for Inactive)
REMARK    1  A    between atoms: C_3  and  C_20
REMARK    2  A    between atoms: C_5  and  N_7
REMARK    3  A    between atoms: N_7  and  C_8
REMARK    4  A    between atoms: C_8  and  C_9
REMARK    5  A    between atoms: C_9  and  N_39
REMARK    6  A    between atoms: N_12  and  C_13
REMARK                            x       y       z     vdW  Elec       q    Type
REMARK                         _______ _______ _______ _____ _____    ______ ____
ROOT
ATOM      1  N   UNL     1      -0.080   5.227  -0.151  0.00  0.00    -0.257 N 
ATOM      2  C   UNL     1      -1.244   5.899  -0.241  0.00  0.00    +0.311 C 
ATOM      3  O   UNL     1      -2.286   5.293  -0.401  0.00  0.00    -0.252 OA
ATOM      4  N   UNL     1      -1.254   7.244  -0.155  0.00  0.00    -0.269 N 
ATOM      5  H   UNL     1      -0.418   7.733  -0.103  0.00  0.00    +0.156 HD
ENDROOT
BRANCH   4   6
ATOM      6  C   UNL     1      -2.471   7.936  -0.140  0.00  0.00    +0.035 A 
ATOM      7  C   UNL     1      -2.566   9.190  -0.730  0.00  0.00    +0.025 A 
ATOM      8  C   UNL     1      -3.770   9.867  -0.719  0.00  0.00    +0.022 A 
ATOM      9  C   UNL     1      -4.878   9.303  -0.111  0.00  0.00    +0.041 A 
ATOM     10  C   UNL     1      -4.784   8.056   0.482  0.00  0.00    +0.022 A 
ATOM     11  C   UNL     1      -3.585   7.372   0.469  0.00  0.00    +0.025 A 
ATOM     12 CL   UNL     1      -6.387  10.160  -0.094  0.00  0.00    -0.084 Cl
ENDBRANCH   4   6
BRANCH   1  17
ATOM     13  C   UNL     1       0.424   1.638   0.468  0.00  0.00    +0.002 A 
ATOM     14  C   UNL     1      -0.004   1.102  -0.734  0.00  0.00    +0.012 A 
ATOM     15  C   UNL     1      -0.453   1.934  -1.743  0.00  0.00    +0.057 A 
ATOM     16  C   UNL     1      -0.485   3.301  -1.551  0.00  0.00    +0.036 A 
ATOM     17  C   UNL     1      -0.055   3.842  -0.347  0.00  0.00    +0.038 A 
ATOM     18  C   UNL     1       0.400   3.004   0.664  0.00  0.00    +0.023 A 
BRANCH  15  19
ATOM     19  C   UNL     1      -0.913   1.347  -3.053  0.00  0.00    +0.417 C 
ATOM     20  F   UNL     1      -0.794  -0.047  -3.007  0.00  0.00    -0.166 F 
ATOM     21  F   UNL     1      -2.250   1.693  -3.275  0.00  0.00    -0.166 F 
ATOM     22  F   UNL     1      -0.123   1.848  -4.092  0.00  0.00    -0.166 F 
ENDBRANCH  15  19
ENDBRANCH   1  17
BRANCH   1  23
ATOM     23  C   UNL     1       1.160   5.947   0.152  0.00  0.00    +0.096 C 
BRANCH  23  24
ATOM     24  C   UNL     1       1.818   6.400  -1.153  0.00  0.00    -0.067 C 
BRANCH  24  27
ATOM     25  H   UNL     1       3.682   6.553  -0.293  0.00  0.00    -0.090 HD
ATOM     26  H   UNL     1       3.515   7.432  -1.696  0.00  0.00    -0.090 HD
ATOM     27  N   UNL     1       3.052   7.141  -0.836  0.00  0.00    +0.379 N 
ATOM     28  H   UNL     1       2.813   7.974  -0.286  0.00  0.00    -0.090 HD
ENDBRANCH  24  27
ENDBRANCH  23  24
ENDBRANCH   1  23
TORSDOF 6
