REMARK  Name = ZINC20359275
REMARK  4 active torsions:
REMARK  status: ('A' for Active; 'I' for Inactive)
REMARK    1  A    between atoms: C_1  and  C_2
REMARK    2  A    between atoms: C_2  and  C_4
REMARK    3  A    between atoms: C_2  and  N_10
REMARK    4  A    between atoms: N_10  and  C_11
REMARK                            x       y       z     vdW  Elec       q    Type
REMARK                         _______ _______ _______ _____ _____    ______ ____
ROOT
ATOM      1  C   UNL     1       4.008   2.819  -1.459  0.00  0.00    +0.038 C 
ATOM      2  C   UNL     1       3.639   3.170  -0.017  0.00  0.00    +0.154 C 
ENDROOT
BRANCH   2   3
ATOM      3  C   UNL     1       4.712   4.045   0.578  0.00  0.00    +0.240 C 
ATOM      4  O   UNL     1       4.437   5.157   0.976  0.00  0.00    -0.273 OA
ATOM      5  N   UNL     1       5.979   3.592   0.667  0.00  0.00    -0.239 N 
ATOM      6  C   UNL     1       6.939   4.375   1.199  0.00  0.00    +0.303 C 
ATOM      7  O   UNL     1       6.662   5.489   1.598  0.00  0.00    -0.253 OA
ATOM      8  N   UNL     1       8.205   3.922   1.288  0.00  0.00    -0.313 N 
ATOM      9  H   UNL     1       6.229   2.584   0.306  0.00  0.00    +0.159 HD
ATOM     10  H   UNL     1       8.988   4.561   1.722  0.00  0.00    +0.146 HD
ATOM     11  H   UNL     1       8.455   2.913   0.926  0.00  0.00    +0.146 HD
ENDBRANCH   2   3
BRANCH   2  12
ATOM     12  N   UNL     1       2.361   3.886  -0.000  0.00  0.00    -0.331 N 
ATOM     13  H   UNL     1       2.346   4.986   0.006  0.00  0.00    +0.147 HD
BRANCH  12  14
ATOM     14  C   UNL     1       1.158   3.170   0.008  0.00  0.00    +0.066 A 
ATOM     15  C   UNL     1       1.175   1.782   0.000  0.00  0.00    +0.029 A 
ATOM     16  C   UNL     1      -0.013   1.076   0.008  0.00  0.00    +0.043 A 
ATOM     17  C   UNL     1      -1.221   1.750   0.017  0.00  0.00    +0.161 A 
ATOM     18  C   UNL     1      -1.243   3.137   0.031  0.00  0.00    +0.195 A 
ATOM     19  C   UNL     1      -0.055   3.848   0.023  0.00  0.00    +0.182 A 
ATOM     20  F   UNL     1      -0.075   5.199   0.031  0.00  0.00    -0.200 F 
ATOM     21  F   UNL     1      -2.424   3.793   0.045  0.00  0.00    -0.199 F 
ATOM     22  F   UNL     1      -2.381   1.057   0.019  0.00  0.00    -0.202 F 
ENDBRANCH  12  14
ENDBRANCH   2  12
TORSDOF 3
