REMARK  Name = ZINC54074180
REMARK  7 active torsions:
REMARK  status: ('A' for Active; 'I' for Inactive)
REMARK    1  A    between atoms: C_1  and  C_2
REMARK    2  A    between atoms: C_2  and  C_4
REMARK    3  A    between atoms: C_2  and  N_18
REMARK    4  A    between atoms: N_6  and  C_7
REMARK    5  A    between atoms: C_9  and  S_14
REMARK    6  A    between atoms: S_14  and  N_17
REMARK    7  A    between atoms: N_18  and  C_19
REMARK                            x       y       z     vdW  Elec       q    Type
REMARK                         _______ _______ _______ _____ _____    ______ ____
ROOT
ATOM      1  C   UNL     1      -3.534  -0.774  -1.034  0.00  0.00    +0.054 A 
ATOM      2  C   UNL     1      -4.223  -1.032   0.143  0.00  0.00    +0.053 A 
ATOM      3  C   UNL     1      -5.485  -1.592   0.095  0.00  0.00    +0.107 A 
ATOM      4  C   UNL     1      -6.063  -1.895  -1.124  0.00  0.00    +0.030 A 
ATOM      5  C   UNL     1      -5.380  -1.640  -2.299  0.00  0.00    +0.024 A 
ATOM      6  C   UNL     1      -4.119  -1.074  -2.258  0.00  0.00    +0.062 A 
ATOM      7 CL   UNL     1      -3.265  -0.747  -3.733  0.00  0.00    -0.082 Cl
ENDROOT
BRANCH   1  10
ATOM      8  C   UNL     1      -1.414  -0.521   0.016  0.00  0.00    +0.203 C 
ATOM      9  O   UNL     1      -1.792  -1.232   0.923  0.00  0.00    -0.277 OA
ATOM     10  N   UNL     1      -2.256  -0.206  -0.988  0.00  0.00    -0.286 N 
ATOM     11  H   UNL     1      -1.975   0.414  -1.680  0.00  0.00    +0.155 HD
BRANCH   8  13
ATOM     12  C   UNL     1      -0.035   1.540   0.021  0.00  0.00    -0.004 C 
ATOM     13  C   UNL     1      -0.004   0.010   0.012  0.00  0.00    +0.013 C 
BRANCH  13  14
ATOM     14  N   UNL     1       0.705  -0.473   1.205  0.00  0.00    +0.385 N 
ATOM     15  C   UNL     1       2.112  -0.055   1.141  0.00  0.00    -0.099 C 
ATOM     16  H   UNL     1       0.276  -0.084   2.031  0.00  0.00    -0.085 HD
ATOM     17  H   UNL     1       0.654  -1.480   1.241  0.00  0.00    -0.085 HD
ENDBRANCH  13  14
ENDBRANCH   8  13
ENDBRANCH   1  10
BRANCH   3  18
ATOM     18  S   UNL     1      -6.360  -1.920   1.589  0.00  0.00    +0.056 S 
ATOM     19  O   UNL     1      -7.296  -2.948   1.294  0.00  0.00    -0.153 OA
ATOM     20  O   UNL     1      -5.382  -2.050   2.612  0.00  0.00    -0.153 OA
BRANCH  18  21
ATOM     21  N   UNL     1      -7.242  -0.565   1.948  0.00  0.00    -0.204 NA
ATOM     22  H   UNL     1      -8.081  -0.645   2.427  0.00  0.00    +0.144 HD
ATOM     23  H   UNL     1      -6.920   0.309   1.678  0.00  0.00    +0.144 HD
ENDBRANCH  18  21
ENDBRANCH   3  18
TORSDOF 5
