REMARK  Name = ZINC22066139
REMARK  10 active torsions:
REMARK  status: ('A' for Active; 'I' for Inactive)
REMARK    1  A    between atoms: C_1  and  C_2
REMARK    2  A    between atoms: C_2  and  C_3
REMARK    3  A    between atoms: C_3  and  C_4
REMARK    4  A    between atoms: N_12  and  C_13
REMARK    5  A    between atoms: C_15  and  O_30
REMARK    6  A    between atoms: C_17  and  O_29
REMARK    7  A    between atoms: C_19  and  O_28
REMARK    8  A    between atoms: C_21  and  C_24
REMARK    9  A    between atoms: C_24  and  O_26
REMARK   10  A    between atoms: O_26  and  C_27
REMARK                            x       y       z     vdW  Elec       q    Type
REMARK                         _______ _______ _______ _____ _____    ______ ____
ROOT
ATOM      1  C   UNL     1       0.897   0.890  -0.601  0.00  0.00    +0.253 C 
ATOM      2  C   UNL     1       1.922   1.929  -0.141  0.00  0.00    +0.195 C 
ATOM      3  C   UNL     1       1.194   3.225   0.230  0.00  0.00    +0.179 C 
ATOM      4  C   UNL     1       0.151   2.920   1.310  0.00  0.00    +0.185 C 
ATOM      5  C   UNL     1      -0.806   1.843   0.794  0.00  0.00    +0.260 C 
ATOM      6  O   UNL     1      -0.061   0.676   0.438  0.00  0.00    -0.337 OA
ENDROOT
BRANCH   1  15
ATOM      7  C   UNL     1       0.356   0.699  -2.983  0.00  0.00    +0.029 A 
ATOM      8  C   UNL     1      -0.273   1.147  -4.091  0.00  0.00    +0.091 A 
ATOM      9  C   UNL     1      -1.071   2.314  -4.006  0.00  0.00    +0.252 A 
ATOM     10  O   UNL     1      -1.648   2.737  -4.991  0.00  0.00    -0.268 OA
ATOM     11  N   UNL     1      -1.185   2.952  -2.824  0.00  0.00    -0.303 N 
ATOM     12  H   UNL     1      -1.798   3.862  -2.747  0.00  0.00    +0.171 HD
ATOM     13  C   UNL     1      -0.551   2.481  -1.734  0.00  0.00    +0.163 A 
ATOM     14  S   UNL     1      -0.715   3.302  -0.241  0.00  0.00    -0.013 S 
ATOM     15  N   UNL     1       0.214   1.376  -1.803  0.00  0.00    -0.296 N 
BRANCH   7  16
ATOM     16  C   UNL     1       1.211  -0.540  -3.047  0.00  0.00    +0.053 C 
BRANCH  16  18
ATOM     17  C   UNL     1       3.551  -1.397  -3.222  0.00  0.00    +0.004 C 
ATOM     18  C   UNL     1       2.683  -0.139  -3.157  0.00  0.00    +0.003 C 
ENDBRANCH  16  18
ENDBRANCH   7  16
ENDBRANCH   1  15
BRANCH   5  19
ATOM     19  C   UNL     1      -1.799   1.495   1.872  0.00  0.00    +0.339 C 
ATOM     20  O   UNL     1      -1.803   0.388   2.356  0.00  0.00    -0.248 OA
BRANCH  19  21
ATOM     21  O   UNL     1      -2.680   2.415   2.296  0.00  0.00    -0.466 OA
ATOM     22  C   UNL     1      -3.607   2.010   3.337  0.00  0.00    +0.280 C 
ENDBRANCH  19  21
ENDBRANCH   5  19
BRANCH   4  23
ATOM     23  O   UNL     1       0.808   2.452   2.489  0.00  0.00    -0.386 OA
ATOM     24  H   UNL     1       0.218   2.181   3.377  0.00  0.00    +0.210 HD
ENDBRANCH   4  23
BRANCH   3  25
ATOM     25  O   UNL     1       0.545   3.757  -0.927  0.00  0.00    -0.386 OA
ATOM     26  H   UNL     1      -0.031   4.691  -0.854  0.00  0.00    +0.210 HD
ENDBRANCH   3  25
BRANCH   2  27
ATOM     27  O   UNL     1       2.848   2.188  -1.199  0.00  0.00    -0.385 OA
ATOM     28  H   UNL     1       3.662   2.912  -1.053  0.00  0.00    +0.210 HD
ENDBRANCH   2  27
TORSDOF 8
