REMARK  Name = ZINC19939927
REMARK  6 active torsions:
REMARK  status: ('A' for Active; 'I' for Inactive)
REMARK    1  A    between atoms: C_4  and  N_7
REMARK    2  A    between atoms: C_8  and  O_24
REMARK    3  A    between atoms: C_9  and  C_21
REMARK    4  A    between atoms: C_10  and  C_12
REMARK    5  A    between atoms: C_12  and  S_13
REMARK    6  A    between atoms: S_13  and  C_14
REMARK                            x       y       z     vdW  Elec       q    Type
REMARK                         _______ _______ _______ _____ _____    ______ ____
ROOT
ATOM      1  N   UNL     1       3.623  -0.652  -0.037  0.00  0.00    -0.200 N 
ATOM      2  C   UNL     1       3.880  -1.826   0.578  0.00  0.00    +0.226 A 
ATOM      3  C   UNL     1       5.204  -2.148   0.310  0.00  0.00    +0.097 A 
ATOM      4  C   UNL     1       5.729  -1.111  -0.495  0.00  0.00    +0.088 A 
ATOM      5  N   UNL     1       4.784  -0.235  -0.697  0.00  0.00    -0.167 NA
ENDROOT
BRANCH   3   6
ATOM      6  C   UNL     1       5.925  -3.343   0.777  0.00  0.00    +0.101 C 
ATOM      7  N   UNL     1       6.150  -3.520   2.081  0.00  0.00    -0.387 N 
ATOM      8  N   UNL     1       6.355  -4.249  -0.104  0.00  0.00    -0.344 N 
ATOM      9  H   UNL     1       5.837  -2.861   2.721  0.00  0.00    +0.157 HD
ATOM     10  H   UNL     1       6.192  -4.120  -1.051  0.00  0.00    +0.144 HD
ATOM     11  H   UNL     1       6.831  -5.037   0.204  0.00  0.00    +0.144 HD
ATOM     12  H   UNL     1       6.625  -4.308   2.388  0.00  0.00    +0.157 HD
ENDBRANCH   3   6
BRANCH   1  16
ATOM     13  C   UNL     1      -0.017   1.379   0.010  0.00  0.00    +0.000 A 
ATOM     14  C   UNL     1       1.170   2.089   0.002  0.00  0.00    +0.002 A 
ATOM     15  C   UNL     1       2.377   1.419  -0.013  0.00  0.00    +0.028 A 
ATOM     16  C   UNL     1       2.400   0.031  -0.021  0.00  0.00    +0.069 A 
ATOM     17  C   UNL     1       1.207  -0.680  -0.013  0.00  0.00    +0.028 A 
ATOM     18  C   UNL     1       0.002  -0.004   0.002  0.00  0.00    +0.002 A 
ENDBRANCH   1  16
BRANCH   2  19
ATOM     19  O   UNL     1       3.010  -2.553   1.318  0.00  0.00    -0.492 OA
ATOM     20  H   UNL     1       2.504  -3.200   0.808  0.00  0.00    +0.294 HD
ENDBRANCH   2  19
BRANCH   4  21
ATOM     21  C   UNL     1       7.135  -1.033  -1.031  0.00  0.00    +0.132 C 
BRANCH  21  22
ATOM     22  S   UNL     1       7.210  -1.845  -2.651  0.00  0.00    -0.119 S 
BRANCH  22  23
ATOM     23  C   UNL     1       8.895  -1.672  -3.138  0.00  0.00    +0.008 A 
ATOM     24  C   UNL     1       9.797  -1.025  -2.303  0.00  0.00    +0.016 A 
ATOM     25  C   UNL     1      11.117  -0.891  -2.687  0.00  0.00    +0.021 A 
ATOM     26  C   UNL     1      11.541  -1.401  -3.901  0.00  0.00    +0.041 A 
ATOM     27  C   UNL     1      10.644  -2.046  -4.735  0.00  0.00    +0.021 A 
ATOM     28  C   UNL     1       9.325  -2.188  -4.354  0.00  0.00    +0.016 A 
ATOM     29 CL   UNL     1      13.201  -1.230  -4.380  0.00  0.00    -0.084 Cl
ENDBRANCH  22  23
ENDBRANCH  21  22
ENDBRANCH   4  21
TORSDOF 6
