REMARK  Name = ZINC67140676
REMARK  3 active torsions:
REMARK  status: ('A' for Active; 'I' for Inactive)
REMARK    1  A    between atoms: C_8  and  C_26
REMARK    2  A    between atoms: C_12  and  C_14
REMARK    3  A    between atoms: C_17  and  C_19
REMARK                            x       y       z     vdW  Elec       q    Type
REMARK                         _______ _______ _______ _____ _____    ______ ____
ROOT
ATOM      1  C   UNL     1       0.684   1.464   2.579  0.00  0.00    +0.000 A 
ATOM      2  C   UNL     1       0.047   1.475   1.352  0.00  0.00    +0.000 A 
ATOM      3  C   UNL     1       0.228   0.422   0.478  0.00  0.00    +0.005 A 
ATOM      4  C   UNL     1       1.043  -0.648   0.823  0.00  0.00    -0.027 A 
ATOM      5  C   UNL     1       1.670  -0.664   2.049  0.00  0.00    -0.040 A 
ATOM      6  C   UNL     1       1.492   0.401   2.924  0.00  0.00    +0.004 A 
ATOM      7  C   UNL     1       2.543  -1.803   2.505  0.00  0.00    +0.067 C 
ATOM      8  C   UNL     1       3.028  -2.628   1.313  0.00  0.00    +0.166 C 
ATOM      9  N   UNL     1       1.867  -2.905   0.451  0.00  0.00    -0.285 N 
ATOM     10  C   UNL     1       1.210  -1.758  -0.183  0.00  0.00    +0.144 C 
ATOM     11  C   UNL     1       1.427  -4.164   0.254  0.00  0.00    +0.220 C 
ATOM     12  O   UNL     1       1.930  -5.085   0.860  0.00  0.00    -0.275 OA
ENDROOT
BRANCH   8  13
ATOM     13  C   UNL     1       3.626  -3.923   1.799  0.00  0.00    +0.231 C 
ATOM     14  O   UNL     1       4.662  -4.331   1.318  0.00  0.00    -0.274 OA
ATOM     15  N   UNL     1       3.009  -4.628   2.767  0.00  0.00    -0.328 N 
ATOM     16  H   UNL     1       2.180  -4.302   3.152  0.00  0.00    +0.145 HD
ATOM     17  H   UNL     1       3.393  -5.462   3.080  0.00  0.00    +0.145 HD
ENDBRANCH   8  13
BRANCH  11  18
ATOM     18  C   UNL     1       0.308  -4.426  -0.721  0.00  0.00    +0.083 C 
ATOM     19  C   UNL     1      -1.037  -4.879  -0.148  0.00  0.00    +0.022 C 
ATOM     20  C   UNL     1      -0.149  -5.875  -0.900  0.00  0.00    +0.032 C 
BRANCH  20  21
ATOM     21  C   UNL     1      -0.592  -6.300  -2.276  0.00  0.00    -0.041 A 
ATOM     22  C   UNL     1      -1.654  -5.662  -2.889  0.00  0.00    +0.004 A 
ATOM     23  C   UNL     1      -2.061  -6.051  -4.151  0.00  0.00    +0.003 A 
ATOM     24  C   UNL     1      -1.406  -7.080  -4.802  0.00  0.00    +0.038 A 
ATOM     25  C   UNL     1      -0.343  -7.720  -4.190  0.00  0.00    +0.124 A 
ATOM     26  C   UNL     1       0.068  -7.325  -2.928  0.00  0.00    +0.042 A 
ATOM     27  F   UNL     1       0.297  -8.726  -4.825  0.00  0.00    -0.205 F 
ENDBRANCH  20  21
ENDBRANCH  11  18
TORSDOF 3
