REMARK  Name = ZINC04870964
REMARK  7 active torsions:
REMARK  status: ('A' for Active; 'I' for Inactive)
REMARK    1  A    between atoms: C_1  and  C_2
REMARK    2  A    between atoms: C_2  and  C_3
REMARK    3  A    between atoms: C_2  and  C_4
REMARK    4  A    between atoms: C_2  and  C_5
REMARK    5  A    between atoms: C_12  and  N_24
REMARK    6  A    between atoms: C_13  and  C_22
REMARK    7  A    between atoms: C_14  and  C_16
REMARK                            x       y       z     vdW  Elec       q    Type
REMARK                         _______ _______ _______ _____ _____    ______ ____
ROOT
ATOM      1  C   UNL     1       0.919  -0.354  -2.071  0.00  0.00    +0.049 A 
ATOM      2  C   UNL     1       1.130  -1.679  -2.060  0.00  0.00    +0.050 A 
ATOM      3  C   UNL     1       1.992  -1.995  -3.133  0.00  0.00    +0.245 A 
ATOM      4  N   UNL     1       2.279  -0.890  -3.758  0.00  0.00    -0.135 NA
ATOM      5  N   UNL     1       1.611   0.163  -3.113  0.00  0.00    -0.277 N 
ATOM      6  H   UNL     1       1.642   1.098  -3.368  0.00  0.00    +0.189 HD
ATOM      7  O   UNL     1       2.396  -3.270  -3.382  0.00  0.00    -0.421 OA
ATOM      8  C   UNL     1       2.173  -4.190  -2.423  0.00  0.00    +0.201 C 
ATOM      9  C   UNL     1       1.362  -4.007  -1.360  0.00  0.00    +0.099 C 
ATOM     10  C   UNL     1       0.595  -2.730  -1.121  0.00  0.00    +0.108 C 
ENDROOT
BRANCH  10  11
ATOM     11  C   UNL     1      -0.869  -2.959  -1.394  0.00  0.00    +0.004 A 
ATOM     12  C   UNL     1      -1.895  -3.064  -0.515  0.00  0.00    +0.027 A 
ATOM     13  C   UNL     1      -3.173  -3.276  -0.998  0.00  0.00    +0.025 A 
ATOM     14  C   UNL     1      -3.362  -3.373  -2.337  0.00  0.00    +0.060 A 
ATOM     15  S   UNL     1      -1.704  -3.154  -2.961  0.00  0.00    -0.100 S 
ATOM     16 BR   UNL     1      -4.636  -3.430   0.191  0.00  0.00    -0.050 Br
ENDBRANCH  10  11
BRANCH   1  18
ATOM     17  C   UNL     1       0.206   1.917  -1.376  0.00  0.00    +0.017 C 
ATOM     18  C   UNL     1       0.060   0.418  -1.103  0.00  0.00    +0.004 C 
ATOM     19  C   UNL     1       0.507   0.115   0.329  0.00  0.00    +0.017 C 
ATOM     20  C   UNL     1      -1.403   0.007  -1.279  0.00  0.00    +0.017 C 
ENDBRANCH   1  18
BRANCH   8  21
ATOM     21  N   UNL     1       2.815  -5.398  -2.535  0.00  0.00    -0.328 N 
ATOM     22  H   UNL     1       3.405  -5.566  -3.286  0.00  0.00    +0.145 HD
ATOM     23  H   UNL     1       2.678  -6.084  -1.863  0.00  0.00    +0.145 HD
ENDBRANCH   8  21
BRANCH   9  24
ATOM     24  C   UNL     1       1.223  -5.074  -0.415  0.00  0.00    +0.101 C 
ATOM     25  N   UNL     1       1.112  -5.920   0.335  0.00  0.00    -0.191 NA
ENDBRANCH   9  24
TORSDOF 4
