REMARK  Name = ZINC39468964
REMARK  5 active torsions:
REMARK  status: ('A' for Active; 'I' for Inactive)
REMARK    1  A    between atoms: C_1  and  S_2
REMARK    2  A    between atoms: S_2  and  C_3
REMARK    3  A    between atoms: C_20  and  S_21
REMARK    4  A    between atoms: S_21  and  O_24
REMARK    5  A    between atoms: O_24  and  C_25
REMARK                            x       y       z     vdW  Elec       q    Type
REMARK                         _______ _______ _______ _____ _____    ______ ____
ROOT
ATOM      1  C   UNL     1      -1.281  -0.263  -0.141  0.00  0.00    +0.032 C 
ATOM      2  C   UNL     1      -2.052   0.830  -0.159  0.00  0.00    -0.006 C 
ATOM      3  C   UNL     1      -3.555   0.680  -0.119  0.00  0.00    +0.017 C 
ATOM      4  C   UNL     1      -3.988   0.463   1.331  0.00  0.00    -0.003 C 
ATOM      5  C   UNL     1      -5.492   0.175   1.406  0.00  0.00    -0.020 C 
ATOM      6  C   UNL     1      -5.838  -0.032   2.887  0.00  0.00    +0.159 C 
ATOM      7  O   UNL     1      -7.253  -0.255   3.024  0.00  0.00    -0.297 OA
ATOM      8  P   UNL     1      -7.935  -1.383   2.070  0.00  0.00    +0.421 P 
ATOM      9  O   UNL     1      -9.450  -1.116   1.924  0.00  0.00    -0.239 OA
ATOM     10  N   UNL     1      -7.183  -1.227   0.610  0.00  0.00    -0.267 NA
ATOM     11  N   UNL     1      -5.821  -1.010   0.612  0.00  0.00    +0.399 N 
ATOM     12  C   UNL     1      -5.444  -0.805  -0.796  0.00  0.00    -0.046 C 
ATOM     13  C   UNL     1      -3.951  -0.543  -0.951  0.00  0.00    +0.006 C 
ATOM     14  C   UNL     1      -3.174  -1.744  -0.483  0.00  0.00    +0.007 C 
ATOM     15  C   UNL     1      -1.908  -1.599  -0.078  0.00  0.00    +0.137 C 
ATOM     16  O   UNL     1      -7.695  -2.794   2.652  0.00  0.00    -0.128 OA
ATOM     17  H   UNL     1      -7.682  -1.289  -0.220  0.00  0.00    +0.113 HD
ATOM     18  H   UNL     1      -5.345  -1.816   0.990  0.00  0.00    -0.055 HD
ENDROOT
BRANCH  15  19
ATOM     19  S   UNL     1      -0.987  -2.987   0.497  0.00  0.00    +0.152 S 
ATOM     20  O   UNL     1      -0.292  -2.559   1.660  0.00  0.00    -0.131 OA
ATOM     21  O   UNL     1      -1.880  -4.091   0.507  0.00  0.00    -0.131 OA
BRANCH  19  22
ATOM     22  O   UNL     1       0.071  -3.292  -0.554  0.00  0.00    -0.342 OA
BRANCH  22  23
ATOM     23  C   UNL     1      -0.418  -3.885  -1.675  0.00  0.00    +0.157 A 
ATOM     24  C   UNL     1      -0.480  -5.269  -1.758  0.00  0.00    +0.048 A 
ATOM     25  C   UNL     1      -0.978  -5.870  -2.898  0.00  0.00    +0.004 A 
ATOM     26  C   UNL     1      -1.415  -5.093  -3.955  0.00  0.00    +0.000 A 
ATOM     27  C   UNL     1      -1.354  -3.714  -3.875  0.00  0.00    +0.004 A 
ATOM     28  C   UNL     1      -0.863  -3.108  -2.735  0.00  0.00    +0.048 A 
ENDBRANCH  22  23
ENDBRANCH  19  22
ENDBRANCH  15  19
BRANCH   1  30
ATOM     29  C   UNL     1       0.756   1.680  -0.267  0.00  0.00    +0.090 C 
ATOM     30  S   UNL     1       0.474  -0.110  -0.199  0.00  0.00    -0.127 S 
ENDBRANCH   1  30
TORSDOF 4
