REMARK  Name = ZINC62825201
REMARK  5 active torsions:
REMARK  status: ('A' for Active; 'I' for Inactive)
REMARK    1  A    between atoms: C_1  and  C_2
REMARK    2  A    between atoms: C_2  and  S_3
REMARK    3  A    between atoms: S_3  and  N_6
REMARK    4  A    between atoms: N_6  and  C_7
REMARK    5  A    between atoms: C_8  and  C_15
REMARK                            x       y       z     vdW  Elec       q    Type
REMARK                         _______ _______ _______ _____ _____    ______ ____
ROOT
ATOM      1  C   UNL     1       1.356  -2.940  -2.451  0.00  0.00    +0.102 A 
ATOM      2  C   UNL     1       1.289  -4.343  -2.486  0.00  0.00    +0.090 A 
ATOM      3  C   UNL     1       1.845  -5.034  -3.568  0.00  0.00    +0.032 A 
ATOM      4  C   UNL     1       2.452  -4.337  -4.590  0.00  0.00    +0.020 A 
ATOM      5  C   UNL     1       2.517  -2.952  -4.552  0.00  0.00    +0.032 A 
ATOM      6  C   UNL     1       1.969  -2.255  -3.495  0.00  0.00    +0.044 A 
ATOM      7 BR   UNL     1       2.057  -0.366  -3.461  0.00  0.00    -0.048 Br
ATOM      8 BR   UNL     1       3.203  -5.274  -6.051  0.00  0.00    -0.050 Br
ENDROOT
BRANCH   2   9
ATOM      9  C   UNL     1       0.640  -5.080  -1.392  0.00  0.00    +0.389 C 
ATOM     10  O   UNL     1       0.584  -6.302  -1.426  0.00  0.00    -0.241 OA
ATOM     11  O   UNL     1       0.155  -4.472  -0.447  0.00  0.00    -0.241 OA
ENDBRANCH   2   9
BRANCH   1  12
ATOM     12  N   UNL     1       0.808  -2.241  -1.384  0.00  0.00    -0.101 NA
BRANCH  12  13
ATOM     13  S   UNL     1       1.800  -1.494  -0.288  0.00  0.00    +0.062 S 
ATOM     14  O   UNL     1       2.382  -0.413  -1.004  0.00  0.00    -0.154 OA
ATOM     15  O   UNL     1       2.611  -2.536   0.237  0.00  0.00    -0.154 OA
BRANCH  13  17
ATOM     16  C   UNL     1       1.499  -0.146   2.073  0.00  0.00    +0.030 C 
ATOM     17  C   UNL     1       0.683  -0.864   0.996  0.00  0.00    +0.187 C 
ENDBRANCH  13  17
ENDBRANCH  12  13
ENDBRANCH   1  12
TORSDOF 4
