REMARK  Name = ZINC17105438
REMARK  5 active torsions:
REMARK  status: ('A' for Active; 'I' for Inactive)
REMARK    1  A    between atoms: N_8  and  C1*_10
REMARK    2  A    between atoms: C2*_12  and  O2*_22
REMARK    3  A    between atoms: C3*_14  and  O3*_21
REMARK    4  A    between atoms: C4*_16  and  C5*_19
REMARK    5  A    between atoms: C5*_19  and  O5*_20
REMARK                            x       y       z     vdW  Elec       q    Type
REMARK                         _______ _______ _______ _____ _____    ______ ____
ROOT
ATOM      1  C1* UNL     1      -2.500   3.672   0.045  0.00  0.00    +0.273 C 
ATOM      2  C2* UNL     1      -2.444   4.872   1.017  0.00  0.00    +0.197 C 
ATOM      3  C3* UNL     1      -3.280   5.964   0.313  0.00  0.00    +0.178 C 
ATOM      4  C4* UNL     1      -3.742   5.296  -1.001  0.00  0.00    +0.177 C 
ATOM      5  O4* UNL     1      -2.769   4.257  -1.248  0.00  0.00    -0.344 OA
ENDROOT
BRANCH   1  13
ATOM      6  C   UNL     1       1.124   3.074   0.007  0.00  0.00    +0.166 A 
ATOM      7  C   UNL     1       1.148   1.655   0.000  0.00  0.00    +0.108 A 
ATOM      8  S   UNL     1       2.643   0.821  -0.019  0.00  0.00    -0.031 S 
ATOM      9  N   UNL     1      -0.011   0.966   0.007  0.00  0.00    -0.299 N 
ATOM     10  H   UNL     1       0.002  -0.004   0.002  0.00  0.00    +0.171 HD
ATOM     11  C   UNL     1      -1.187   1.623   0.017  0.00  0.00    +0.346 A 
ATOM     12  O   UNL     1      -2.229   0.996   0.018  0.00  0.00    -0.245 OA
ATOM     13  N   UNL     1      -1.215   2.969   0.029  0.00  0.00    -0.183 N 
ATOM     14  N   UNL     1      -0.020   3.699   0.021  0.00  0.00    -0.170 NA
ENDBRANCH   1  13
BRANCH   3  15
ATOM     15  O3* UNL     1      -4.407   6.329   1.112  0.00  0.00    -0.386 OA
ATOM     16  H3* UNL     1      -4.175   6.753   1.950  0.00  0.00    +0.210 HD
ENDBRANCH   3  15
BRANCH   2  17
ATOM     17  O2* UNL     1      -1.096   5.310   1.194  0.00  0.00    -0.385 OA
ATOM     18  H2* UNL     1      -1.002   6.062   1.796  0.00  0.00    +0.210 HD
ENDBRANCH   2  17
BRANCH   4  19
ATOM     19  C5* UNL     1      -3.741   6.310  -2.146  0.00  0.00    +0.190 C 
BRANCH  19  20
ATOM     20  O5* UNL     1      -4.213   5.681  -3.340  0.00  0.00    -0.392 OA
ATOM     21  H5* UNL     1      -4.239   6.267  -4.109  0.00  0.00    +0.210 HD
ENDBRANCH  19  20
ENDBRANCH   4  19
TORSDOF 5
