REMARK  Name = ZINC20156035
REMARK  4 active torsions:
REMARK  status: ('A' for Active; 'I' for Inactive)
REMARK    1  A    between atoms: C_1  and  C_2
REMARK    2  A    between atoms: N_7  and  C_9
REMARK    3  A    between atoms: C_9  and  C_11
REMARK    4  A    between atoms: C_9  and  C_18
REMARK                            x       y       z     vdW  Elec       q    Type
REMARK                         _______ _______ _______ _____ _____    ______ ____
ROOT
ATOM      1  C   UNL     1      -1.332   2.113   0.020  0.00  0.00    +0.004 C 
ENDROOT
BRANCH   1   2
ATOM      2  C   UNL     1      -1.659   2.389   1.465  0.00  0.00    +0.072 A 
ATOM      3  C   UNL     1      -2.686   1.736   2.078  0.00  0.00    +0.260 A 
ATOM      4  N   UNL     1      -2.966   2.003   3.395  0.00  0.00    -0.275 N 
ATOM      5  H   UNL     1      -3.793   1.480   3.898  0.00  0.00    +0.173 HD
ATOM      6  C   UNL     1      -2.234   2.901   4.079  0.00  0.00    +0.329 A 
ATOM      7  O   UNL     1      -2.496   3.125   5.245  0.00  0.00    -0.247 OA
ATOM      8  N   UNL     1      -1.216   3.556   3.491  0.00  0.00    -0.275 N 
ATOM      9  H   UNL     1      -0.630   4.290   4.064  0.00  0.00    +0.173 HD
ATOM     10  C   UNL     1      -0.904   3.320   2.201  0.00  0.00    +0.260 A 
ATOM     11  O   UNL     1       0.022   3.912   1.675  0.00  0.00    -0.267 OA
ATOM     12  O   UNL     1      -3.423   0.834   1.396  0.00  0.00    -0.267 OA
ENDBRANCH   1   2
BRANCH   1  18
ATOM     13  C   UNL     1      -3.690   6.311  -0.986  0.00  0.00    +0.005 C 
ATOM     14  C   UNL     1      -2.396   5.519  -1.184  0.00  0.00    -0.031 C 
ATOM     15  C   UNL     1      -2.138   5.328  -2.681  0.00  0.00    -0.001 C 
ATOM     16  C   UNL     1      -0.875   4.484  -2.870  0.00  0.00    -0.018 C 
ATOM     17  C   UNL     1      -1.052   3.143  -2.153  0.00  0.00    -0.077 C 
ATOM     18  N   UNL     1      -1.295   3.379  -0.724  0.00  0.00    +0.387 N 
ATOM     19  C   UNL     1      -2.529   4.148  -0.516  0.00  0.00    -0.074 C 
ATOM     20  H   UNL     1      -0.458   3.977  -0.336  0.00  0.00    -0.080 HD
ENDBRANCH   1  18
BRANCH   1  21
ATOM     21  C   UNL     1       0.012   1.438  -0.071  0.00  0.00    -0.056 A 
ATOM     22  C   UNL     1       1.164   2.198  -0.138  0.00  0.00    +0.005 A 
ATOM     23  C   UNL     1       2.397   1.580  -0.227  0.00  0.00    +0.038 A 
ATOM     24  C   UNL     1       2.477   0.198  -0.251  0.00  0.00    +0.123 A 
ATOM     25  C   UNL     1       1.322  -0.563  -0.184  0.00  0.00    +0.038 A 
ATOM     26  C   UNL     1       0.091   0.058  -0.094  0.00  0.00    +0.005 A 
ATOM     27  F   UNL     1       3.682  -0.408  -0.339  0.00  0.00    -0.205 F 
ENDBRANCH   1  21
TORSDOF 3
