REMARK  Name = ZINC53168049
REMARK  4 active torsions:
REMARK  status: ('A' for Active; 'I' for Inactive)
REMARK    1  A    between atoms: C_3  and  O_9
REMARK    2  A    between atoms: C_6  and  C_7
REMARK    3  A    between atoms: O_9  and  C_10
REMARK    4  A    between atoms: C_11  and  N_18
REMARK                            x       y       z     vdW  Elec       q    Type
REMARK                         _______ _______ _______ _____ _____    ______ ____
ROOT
ATOM      1  C   UNL     1       4.710   1.411  -0.037  0.00  0.00    +0.187 A 
ATOM      2  C   UNL     1       5.316   1.039   1.160  0.00  0.00    +0.071 A 
ATOM      3  C   UNL     1       6.504   0.322   1.140  0.00  0.00    +0.029 A 
ATOM      4  C   UNL     1       7.084  -0.022  -0.067  0.00  0.00    +0.043 A 
ATOM      5  C   UNL     1       6.483   0.347  -1.258  0.00  0.00    +0.162 A 
ATOM      6  C   UNL     1       5.292   1.058  -1.245  0.00  0.00    +0.202 A 
ATOM      7  F   UNL     1       4.704   1.411  -2.408  0.00  0.00    -0.199 F 
ATOM      8  F   UNL     1       7.054   0.009  -2.434  0.00  0.00    -0.202 F 
ENDROOT
BRANCH   2   9
ATOM      9  N   UNL     1       4.729   1.389   2.383  0.00  0.00    -0.355 N 
ATOM     10  H   UNL     1       3.899   1.891   2.396  0.00  0.00    +0.142 HD
ATOM     11  H   UNL     1       5.152   1.129   3.216  0.00  0.00    +0.142 HD
ENDBRANCH   2   9
BRANCH   1  12
ATOM     12  O   UNL     1       3.545   2.114  -0.022  0.00  0.00    -0.451 OA
BRANCH  12  15
ATOM     13  C   UNL     1      -0.017   1.393   0.010  0.00  0.00    +0.022 A 
ATOM     14  C   UNL     1       1.167   2.096   0.002  0.00  0.00    +0.047 A 
ATOM     15  C   UNL     1       2.381   1.418  -0.013  0.00  0.00    +0.129 A 
ATOM     16  C   UNL     1       2.404   0.028  -0.021  0.00  0.00    +0.047 A 
ATOM     17  C   UNL     1       1.224  -0.682  -0.013  0.00  0.00    +0.022 A 
ATOM     18  C   UNL     1       0.002  -0.004   0.002  0.00  0.00    +0.052 A 
BRANCH  18  19
ATOM     19  C   UNL     1      -1.227  -0.739   0.010  0.00  0.00    +0.099 C 
ATOM     20  N   UNL     1      -2.202  -1.322   0.017  0.00  0.00    -0.191 NA
ENDBRANCH  18  19
ENDBRANCH  12  15
ENDBRANCH   1  12
TORSDOF 4
