REMARK  Name = ZINC04367050
REMARK  5 active torsions:
REMARK  status: ('A' for Active; 'I' for Inactive)
REMARK    1  A    between atoms: C_1  and  C_2
REMARK    2  A    between atoms: N_6  and  N_7
REMARK    3  A    between atoms: N_7  and  S_8
REMARK    4  A    between atoms: S_8  and  C_11
REMARK    5  A    between atoms: C_14  and  N_17
REMARK                            x       y       z     vdW  Elec       q    Type
REMARK                         _______ _______ _______ _____ _____    ______ ____
ROOT
ATOM      1  S   UNL     1       1.095  -2.262  -0.097  0.00  0.00    +0.086 S 
ATOM      2  O   UNL     1       2.361  -2.398   0.533  0.00  0.00    -0.149 OA
ATOM      3  O   UNL     1      -0.100  -2.777   0.475  0.00  0.00    -0.149 OA
ENDROOT
BRANCH   1   4
ATOM      4  C   UNL     1       0.835  -0.536  -0.336  0.00  0.00    +0.110 A 
ATOM      5  C   UNL     1      -0.452  -0.043  -0.458  0.00  0.00    +0.030 A 
ATOM      6  C   UNL     1      -0.659   1.310  -0.646  0.00  0.00    +0.024 A 
ATOM      7  C   UNL     1       0.426   2.175  -0.712  0.00  0.00    +0.025 A 
ATOM      8  C   UNL     1       1.716   1.676  -0.589  0.00  0.00    +0.024 A 
ATOM      9  C   UNL     1       1.917   0.322  -0.402  0.00  0.00    +0.030 A 
BRANCH   7  10
ATOM     10  N   UNL     1       0.220   3.543  -0.902  0.00  0.00    -0.358 N 
ATOM     11  H   UNL     1      -0.682   3.890  -0.988  0.00  0.00    +0.142 HD
ATOM     12  H   UNL     1       0.978   4.146  -0.949  0.00  0.00    +0.142 HD
ENDBRANCH   7  10
ENDBRANCH   1   4
BRANCH   1  13
ATOM     13  N   UNL     1       1.236  -2.949  -1.597  0.00  0.00    -0.137 N 
ATOM     14  H   UNL     1       0.612  -3.638  -1.876  0.00  0.00    +0.197 HD
BRANCH  13  20
ATOM     15  C   UNL     1       1.454  -2.616  -7.846  0.00  0.00    +0.007 C 
ATOM     16  C   UNL     1       1.927  -3.117  -6.480  0.00  0.00    -0.013 C 
ATOM     17  C   UNL     1       2.928  -2.122  -5.891  0.00  0.00    +0.009 C 
ATOM     18  C   UNL     1       3.470  -2.668  -4.566  0.00  0.00    +0.053 C 
ATOM     19  C   UNL     1       2.300  -2.985  -3.662  0.00  0.00    +0.038 C 
ATOM     20  N   UNL     1       2.256  -2.535  -2.464  0.00  0.00    -0.175 NA
ATOM     21  C   UNL     1       1.185  -3.850  -4.206  0.00  0.00    +0.053 C 
ATOM     22  C   UNL     1       0.723  -3.256  -5.546  0.00  0.00    +0.009 C 
ENDBRANCH  13  20
ENDBRANCH   1  13
TORSDOF 4
