REMARK  Name = ZINC37392563
REMARK  5 active torsions:
REMARK  status: ('A' for Active; 'I' for Inactive)
REMARK    1  A    between atoms: C_1  and  C_2
REMARK    2  A    between atoms: C_3  and  C_18
REMARK    3  A    between atoms: N_4  and  C_10
REMARK    4  A    between atoms: C_5  and  N_9
REMARK    5  A    between atoms: C_6  and  C_7
REMARK                            x       y       z     vdW  Elec       q    Type
REMARK                         _______ _______ _______ _____ _____    ______ ____
ROOT
ATOM      1  C   UNL     1      -0.018   1.503   0.010  0.00  0.00    +0.047 C 
ATOM      2  C   UNL     1       0.002  -0.004   0.002  0.00  0.00    -0.010 A 
ATOM      3  C   UNL     1       0.008  -0.799  -1.079  0.00  0.00    +0.027 A 
ATOM      4  N   UNL     1       0.028  -2.112  -0.678  0.00  0.00    -0.300 N 
ATOM      5  C   UNL     1       0.035  -2.185   0.680  0.00  0.00    +0.119 A 
ATOM      6  C   UNL     1       0.026  -0.887   1.176  0.00  0.00    +0.094 A 
ATOM      7  C   UNL     1      -0.005  -0.325  -2.510  0.00  0.00    +0.064 C 
ENDROOT
BRANCH   4   8
ATOM      8  C   UNL     1       0.038  -3.216  -1.542  0.00  0.00    +0.066 A 
ATOM      9  C   UNL     1       1.245  -3.751  -1.972  0.00  0.00    +0.029 A 
ATOM     10  C   UNL     1       1.253  -4.839  -2.823  0.00  0.00    +0.017 A 
ATOM     11  C   UNL     1       0.060  -5.396  -3.248  0.00  0.00    +0.019 A 
ATOM     12  C   UNL     1      -1.145  -4.865  -2.822  0.00  0.00    +0.037 A 
ATOM     13  C   UNL     1      -1.159  -3.780  -1.965  0.00  0.00    +0.066 A 
ATOM     14 CL   UNL     1      -2.670  -3.120  -1.424  0.00  0.00    -0.081 Cl
ATOM     15 BR   UNL     1       0.075  -6.885  -4.414  0.00  0.00    -0.050 Br
ENDBRANCH   4   8
BRANCH   5  16
ATOM     16  N   UNL     1       0.053  -3.344   1.433  0.00  0.00    -0.343 N 
ATOM     17  H   UNL     1       0.062  -4.208   0.993  0.00  0.00    +0.144 HD
ATOM     18  H   UNL     1       0.057  -3.293   2.402  0.00  0.00    +0.144 HD
ENDBRANCH   5  16
BRANCH   6  19
ATOM     19  C   UNL     1       0.034  -0.490   2.552  0.00  0.00    +0.103 C 
ATOM     20  N   UNL     1       0.041  -0.176   3.644  0.00  0.00    -0.191 NA
ENDBRANCH   6  19
TORSDOF 3
