REMARK  Name = ZINC07949714
REMARK  8 active torsions:
REMARK  status: ('A' for Active; 'I' for Inactive)
REMARK    1  A    between atoms: C_1  and  C_2
REMARK    2  A    between atoms: C_2  and  C_18
REMARK    3  A    between atoms: N_3  and  N_4
REMARK    4  A    between atoms: C_5  and  C_7
REMARK    5  A    between atoms: C_16  and  O_17
REMARK    6  A    between atoms: C_21  and  S_24
REMARK    7  A    between atoms: S_24  and  N_27
REMARK    8  A    between atoms: N_27  and  C_28
REMARK                            x       y       z     vdW  Elec       q    Type
REMARK                         _______ _______ _______ _____ _____    ______ ____
ROOT
ATOM      1  N   UNL     1      -4.703   2.634   6.547  0.00  0.00    -0.203 N 
ATOM      2  C   UNL     1      -5.598   1.789   7.093  0.00  0.00    +0.267 C 
ATOM      3  O   UNL     1      -5.779   0.692   6.600  0.00  0.00    -0.268 OA
ATOM      4  H   UNL     1      -4.559   3.509   6.940  0.00  0.00    +0.178 HD
ENDROOT
BRANCH   2   5
ATOM      5  C   UNL     1      -6.360   2.193   8.291  0.00  0.00    +0.080 A 
ATOM      6  C   UNL     1      -6.150   3.444   8.850  0.00  0.00    +0.025 A 
ATOM      7  C   UNL     1      -6.877   3.823   9.987  0.00  0.00    -0.017 A 
ATOM      8  C   UNL     1      -6.690   5.085  10.580  0.00  0.00    +0.008 A 
ATOM      9  C   UNL     1      -7.411   5.424  11.683  0.00  0.00    +0.001 A 
ATOM     10  C   UNL     1      -8.334   4.539  12.237  0.00  0.00    +0.001 A 
ATOM     11  C   UNL     1      -8.542   3.309  11.691  0.00  0.00    +0.008 A 
ATOM     12  C   UNL     1      -7.817   2.922  10.551  0.00  0.00    -0.014 A 
ATOM     13  C   UNL     1      -8.011   1.660   9.965  0.00  0.00    +0.054 A 
ATOM     14  C   UNL     1      -7.301   1.306   8.856  0.00  0.00    +0.130 A 
BRANCH  14  15
ATOM     15  O   UNL     1      -7.497   0.087   8.293  0.00  0.00    -0.506 OA
ATOM     16  H   UNL     1      -6.923  -0.606   8.646  0.00  0.00    +0.292 HD
ENDBRANCH  14  15
ENDBRANCH   2   5
BRANCH   1  19
ATOM     17  C   UNL     1      -2.893   4.423   5.495  0.00  0.00    +0.068 C 
ATOM     18  C   UNL     1      -3.117   3.065   4.883  0.00  0.00    +0.063 C 
ATOM     19  N   UNL     1      -3.980   2.250   5.410  0.00  0.00    -0.184 NA
BRANCH  18  20
ATOM     20  C   UNL     1      -2.356   2.660   3.687  0.00  0.00    -0.002 A 
ATOM     21  C   UNL     1      -2.561   1.401   3.117  0.00  0.00    +0.011 A 
ATOM     22  C   UNL     1      -1.846   1.030   1.998  0.00  0.00    +0.029 A 
ATOM     23  C   UNL     1      -0.927   1.900   1.439  0.00  0.00    +0.105 A 
ATOM     24  C   UNL     1      -0.714   3.147   2.002  0.00  0.00    +0.029 A 
ATOM     25  C   UNL     1      -1.427   3.534   3.117  0.00  0.00    +0.011 A 
BRANCH  23  26
ATOM     26  S   UNL     1      -0.017   1.417   0.010  0.00  0.00    +0.058 S 
ATOM     27  O   UNL     1       0.002  -0.004   0.002  0.00  0.00    -0.153 OA
ATOM     28  O   UNL     1       1.172   2.195   0.003  0.00  0.00    -0.153 OA
BRANCH  26  29
ATOM     29  N   UNL     1      -0.897   1.885  -1.312  0.00  0.00    -0.193 NA
ATOM     30  C   UNL     1      -1.125   3.309  -1.574  0.00  0.00    +0.127 C 
ATOM     31  H   UNL     1      -1.263   1.218  -1.913  0.00  0.00    +0.148 HD
ENDBRANCH  26  29
ENDBRANCH  23  26
ENDBRANCH  18  20
ENDBRANCH   1  19
TORSDOF 6
