REMARK  Name = ZINC67391918
REMARK  10 active torsions:
REMARK  status: ('A' for Active; 'I' for Inactive)
REMARK    1  A    between atoms: C_1  and  C_2
REMARK    2  A    between atoms: C_5  and  C_10
REMARK    3  A    between atoms: C_7  and  O_8
REMARK    4  A    between atoms: O_8  and  C_9
REMARK    5  A    between atoms: C_10  and  N_11
REMARK    6  A    between atoms: C_12  and  C_14
REMARK    7  A    between atoms: N_16  and  C_17
REMARK    8  A    between atoms: C_21  and  N_23
REMARK    9  A    between atoms: C_24  and  O_26
REMARK   10  A    between atoms: O_26  and  C_27
REMARK                            x       y       z     vdW  Elec       q    Type
REMARK                         _______ _______ _______ _____ _____    ______ ____
ROOT
ATOM      1  C   UNL     1       3.123  -6.569  -0.076  0.00  0.00    +0.303 C 
ATOM      2  O   UNL     1       4.033  -5.766  -0.087  0.00  0.00    -0.265 OA
ATOM      3  N   UNL     1       3.389  -7.890  -0.076  0.00  0.00    -0.278 N 
ATOM      4  H   UNL     1       2.665  -8.531   0.001  0.00  0.00    +0.155 HD
ENDROOT
BRANCH   3   5
ATOM      5  C   UNL     1       4.708  -8.337  -0.187  0.00  0.00    +0.036 A 
ATOM      6  C   UNL     1       4.992  -9.501  -0.891  0.00  0.00    +0.023 A 
ATOM      7  C   UNL     1       6.296  -9.943  -1.002  0.00  0.00    +0.004 A 
ATOM      8  C   UNL     1       7.322  -9.229  -0.413  0.00  0.00    +0.023 A 
ATOM      9  C   UNL     1       7.046  -8.065   0.293  0.00  0.00    +0.038 A 
ATOM     10  C   UNL     1       5.738  -7.615   0.401  0.00  0.00    +0.046 A 
BRANCH   9  11
ATOM     11  N   UNL     1       8.086  -7.344   0.890  0.00  0.00    -0.251 N 
ATOM     12  C   UNL     1       9.291  -7.278   0.290  0.00  0.00    +0.404 C 
ATOM     13  O   UNL     1       9.500  -7.913  -0.725  0.00  0.00    -0.226 OA
ATOM     14  H   UNL     1       7.940  -6.892   1.735  0.00  0.00    +0.158 HD
BRANCH  12  15
ATOM     15  O   UNL     1      10.264  -6.510   0.815  0.00  0.00    -0.453 OA
ATOM     16  C   UNL     1      11.516  -6.487   0.127  0.00  0.00    +0.282 C 
ENDBRANCH  12  15
ENDBRANCH   9  11
ENDBRANCH   3   5
BRANCH   1  18
ATOM     17  N   UNL     1       1.441  -4.771  -0.061  0.00  0.00    -0.303 N 
ATOM     18  C   UNL     1       1.707  -6.093  -0.061  0.00  0.00    +0.300 C 
ATOM     19  O   UNL     1       0.797  -6.895  -0.049  0.00  0.00    -0.265 OA
ATOM     20  H   UNL     1       2.168  -4.130  -0.070  0.00  0.00    +0.149 HD
BRANCH  17  21
ATOM     21  C   UNL     1       0.052  -4.304  -0.046  0.00  0.00    +0.140 C 
BRANCH  21  26
ATOM     22  C   UNL     1      -0.038   1.477  -0.069  0.00  0.00    +0.047 C 
ATOM     23  C   UNL     1      -0.014  -0.029  -0.061  0.00  0.00    -0.009 A 
ATOM     24  C   UNL     1      -0.016  -0.727  -1.254  0.00  0.00    +0.007 A 
ATOM     25  C   UNL     1       0.005  -2.109  -1.248  0.00  0.00    +0.005 A 
ATOM     26  C   UNL     1       0.029  -2.797  -0.049  0.00  0.00    -0.027 A 
ATOM     27  C   UNL     1       0.032  -2.105   1.146  0.00  0.00    +0.051 A 
ATOM     28  C   UNL     1       0.015  -0.718   1.143  0.00  0.00    +0.123 A 
BRANCH  28  29
ATOM     29  O   UNL     1       0.023  -0.034   2.317  0.00  0.00    -0.495 OA
ATOM     30  C   UNL     1       0.054  -0.808   3.518  0.00  0.00    +0.277 C 
ENDBRANCH  28  29
ENDBRANCH  21  26
ENDBRANCH  17  21
ENDBRANCH   1  18
TORSDOF 7
