REMARK  Name = ZINC39523236
REMARK  4 active torsions:
REMARK  status: ('A' for Active; 'I' for Inactive)
REMARK    1  A    between atoms: C_1  and  C_2
REMARK    2  A    between atoms: C_2  and  O_3
REMARK    3  A    between atoms: O_3  and  C_4
REMARK    4  A    between atoms: N_16  and  O_17
REMARK                            x       y       z     vdW  Elec       q    Type
REMARK                         _______ _______ _______ _____ _____    ______ ____
ROOT
ATOM      1  C   UNL     1      -1.432  -1.925   0.005  0.00  0.00    +0.120 C 
ATOM      2  C   UNL     1      -1.479  -2.426  -1.439  0.00  0.00    +0.032 C 
ATOM      3  C   UNL     1      -1.579  -3.953  -1.446  0.00  0.00    +0.004 C 
ATOM      4  C   UNL     1      -2.852  -4.383  -0.715  0.00  0.00    +0.025 C 
ATOM      5  C   UNL     1      -2.806  -3.882   0.730  0.00  0.00    +0.051 C 
ATOM      6  C   UNL     1      -2.705  -2.356   0.737  0.00  0.00    +0.056 C 
ATOM      7  C   UNL     1      -4.082  -4.312   1.458  0.00  0.00    +0.025 C 
ATOM      8  C   UNL     1      -4.023  -3.828   2.909  0.00  0.00    +0.005 C 
ATOM      9  C   UNL     1      -2.771  -4.401   3.580  0.00  0.00    +0.037 C 
ATOM     10  C   UNL     1      -1.534  -3.967   2.791  0.00  0.00    +0.175 C 
ATOM     11  N   UNL     1      -1.637  -4.454   1.409  0.00  0.00    -0.167 NA
ATOM     12 CL   UNL     1      -1.424  -2.167   2.786  0.00  0.00    -0.102 Cl
ENDROOT
BRANCH  11  13
ATOM     13  O   UNL     1      -1.671  -5.916   1.370  0.00  0.00    -0.310 OA
ATOM     14  H   UNL     1      -0.918  -6.339   1.807  0.00  0.00    +0.237 HD
ENDBRANCH  11  13
BRANCH   1  15
ATOM     15  O   UNL     1      -1.339  -0.499   0.012  0.00  0.00    -0.377 OA
BRANCH  15  17
ATOM     16  C   UNL     1      -0.019   1.526   0.010  0.00  0.00    +0.034 C 
ATOM     17  C   UNL     1       0.002  -0.004   0.002  0.00  0.00    +0.157 C 
ENDBRANCH  15  17
ENDBRANCH   1  15
TORSDOF 3
