REMARK  Name = ZINC36236669
REMARK  1 active torsions:
REMARK  status: ('A' for Active; 'I' for Inactive)
REMARK    1  A    between atoms: C_2  and  C_9
REMARK                            x       y       z     vdW  Elec       q    Type
REMARK                         _______ _______ _______ _____ _____    ______ ____
ROOT
ATOM      1  C   UNL     1       1.292  -0.741  -0.015  0.00  0.00    +0.247 C 
ATOM      2  O   UNL     1       2.338  -0.132  -0.116  0.00  0.00    -0.270 OA
ATOM      3  N   UNL     1       1.301  -2.085   0.080  0.00  0.00    -0.296 N 
ATOM      4  C   UNL     1       0.110  -2.952   0.093  0.00  0.00    +0.108 C 
ATOM      5  C   UNL     1       0.611  -4.321  -0.430  0.00  0.00    +0.022 C 
ATOM      6  C   UNL     1       2.024  -4.405   0.199  0.00  0.00    -0.008 C 
ATOM      7  C   UNL     1       2.501  -2.926   0.180  0.00  0.00    +0.061 C 
ATOM      8  C   UNL     1       3.295  -2.829  -1.145  0.00  0.00    -0.060 C 
ATOM      9  N   UNL     1       3.950  -4.155  -1.259  0.00  0.00    +0.380 N 
ATOM     10  C   UNL     1       2.954  -5.154  -0.770  0.00  0.00    -0.077 C 
ATOM     11  H   UNL     1       4.194  -4.341  -2.221  0.00  0.00    -0.086 HD
ATOM     12  H   UNL     1       4.774  -4.188  -0.677  0.00  0.00    -0.086 HD
ENDROOT
BRANCH   1  14
ATOM     13  C   UNL     1      -0.696   0.170   1.201  0.00  0.00    +0.083 A 
ATOM     14  C   UNL     1       0.002  -0.004   0.005  0.00  0.00    +0.047 A 
ATOM     15  C   UNL     1      -0.530   0.526  -1.171  0.00  0.00    +0.083 A 
ATOM     16  C   UNL     1      -1.736   1.211  -1.128  0.00  0.00    +0.252 A 
ATOM     17  N   UNL     1      -2.395   1.367   0.043  0.00  0.00    -0.290 N 
ATOM     18  C   UNL     1      -1.902   0.858   1.194  0.00  0.00    +0.252 A 
ATOM     19  O   UNL     1      -2.577   1.027   2.338  0.00  0.00    -0.268 OA
ATOM     20  O   UNL     1      -2.251   1.722  -2.253  0.00  0.00    -0.268 OA
ATOM     21  H   UNL     1      -3.237   1.849   0.056  0.00  0.00    +0.172 HD
ENDBRANCH   1  14
TORSDOF 1
