REMARK  Name = ZINC46234656
REMARK  5 active torsions:
REMARK  status: ('A' for Active; 'I' for Inactive)
REMARK    1  A    between atoms: C_3  and  N_9
REMARK    2  A    between atoms: N_9  and  N_10
REMARK    3  A    between atoms: N_13  and  C_14
REMARK    4  A    between atoms: C_14  and  C_15
REMARK    5  A    between atoms: C_15  and  C_16
REMARK                            x       y       z     vdW  Elec       q    Type
REMARK                         _______ _______ _______ _____ _____    ______ ____
ROOT
ATOM      1  N   UNL     1       4.793   1.273  -0.037  0.00  0.00    -0.219 N 
ATOM      2  C   UNL     1       5.976   1.921  -0.046  0.00  0.00    +0.316 C 
ATOM      3  O   UNL     1       7.014   1.289  -0.059  0.00  0.00    -0.251 OA
ATOM      4  N   UNL     1       6.006   3.268  -0.039  0.00  0.00    -0.298 N 
ATOM      5  H   UNL     1       4.771   0.303  -0.042  0.00  0.00    +0.174 HD
ATOM      6  H   UNL     1       5.177   3.772  -0.029  0.00  0.00    +0.150 HD
ENDROOT
BRANCH   1   7
ATOM      7  N   UNL     1       3.596   2.001  -0.022  0.00  0.00    -0.246 N 
ATOM      8  H   UNL     1       3.618   2.971  -0.017  0.00  0.00    +0.172 HD
BRANCH   7  11
ATOM      9  C   UNL     1      -0.017   1.385   0.010  0.00  0.00    +0.046 A 
ATOM     10  C   UNL     1       1.191   2.062   0.002  0.00  0.00    +0.083 A 
ATOM     11  C   UNL     1       2.376   1.333  -0.013  0.00  0.00    +0.155 A 
ATOM     12  N   UNL     1       2.353   0.009  -0.020  0.00  0.00    -0.216 NA
ATOM     13  C   UNL     1       1.217  -0.664  -0.013  0.00  0.00    +0.150 A 
ATOM     14  C   UNL     1       0.002  -0.004   0.002  0.00  0.00    +0.079 A 
ATOM     15 CL   UNL     1      -1.484  -0.901   0.011  0.00  0.00    -0.080 Cl
ATOM     16 CL   UNL     1       1.250  -2.400  -0.023  0.00  0.00    -0.060 Cl
ATOM     17 CL   UNL     1       1.226   3.797   0.010  0.00  0.00    -0.080 Cl
ENDBRANCH   7  11
ENDBRANCH   1   7
BRANCH   4  18
ATOM     18  C   UNL     1       7.291   3.972  -0.048  0.00  0.00    +0.115 C 
BRANCH  18  19
ATOM     19  C   UNL     1       7.045   5.482  -0.038  0.00  0.00    +0.114 C 
BRANCH  19  20
ATOM     20  C   UNL     1       8.367   6.206  -0.047  0.00  0.00    +0.217 C 
ATOM     21  O   UNL     1       9.403   5.576  -0.061  0.00  0.00    -0.276 OA
ATOM     22  N   UNL     1       8.397   7.553  -0.041  0.00  0.00    -0.301 N 
ATOM     23  C   UNL     1       7.150   8.330  -0.019  0.00  0.00    +0.108 C 
ATOM     24  C   UNL     1       7.204   9.315   1.153  0.00  0.00    +0.019 C 
ATOM     25  C   UNL     1       8.472  10.165   1.043  0.00  0.00    +0.003 C 
ATOM     26  C   UNL     1       9.703   9.259   1.117  0.00  0.00    +0.019 C 
ATOM     27  C   UNL     1       9.678   8.273  -0.050  0.00  0.00    +0.108 C 
ENDBRANCH  19  20
ENDBRANCH  18  19
ENDBRANCH   4  18
TORSDOF 5
