REMARK  Name = ZINC09769252
REMARK  4 active torsions:
REMARK  status: ('A' for Active; 'I' for Inactive)
REMARK    1  A    between atoms: C_1  and  C_2
REMARK    2  A    between atoms: C_2  and  C_3
REMARK    3  A    between atoms: C_3  and  N_13
REMARK    4  A    between atoms: N_13  and  C_14
REMARK                            x       y       z     vdW  Elec       q    Type
REMARK                         _______ _______ _______ _____ _____    ______ ____
ROOT
ATOM      1  C   UNL     1      -0.082   5.787   0.104  0.00  0.00    +0.025 C 
ATOM      2  C   UNL     1       0.145   4.422   0.096  0.00  0.00    +0.116 C 
ATOM      3  C   UNL     1       1.459   3.863  -0.267  0.00  0.00    +0.256 C 
ATOM      4  O   UNL     1       2.386   4.591  -0.569  0.00  0.00    -0.270 OA
ATOM      5  N   UNL     1       1.607   2.522  -0.254  0.00  0.00    -0.263 N 
ATOM      6  C   UNL     1       0.594   1.709   0.077  0.00  0.00    +0.143 C 
ATOM      7  S   UNL     1       0.874   0.020   0.066  0.00  0.00    -0.018 S 
ATOM      8  N   UNL     1      -0.627   2.147   0.413  0.00  0.00    -0.263 N 
ATOM      9  C   UNL     1      -0.918   3.464   0.448  0.00  0.00    +0.256 C 
ATOM     10  O   UNL     1      -2.030   3.850   0.758  0.00  0.00    -0.270 OA
ATOM     11  H   UNL     1       2.465   2.138  -0.490  0.00  0.00    +0.157 HD
ATOM     12  H   UNL     1      -1.317   1.504   0.639  0.00  0.00    +0.157 HD
ENDROOT
BRANCH   1  14
ATOM     13  C   UNL     1      -1.704   6.487   1.844  0.00  0.00    +0.010 C 
ATOM     14  C   UNL     1      -1.472   6.318   0.341  0.00  0.00    +0.048 C 
ENDBRANCH   1  14
BRANCH   1  15
ATOM     15  N   UNL     1       0.942   6.641  -0.099  0.00  0.00    -0.315 N 
ATOM     16  H   UNL     1       1.705   6.635   0.499  0.00  0.00    +0.152 HD
BRANCH  15  17
ATOM     17  C   UNL     1       0.903   7.537  -1.174  0.00  0.00    +0.070 A 
ATOM     18  C   UNL     1      -0.137   7.475  -2.093  0.00  0.00    +0.029 A 
ATOM     19  C   UNL     1      -0.175   8.360  -3.153  0.00  0.00    +0.043 A 
ATOM     20  C   UNL     1       0.822   9.310  -3.301  0.00  0.00    +0.161 A 
ATOM     21  C   UNL     1       1.861   9.375  -2.386  0.00  0.00    +0.195 A 
ATOM     22  C   UNL     1       1.901   8.493  -1.320  0.00  0.00    +0.182 A 
ATOM     23  F   UNL     1       2.911   8.559  -0.424  0.00  0.00    -0.200 F 
ATOM     24  F   UNL     1       2.833  10.303  -2.533  0.00  0.00    -0.199 F 
ATOM     25  F   UNL     1       0.781  10.173  -4.339  0.00  0.00    -0.202 F 
ENDBRANCH  15  17
ENDBRANCH   1  15
TORSDOF 3
