REMARK  Name = ZINC58083279
REMARK  5 active torsions:
REMARK  status: ('A' for Active; 'I' for Inactive)
REMARK    1  A    between atoms: C_1  and  C_2
REMARK    2  A    between atoms: C_5  and  C_8
REMARK    3  A    between atoms: C_10  and  C_23
REMARK    4  A    between atoms: C_13  and  C_16
REMARK    5  A    between atoms: C_21  and  O_22
REMARK                            x       y       z     vdW  Elec       q    Type
REMARK                         _______ _______ _______ _____ _____    ______ ____
ROOT
ATOM      1  C   UNL     1       0.059  -4.249  -0.021  0.00  0.00    +0.047 C 
ATOM      2  N   UNL     1       0.067  -4.853  -1.150  0.00  0.00    -0.264 NA
ATOM      3  C   UNL     1       0.076  -6.302  -1.302  0.00  0.00    +0.210 C 
ATOM      4  N   UNL     1       0.493  -6.952  -0.055  0.00  0.00    -0.284 NA
ATOM      5  C   UNL     1      -0.302  -6.442   1.075  0.00  0.00    +0.095 C 
ATOM      6  C   UNL     1       0.075  -4.973   1.297  0.00  0.00    +0.079 C 
ATOM      7  H   UNL     1       0.417  -7.956  -0.127  0.00  0.00    +0.125 HD
ENDROOT
BRANCH   1  12
ATOM      8  C   UNL     1      -0.018   1.503   0.010  0.00  0.00    +0.044 C 
ATOM      9  C   UNL     1       0.002  -0.004   0.002  0.00  0.00    -0.050 A 
ATOM     10  C   UNL     1       0.006  -0.686  -1.202  0.00  0.00    +0.004 A 
ATOM     11  C   UNL     1       0.024  -2.065  -1.217  0.00  0.00    +0.010 A 
ATOM     12  C   UNL     1       0.040  -2.773  -0.013  0.00  0.00    -0.004 A 
ATOM     13  C   UNL     1       0.036  -2.079   1.198  0.00  0.00    +0.010 A 
ATOM     14  C   UNL     1       0.023  -0.699   1.198  0.00  0.00    +0.004 A 
ENDBRANCH   1  12
BRANCH   5  15
ATOM     15  C   UNL     1       0.009  -7.238   2.317  0.00  0.00    +0.011 A 
ATOM     16  C   UNL     1       1.227  -7.879   2.440  0.00  0.00    +0.009 A 
ATOM     17  C   UNL     1       1.513  -8.610   3.578  0.00  0.00    +0.001 A 
ATOM     18  C   UNL     1       0.582  -8.702   4.596  0.00  0.00    +0.004 A 
ATOM     19  C   UNL     1      -0.637  -8.062   4.478  0.00  0.00    +0.046 A 
ATOM     20  C   UNL     1      -0.924  -7.324   3.339  0.00  0.00    +0.122 A 
BRANCH  20  21
ATOM     21  O   UNL     1      -2.120  -6.689   3.223  0.00  0.00    -0.506 OA
ATOM     22  H   UNL     1      -2.812  -7.227   2.813  0.00  0.00    +0.292 HD
ENDBRANCH  20  21
ENDBRANCH   5  15
BRANCH   3  23
ATOM     23  C   UNL     1      -1.309  -6.771  -1.667  0.00  0.00    +0.028 A 
ATOM     24  C   UNL     1      -2.275  -6.123  -2.364  0.00  0.00    +0.014 A 
ATOM     25  C   UNL     1      -3.484  -6.756  -2.581  0.00  0.00    +0.008 A 
ATOM     26  C   UNL     1      -3.669  -8.006  -2.090  0.00  0.00    +0.045 A 
ATOM     27  S   UNL     1      -2.102  -8.328  -1.298  0.00  0.00    -0.098 S 
ENDBRANCH   3  23
TORSDOF 4
