REMARK  Name = ZINC15830298
REMARK  4 active torsions:
REMARK  status: ('A' for Active; 'I' for Inactive)
REMARK    1  A    between atoms: C_4  and  C_7
REMARK    2  A    between atoms: N_9  and  C_20
REMARK    3  A    between atoms: C_10  and  C_13
REMARK    4  A    between atoms: C_20  and  N_22
REMARK                            x       y       z     vdW  Elec       q    Type
REMARK                         _______ _______ _______ _____ _____    ______ ____
ROOT
ATOM      1  C   UNL     1       1.474  -0.348  -0.014  0.00  0.00    +0.069 C 
ATOM      2  N   UNL     1       2.170   0.736  -0.015  0.00  0.00    -0.182 NA
ATOM      3  N   UNL     1       1.407   1.902  -0.001  0.00  0.00    -0.197 N 
ATOM      4  C   UNL     1      -0.019   1.537   0.011  0.00  0.00    +0.136 C 
ATOM      5  C   UNL     1       0.002  -0.004   0.002  0.00  0.00    +0.087 C 
ENDROOT
BRANCH   4   6
ATOM      6  C   UNL     1      -0.688   2.052   1.259  0.00  0.00    -0.024 A 
ATOM      7  C   UNL     1      -2.004   2.472   1.215  0.00  0.00    +0.005 A 
ATOM      8  C   UNL     1      -2.618   2.944   2.360  0.00  0.00    +0.001 A 
ATOM      9  C   UNL     1      -1.916   2.996   3.550  0.00  0.00    +0.015 A 
ATOM     10  C   UNL     1      -0.599   2.575   3.595  0.00  0.00    +0.018 A 
ATOM     11  C   UNL     1       0.013   2.098   2.449  0.00  0.00    +0.020 A 
ATOM     12 BR   UNL     1       0.361   2.645   5.222  0.00  0.00    -0.050 Br
ENDBRANCH   4   6
BRANCH   1  16
ATOM     13  C   UNL     1       3.070  -4.281  -0.052  0.00  0.00    +0.000 A 
ATOM     14  C   UNL     1       3.923  -3.192  -0.054  0.00  0.00    +0.001 A 
ATOM     15  C   UNL     1       3.412  -1.911  -0.042  0.00  0.00    +0.010 A 
ATOM     16  C   UNL     1       2.029  -1.715  -0.027  0.00  0.00    -0.002 A 
ATOM     17  C   UNL     1       1.173  -2.819  -0.020  0.00  0.00    +0.010 A 
ATOM     18  C   UNL     1       1.699  -4.094  -0.038  0.00  0.00    +0.001 A 
ENDBRANCH   1  16
BRANCH   3  19
ATOM     19  C   UNL     1       1.895   3.158   0.000  0.00  0.00    +0.151 C 
ATOM     20  S   UNL     1       0.823   4.493   0.017  0.00  0.00    -0.017 S 
BRANCH  19  21
ATOM     21  N   UNL     1       3.227   3.364  -0.011  0.00  0.00    -0.339 N 
ATOM     22  H   UNL     1       3.834   2.607  -0.021  0.00  0.00    +0.144 HD
ATOM     23  H   UNL     1       3.578   4.268  -0.010  0.00  0.00    +0.144 HD
ENDBRANCH  19  21
ENDBRANCH   3  19
TORSDOF 4
