REMARK  Name = ZINC37359304
REMARK  6 active torsions:
REMARK  status: ('A' for Active; 'I' for Inactive)
REMARK    1  A    between atoms: C_4  and  N_7
REMARK    2  A    between atoms: C_8  and  N_35
REMARK    3  A    between atoms: C_10  and  C_30
REMARK    4  A    between atoms: N_19  and  C_22
REMARK    5  A    between atoms: C_22  and  C_23
REMARK    6  A    between atoms: C_23  and  N_24
REMARK                            x       y       z     vdW  Elec       q    Type
REMARK                         _______ _______ _______ _____ _____    ______ ____
ROOT
ATOM      1  N   UNL     1       3.784  -0.634   0.210  0.00  0.00    -0.216 N 
ATOM      2  C   UNL     1       3.959  -1.909   0.613  0.00  0.00    +0.131 A 
ATOM      3  C   UNL     1       5.187  -2.336   0.128  0.00  0.00    +0.087 A 
ATOM      4  C   UNL     1       5.942  -3.532   0.193  0.00  0.00    +0.095 A 
ATOM      5  N   UNL     1       7.123  -3.564  -0.420  0.00  0.00    -0.213 NA
ATOM      6  C   UNL     1       7.604  -2.517  -1.081  0.00  0.00    +0.220 A 
ATOM      7  N   UNL     1       6.968  -1.368  -1.190  0.00  0.00    -0.193 NA
ATOM      8  C   UNL     1       5.760  -1.200  -0.616  0.00  0.00    +0.189 A 
ATOM      9  N   UNL     1       4.888  -0.218  -0.542  0.00  0.00    -0.144 NA
ATOM     10  N   UNL     1       8.841  -2.639  -1.689  0.00  0.00    -0.303 N 
ATOM     11  C   UNL     1       9.601  -3.896  -1.611  0.00  0.00    +0.089 C 
ATOM     12  C   UNL     1      10.034  -4.291  -3.026  0.00  0.00    -0.059 C 
ATOM     13  N   UNL     1      10.766  -3.177  -3.642  0.00  0.00    +0.383 N 
ATOM     14  C   UNL     1       9.874  -2.023  -3.809  0.00  0.00    -0.059 C 
ATOM     15  C   UNL     1       9.430  -1.518  -2.437  0.00  0.00    +0.089 C 
ATOM     16  H   UNL     1      11.541  -2.918  -3.050  0.00  0.00    -0.082 HD
ENDROOT
BRANCH   1  20
ATOM     17  C   UNL     1       0.448   1.712   1.063  0.00  0.00    +0.000 A 
ATOM     18  C   UNL     1       1.700   2.294   0.992  0.00  0.00    +0.002 A 
ATOM     19  C   UNL     1       2.808   1.519   0.710  0.00  0.00    +0.028 A 
ATOM     20  C   UNL     1       2.663   0.154   0.497  0.00  0.00    +0.067 A 
ATOM     21  C   UNL     1       1.404  -0.427   0.570  0.00  0.00    +0.028 A 
ATOM     22  C   UNL     1       0.300   0.353   0.853  0.00  0.00    +0.002 A 
ENDBRANCH   1  20
BRANCH   4  23
ATOM     23  C   UNL     1       5.436  -4.707   0.918  0.00  0.00    +0.038 A 
ATOM     24  C   UNL     1       4.169  -5.265   0.899  0.00  0.00    +0.017 A 
ATOM     25  C   UNL     1       3.993  -6.376   1.692  0.00  0.00    +0.008 A 
ATOM     26  C   UNL     1       5.039  -6.839   2.417  0.00  0.00    +0.046 A 
ATOM     27  S   UNL     1       6.296  -5.789   2.044  0.00  0.00    -0.095 S 
ENDBRANCH   4  23
BRANCH   2  28
ATOM     28  N   UNL     1       3.075  -2.655   1.371  0.00  0.00    -0.342 N 
ATOM     29  H   UNL     1       2.188  -2.311   1.561  0.00  0.00    +0.144 HD
ATOM     30  H   UNL     1       3.342  -3.522   1.714  0.00  0.00    +0.144 HD
ENDBRANCH   2  28
BRANCH  13  31
ATOM     31  C   UNL     1      11.276  -3.594  -4.955  0.00  0.00    -0.063 C 
BRANCH  31  32
ATOM     32  C   UNL     1      12.143  -2.479  -5.543  0.00  0.00    +0.066 C 
BRANCH  32  33
ATOM     33  N   UNL     1      12.652  -2.897  -6.856  0.00  0.00    -0.300 NA
ATOM     34  C   UNL     1      13.586  -4.025  -6.725  0.00  0.00    +0.112 C 
ATOM     35  C   UNL     1      14.045  -4.465  -8.118  0.00  0.00    +0.175 C 
ATOM     36  O   UNL     1      14.633  -3.351  -8.794  0.00  0.00    -0.377 OA
ATOM     37  C   UNL     1      13.752  -2.234  -8.940  0.00  0.00    +0.175 C 
ATOM     38  C   UNL     1      13.290  -1.772  -7.556  0.00  0.00    +0.112 C 
ENDBRANCH  32  33
ENDBRANCH  31  32
ENDBRANCH  13  31
TORSDOF 6
