REMARK  Name = ZINC43396164
REMARK  6 active torsions:
REMARK  status: ('A' for Active; 'I' for Inactive)
REMARK    1  A    between atoms: C_1  and  C_2
REMARK    2  A    between atoms: C_5  and  C_18
REMARK    3  A    between atoms: C_6  and  N_8
REMARK    4  A    between atoms: C_10  and  C_17
REMARK    5  A    between atoms: C_13  and  C_16
REMARK    6  A    between atoms: C_18  and  N_20
REMARK                            x       y       z     vdW  Elec       q    Type
REMARK                         _______ _______ _______ _____ _____    ______ ____
ROOT
ATOM      1  C   UNL     1      -2.407  -0.773  -1.392  0.00  0.00    +0.065 C 
ATOM      2  C   UNL     1      -1.125  -1.077  -0.659  0.00  0.00    +0.040 A 
ATOM      3  C   UNL     1       0.083  -0.699  -1.218  0.00  0.00    +0.024 A 
ATOM      4  C   UNL     1       1.260  -0.978  -0.548  0.00  0.00    +0.015 A 
ATOM      5  C   UNL     1       1.184  -1.639   0.684  0.00  0.00    +0.043 A 
ATOM      6  C   UNL     1      -0.081  -1.991   1.186  0.00  0.00    +0.131 A 
ATOM      7  N   UNL     1      -1.177  -1.695   0.505  0.00  0.00    -0.237 NA
ENDROOT
BRANCH   6   8
ATOM      8  N   UNL     1      -0.181  -2.645   2.401  0.00  0.00    -0.310 N 
ATOM      9  C   UNL     1      -0.078  -4.111   2.482  0.00  0.00    +0.138 C 
ATOM     10  C   UNL     1      -1.272  -4.635   3.288  0.00  0.00    +0.133 C 
ATOM     11  O   UNL     1      -1.346  -3.934   4.531  0.00  0.00    -0.371 OA
ATOM     12  C   UNL     1      -1.573  -2.529   4.398  0.00  0.00    +0.133 C 
ATOM     13  C   UNL     1      -0.388  -1.896   3.650  0.00  0.00    +0.138 C 
ATOM     14  C   UNL     1      -1.696  -1.897   5.786  0.00  0.00    +0.039 C 
ATOM     15  C   UNL     1      -1.091  -6.131   3.554  0.00  0.00    +0.039 C 
ENDBRANCH   6   8
BRANCH   5  16
ATOM     16  C   UNL     1       2.407  -1.960   1.439  0.00  0.00    +0.080 C 
ATOM     17  S   UNL     1       2.291  -2.622   3.014  0.00  0.00    -0.035 S 
BRANCH  16  18
ATOM     18  N   UNL     1       3.617  -1.733   0.891  0.00  0.00    -0.352 N 
ATOM     19  H   UNL     1       3.683  -1.358  -0.002  0.00  0.00    +0.143 HD
ATOM     20  H   UNL     1       4.422  -1.945   1.388  0.00  0.00    +0.143 HD
ENDBRANCH  16  18
ENDBRANCH   5  16
TORSDOF 3
