REMARK  Name = ZINC37063097
REMARK  6 active torsions:
REMARK  status: ('A' for Active; 'I' for Inactive)
REMARK    1  A    between atoms: C_1  and  C_2
REMARK    2  A    between atoms: C_4  and  C_21
REMARK    3  A    between atoms: C_6  and  N_8
REMARK    4  A    between atoms: N_8  and  S_9
REMARK    5  A    between atoms: S_9  and  C_12
REMARK    6  A    between atoms: C_13  and  N_20
REMARK                            x       y       z     vdW  Elec       q    Type
REMARK                         _______ _______ _______ _____ _____    ______ ____
ROOT
ATOM      1  S   UNL     1       1.159  -2.410   3.581  0.00  0.00    +0.075 S 
ATOM      2  O   UNL     1       0.830  -3.371   4.575  0.00  0.00    -0.150 OA
ATOM      3  O   UNL     1       2.477  -2.261   3.072  0.00  0.00    -0.150 OA
ENDROOT
BRANCH   1   4
ATOM      4  C   UNL     1       0.686  -0.839   4.224  0.00  0.00    +0.143 A 
ATOM      5  C   UNL     1      -0.516  -0.700   4.905  0.00  0.00    +0.054 A 
ATOM      6  C   UNL     1      -0.886   0.540   5.411  0.00  0.00    +0.040 A 
ATOM      7  C   UNL     1      -0.056   1.631   5.235  0.00  0.00    +0.021 A 
ATOM      8  C   UNL     1       1.140   1.490   4.555  0.00  0.00    +0.032 A 
ATOM      9  C   UNL     1       1.514   0.255   4.055  0.00  0.00    +0.047 A 
ATOM     10 BR   UNL     1       3.154   0.065   3.134  0.00  0.00    -0.048 Br
ATOM     11 BR   UNL     1      -0.558   3.320   5.923  0.00  0.00    -0.050 Br
BRANCH   5  12
ATOM     12  N   UNL     1      -1.353  -1.805   5.081  0.00  0.00    -0.356 N 
ATOM     13  H   UNL     1      -1.133  -2.651   4.662  0.00  0.00    +0.142 HD
ATOM     14  H   UNL     1      -2.154  -1.725   5.623  0.00  0.00    +0.142 HD
ENDBRANCH   5  12
ENDBRANCH   1   4
BRANCH   1  15
ATOM     15  N   UNL     1       0.182  -2.721   2.280  0.00  0.00    -0.216 N 
ATOM     16  H   UNL     1      -0.462  -3.446   2.320  0.00  0.00    +0.174 HD
BRANCH  15  22
ATOM     17  C   UNL     1       0.488   1.716   0.189  0.00  0.00    +0.044 C 
ATOM     18  C   UNL     1       0.436   0.213   0.083  0.00  0.00    -0.048 A 
ATOM     19  C   UNL     1       0.490  -0.394  -1.158  0.00  0.00    +0.006 A 
ATOM     20  C   UNL     1       0.442  -1.772  -1.260  0.00  0.00    -0.048 A 
ATOM     21  C   UNL     1       0.340  -2.547  -0.122  0.00  0.00    +0.028 A 
ATOM     22  C   UNL     1       0.285  -1.940   1.127  0.00  0.00    +0.049 A 
ATOM     23  C   UNL     1       0.339  -0.556   1.226  0.00  0.00    +0.028 A 
ATOM     24  C   UNL     1       0.501  -2.429  -2.615  0.00  0.00    +0.044 C 
ENDBRANCH  15  22
ENDBRANCH   1  15
TORSDOF 4
