REMARK  Name = ZINC39657226
REMARK  7 active torsions:
REMARK  status: ('A' for Active; 'I' for Inactive)
REMARK    1  A    between atoms: C_1  and  C_2
REMARK    2  A    between atoms: C_4  and  C_8
REMARK    3  A    between atoms: N_6  and  C_7
REMARK    4  A    between atoms: C_12  and  C_21
REMARK    5  A    between atoms: N_23  and  C_24
REMARK    6  A    between atoms: C_24  and  C_26
REMARK    7  A    between atoms: C_24  and  C_27
REMARK                            x       y       z     vdW  Elec       q    Type
REMARK                         _______ _______ _______ _____ _____    ______ ____
ROOT
ATOM      1  C   UNL     1       0.076  -3.470  -1.504  0.00  0.00    +0.267 C 
ATOM      2  O   UNL     1       0.019  -3.437  -2.718  0.00  0.00    -0.268 OA
ATOM      3  N   UNL     1       0.063  -4.654  -0.861  0.00  0.00    -0.295 N 
ATOM      4  C   UNL     1       0.118  -4.894   0.601  0.00  0.00    +0.121 C 
ATOM      5  C   UNL     1      -0.860  -6.066   0.841  0.00  0.00    +0.100 C 
ATOM      6  C   UNL     1      -0.938  -6.795  -0.511  0.00  0.00    -0.004 C 
ATOM      7  C   UNL     1      -0.015  -6.010  -1.455  0.00  0.00    +0.115 C 
ATOM      8  C   UNL     1      -2.368  -6.773  -1.042  0.00  0.00    -0.010 C 
ATOM      9  C   UNL     1      -2.431  -7.553  -2.358  0.00  0.00    -0.082 C 
ATOM     10  N   UNL     1      -1.994  -8.935  -2.131  0.00  0.00    +0.379 N 
ATOM     11  C   UNL     1      -0.588  -8.953  -1.709  0.00  0.00    -0.082 C 
ATOM     12  C   UNL     1      -0.447  -8.232  -0.365  0.00  0.00    -0.010 C 
ATOM     13  H   UNL     1      -2.564  -9.353  -1.412  0.00  0.00    -0.086 HD
ATOM     14  H   UNL     1      -2.094  -9.463  -2.985  0.00  0.00    -0.086 HD
ENDROOT
BRANCH   1  18
ATOM     15  C   UNL     1       0.318   1.428  -0.223  0.00  0.00    +0.065 C 
ATOM     16  C   UNL     1       0.264  -0.077  -0.193  0.00  0.00    +0.037 A 
ATOM     17  C   UNL     1       0.182  -0.900  -1.265  0.00  0.00    +0.057 A 
ATOM     18  C   UNL     1       0.160  -2.212  -0.735  0.00  0.00    +0.147 A 
ATOM     19  N   UNL     1       0.226  -2.097   0.577  0.00  0.00    -0.167 NA
ATOM     20  N   UNL     1       0.292  -0.858   0.909  0.00  0.00    -0.271 N 
ATOM     21  C   UNL     1       0.383  -0.363   2.284  0.00  0.00    +0.172 C 
ENDBRANCH   1  18
BRANCH   5  22
ATOM     22  C   UNL     1      -0.325  -6.986   1.906  0.00  0.00    +0.219 C 
ATOM     23  O   UNL     1       0.873  -7.123   2.045  0.00  0.00    -0.275 OA
ATOM     24  N   UNL     1      -1.176  -7.659   2.706  0.00  0.00    -0.308 N 
ATOM     25  H   UNL     1      -2.134  -7.550   2.596  0.00  0.00    +0.149 HD
BRANCH  24  26
ATOM     26  C   UNL     1      -0.655  -8.554   3.742  0.00  0.00    +0.100 C 
ATOM     27  C   UNL     1      -0.373  -9.929   3.133  0.00  0.00    +0.033 C 
BRANCH  26  28
ATOM     28  C   UNL     1      -1.674  -8.693   4.845  0.00  0.00    -0.027 A 
ATOM     29  C   UNL     1      -3.017  -8.799   4.535  0.00  0.00    +0.006 A 
ATOM     30  C   UNL     1      -3.951  -8.927   5.546  0.00  0.00    +0.015 A 
ATOM     31  C   UNL     1      -3.542  -8.947   6.867  0.00  0.00    +0.018 A 
ATOM     32  C   UNL     1      -2.198  -8.840   7.176  0.00  0.00    +0.015 A 
ATOM     33  C   UNL     1      -1.264  -8.718   6.165  0.00  0.00    +0.006 A 
ATOM     34 BR   UNL     1      -4.820  -9.121   8.250  0.00  0.00    -0.050 Br
ENDBRANCH  26  28
ENDBRANCH  24  26
ENDBRANCH   5  22
TORSDOF 4
