REMARK  Name = ZINC08214990
REMARK  10 active torsions:
REMARK  status: ('A' for Active; 'I' for Inactive)
REMARK    1  A    between atoms: C_1  and  C_2
REMARK    2  A    between atoms: C_2  and  N_69
REMARK    3  A    between atoms: C_4  and  C_39
REMARK    4  A    between atoms: C_7  and  O_37
REMARK    5  A    between atoms: C_12  and  O_36
REMARK    6  A    between atoms: C_19  and  O_31
REMARK    7  A    between atoms: C_24  and  O_30
REMARK    8  A    between atoms: C_27  and  O_29
REMARK    9  A    between atoms: O_31  and  C_32
REMARK   10  A    between atoms: O_37  and  C_38
REMARK                            x       y       z     vdW  Elec       q    Type
REMARK                         _______ _______ _______ _____ _____    ______ ____
ROOT
ATOM      1  C   UNL     1       0.651   3.650   1.028  0.00  0.00    -0.071 C 
ATOM      2  C   UNL     1      -0.756   3.097   1.248  0.00  0.00    -0.041 C 
ATOM      3  C   UNL     1      -0.734   1.574   1.266  0.00  0.00    +0.008 C 
ATOM      4  C   UNL     1      -0.013   1.091   0.008  0.00  0.00    +0.032 C 
ATOM      5  C   UNL     1      -0.758   1.587  -1.218  0.00  0.00    +0.126 C 
ATOM      6  C   UNL     1      -1.107   3.052  -1.224  0.00  0.00    +0.023 C 
ATOM      7  C   UNL     1      -1.657   3.612   0.106  0.00  0.00    +0.035 C 
ATOM      8  C   UNL     1      -1.325   5.137   0.065  0.00  0.00    +0.152 C 
ATOM      9  C   UNL     1      -0.451   5.310  -1.179  0.00  0.00    +0.116 C 
ATOM     10  C   UNL     1       0.167   3.930  -1.406  0.00  0.00    -0.019 C 
ATOM     11  C   UNL     1      -1.317   5.689  -2.413  0.00  0.00    +0.112 C 
ATOM     12  C   UNL     1      -0.424   5.622  -3.634  0.00  0.00    +0.070 C 
ATOM     13  C   UNL     1      -1.038   5.149  -4.937  0.00  0.00    +0.126 C 
ATOM     14  C   UNL     1      -2.157   4.128  -4.673  0.00  0.00    +0.050 C 
ATOM     15  C   UNL     1      -1.545   3.046  -3.739  0.00  0.00    +0.044 C 
ATOM     16  C   UNL     1      -2.105   3.328  -2.338  0.00  0.00    +0.081 C 
ATOM     17  C   UNL     1      -2.545   4.807  -2.409  0.00  0.00    +0.085 C 
ATOM     18  C   UNL     1      -3.216   4.855  -3.811  0.00  0.00    +0.129 C 
ATOM     19  O   UNL     1      -1.596   7.071  -2.112  0.00  0.00    -0.344 OA
ATOM     20  C   UNL     1      -0.422   7.556  -1.426  0.00  0.00    +0.324 C 
ATOM     21  O   UNL     1       0.420   6.424  -1.097  0.00  0.00    -0.344 OA
ATOM     22  C   UNL     1      -1.302   3.583   2.595  0.00  0.00    +0.009 C 
ATOM     23  N   UNL     1       1.144   3.467  -0.368  0.00  0.00    +0.384 N 
ATOM     24  H   UNL     1       1.296   2.462  -0.513  0.00  0.00    -0.081 HD
ENDROOT
BRANCH  23  26
ATOM     25  C   UNL     1       3.414   3.534   0.448  0.00  0.00    -0.017 C 
ATOM     26  C   UNL     1       2.428   4.152  -0.545  0.00  0.00    -0.082 C 
ENDBRANCH  23  26
BRANCH  18  27
ATOM     27  O   UNL     1      -3.460   6.195  -4.224  0.00  0.00    -0.391 OA
ATOM     28  H   UNL     1      -3.878   6.268  -5.093  0.00  0.00    +0.210 HD
ENDBRANCH  18  27
BRANCH  16  29
ATOM     29  O   UNL     1      -3.264   2.512  -2.135  0.00  0.00    -0.388 OA
ATOM     30  H   UNL     1      -3.950   2.630  -2.807  0.00  0.00    +0.210 HD
ENDBRANCH  16  29
BRANCH  13  31
ATOM     31  O   UNL     1      -1.502   6.253  -5.718  0.00  0.00    -0.379 OA
ATOM     32  C   UNL     1      -0.496   6.844  -6.544  0.00  0.00    +0.194 C 
ENDBRANCH  13  31
BRANCH   8  33
ATOM     33  O   UNL     1      -2.498   5.940   0.034  0.00  0.00    -0.389 OA
ATOM     34  H   UNL     1      -3.066   5.837   0.810  0.00  0.00    +0.210 HD
ENDBRANCH   8  33
BRANCH   5  35
ATOM     35  O   UNL     1       0.041   1.293  -2.370  0.00  0.00    -0.379 OA
ATOM     36  C   UNL     1      -0.222   0.013  -2.949  0.00  0.00    +0.194 C 
ENDBRANCH   5  35
TORSDOF 6
