REMARK  Name = ZINC03299622
REMARK  7 active torsions:
REMARK  status: ('A' for Active; 'I' for Inactive)
REMARK    1  A    between atoms: C_3  and  C_6
REMARK    2  A    between atoms: C_9  and  S_12
REMARK    3  A    between atoms: N_10  and  N_11
REMARK    4  A    between atoms: S_12  and  C_13
REMARK    5  A    between atoms: C_13  and  C_14
REMARK    6  A    between atoms: C_17  and  C_29
REMARK    7  A    between atoms: C_20  and  C_22
REMARK                            x       y       z     vdW  Elec       q    Type
REMARK                         _______ _______ _______ _____ _____    ______ ____
ROOT
ATOM      1  C   UNL     1      -4.900   2.231   0.037  0.00  0.00    +0.243 C 
ATOM      2  O   UNL     1      -5.676   3.163   0.045  0.00  0.00    -0.273 OA
ATOM      3  N   UNL     1      -3.572   2.459   0.032  0.00  0.00    -0.207 N 
ATOM      4  C   UNL     1      -2.898   3.768   0.036  0.00  0.00    +0.187 C 
ATOM      5  C   UNL     1      -1.422   3.441   0.028  0.00  0.00    +0.030 C 
ATOM      6  C   UNL     1      -1.308   2.116   0.020  0.00  0.00    +0.050 C 
ATOM      7  N   UNL     1      -2.551   1.499   0.016  0.00  0.00    -0.261 N 
ATOM      8  H   UNL     1      -2.693   0.539   0.007  0.00  0.00    +0.170 HD
ENDROOT
BRANCH   6   9
ATOM      9  C   UNL     1      -0.017   1.390   0.010  0.00  0.00    -0.003 A 
ATOM     10  C   UNL     1       1.184   2.099   0.002  0.00  0.00    +0.011 A 
ATOM     11  C   UNL     1       2.384   1.418  -0.013  0.00  0.00    +0.020 A 
ATOM     12  C   UNL     1       2.397   0.034  -0.021  0.00  0.00    +0.041 A 
ATOM     13  C   UNL     1       1.208  -0.675  -0.013  0.00  0.00    +0.020 A 
ATOM     14  C   UNL     1       0.002  -0.004   0.002  0.00  0.00    +0.011 A 
ATOM     15 CL   UNL     1       3.910  -0.817  -0.039  0.00  0.00    -0.084 Cl
ENDBRANCH   6   9
BRANCH   4  16
ATOM     16  C   UNL     1      -3.257   4.542   1.279  0.00  0.00    +0.131 A 
ATOM     17  C   UNL     1      -3.446   5.872   1.350  0.00  0.00    +0.047 A 
ATOM     18  C   UNL     1      -3.767   6.169   2.695  0.00  0.00    +0.041 A 
ATOM     19  C   UNL     1      -3.746   5.003   3.366  0.00  0.00    +0.195 A 
ATOM     20  O   UNL     1      -3.437   4.022   2.504  0.00  0.00    -0.466 OA
ENDBRANCH   4  16
BRANCH   1  21
ATOM     21  C   UNL     1      -5.421   0.817   0.032  0.00  0.00    +0.175 C 
BRANCH  21  22
ATOM     22  S   UNL     1      -7.231   0.841   0.040  0.00  0.00    -0.075 S 
BRANCH  22  26
ATOM     23  C   UNL     1      -8.555  -2.837   0.026  0.00  0.00    +0.217 A 
ATOM     24  N   UNL     1      -7.250  -2.998   0.019  0.00  0.00    -0.123 NA
ATOM     25  N   UNL     1      -6.667  -1.853   0.017  0.00  0.00    -0.120 NA
ATOM     26  C   UNL     1      -7.561  -0.890   0.032  0.00  0.00    +0.209 A 
ATOM     27  N   UNL     1      -8.793  -1.480   0.034  0.00  0.00    -0.221 N 
BRANCH  23  30
ATOM     28  C   UNL     1     -10.588  -5.872  -0.149  0.00  0.00    +0.042 A 
ATOM     29  C   UNL     1      -9.348  -5.216  -0.270  0.00  0.00    +0.053 A 
ATOM     30  C   UNL     1      -9.568  -3.903   0.023  0.00  0.00    +0.173 A 
ATOM     31  O   UNL     1     -10.875  -3.754   0.317  0.00  0.00    -0.460 OA
ATOM     32  C   UNL     1     -11.495  -4.941   0.209  0.00  0.00    +0.196 A 
ENDBRANCH  23  30
BRANCH  27  33
ATOM     33  N   UNL     1     -10.008  -0.855   0.043  0.00  0.00    -0.294 N 
ATOM     34  H   UNL     1     -10.334  -0.685  -0.896  0.00  0.00    +0.163 HD
ATOM     35  H   UNL     1     -10.684  -1.387   0.570  0.00  0.00    +0.163 HD
ENDBRANCH  27  33
ENDBRANCH  22  26
ENDBRANCH  21  22
ENDBRANCH   1  21
TORSDOF 7
