REMARK  Name = ZINC22787920
REMARK  8 active torsions:
REMARK  status: ('A' for Active; 'I' for Inactive)
REMARK    1  A    between atoms: C_1  and  C_2
REMARK    2  A    between atoms: C_2  and  C_4
REMARK    3  A    between atoms: C_2  and  N_18
REMARK    4  A    between atoms: N_6  and  C_7
REMARK    5  A    between atoms: C_8  and  C_15
REMARK    6  A    between atoms: N_21  and  C_24
REMARK    7  A    between atoms: C_24  and  C_25
REMARK    8  A    between atoms: N_27  and  C_28
REMARK                            x       y       z     vdW  Elec       q    Type
REMARK                         _______ _______ _______ _____ _____    ______ ____
ROOT
ATOM      1  C   UNL     1       5.824   0.867  -2.004  0.00  0.00    +0.034 C 
ATOM      2  C   UNL     1       6.169   0.974  -0.517  0.00  0.00    +0.140 C 
ENDROOT
BRANCH   2   3
ATOM      3  N   UNL     1       4.981   1.407   0.231  0.00  0.00    -0.295 NA
ATOM      4  C   UNL     1       4.352   2.572  -0.408  0.00  0.00    +0.066 C 
ATOM      5  C   UNL     1       3.169   3.040   0.443  0.00  0.00    -0.063 C 
ATOM      6  N   UNL     1       2.207   1.939   0.588  0.00  0.00    +0.387 N 
ATOM      7  C   UNL     1       2.836   0.774   1.226  0.00  0.00    -0.063 C 
ATOM      8  C   UNL     1       4.019   0.306   0.376  0.00  0.00    +0.066 C 
ATOM      9  H   UNL     1       1.880   1.639  -0.419  0.00  0.00    -0.081 HD
BRANCH   6  10
ATOM     10  C   UNL     1       1.019   2.372   1.336  0.00  0.00    +0.019 C 
BRANCH  10  11
ATOM     11  C   UNL     1      -0.043   1.306   1.254  0.00  0.00    +0.201 C 
ATOM     12  O   UNL     1       0.169   0.285   0.634  0.00  0.00    -0.278 OA
ATOM     13  N   UNL     1      -1.230   1.488   1.866  0.00  0.00    -0.286 N 
ATOM     14  H   UNL     1      -1.390   2.371   2.502  0.00  0.00    +0.155 HD
BRANCH  13  15
ATOM     15  C   UNL     1      -2.258   0.554   1.692  0.00  0.00    +0.052 A 
ATOM     16  C   UNL     1      -2.244  -0.299   0.597  0.00  0.00    +0.025 A 
ATOM     17  C   UNL     1      -3.257  -1.223   0.431  0.00  0.00    +0.002 A 
ATOM     18  C   UNL     1      -4.290  -1.292   1.348  0.00  0.00    +0.002 A 
ATOM     19  C   UNL     1      -4.310  -0.440   2.437  0.00  0.00    +0.022 A 
ATOM     20  C   UNL     1      -3.297   0.483   2.612  0.00  0.00    +0.062 A 
ATOM     21 CL   UNL     1      -3.322   1.553   3.978  0.00  0.00    -0.082 Cl
ENDBRANCH  13  15
ENDBRANCH  10  11
ENDBRANCH   6  10
ENDBRANCH   2   3
BRANCH   2  22
ATOM     22  C   UNL     1       7.275   1.980  -0.329  0.00  0.00    +0.235 C 
ATOM     23  O   UNL     1       7.029   3.073   0.136  0.00  0.00    -0.274 OA
ATOM     24  N   UNL     1       8.539   1.665  -0.677  0.00  0.00    -0.278 N 
ATOM     25  H   UNL     1       8.762   0.674  -1.099  0.00  0.00    +0.155 HD
BRANCH  24  26
ATOM     26  C   UNL     1       9.557   2.590  -0.505  0.00  0.00    +0.084 A 
ATOM     27  C   UNL     1      10.903   2.452  -0.794  0.00  0.00    +0.068 A 
ATOM     28  C   UNL     1      11.776   3.592  -0.518  0.00  0.00    -0.023 A 
ATOM     29  C   UNL     1      11.162   4.668   0.006  0.00  0.00    -0.004 A 
ATOM     30  S   UNL     1       9.454   4.196   0.132  0.00  0.00    -0.077 S 
ATOM     31  C   UNL     1      12.123   5.797   0.264  0.00  0.00    +0.043 C 
ATOM     32  C   UNL     1      13.372   5.443  -0.573  0.00  0.00    +0.010 C 
ATOM     33  C   UNL     1      13.265   3.908  -0.663  0.00  0.00    +0.037 C 
BRANCH  27  34
ATOM     34  C   UNL     1      11.435   1.208  -1.360  0.00  0.00    +0.244 C 
ATOM     35  O   UNL     1      11.485   1.062  -2.567  0.00  0.00    -0.270 OA
ATOM     36  N   UNL     1      11.868   0.227  -0.544  0.00  0.00    -0.325 N 
ATOM     37  H   UNL     1      12.266  -0.706  -0.969  0.00  0.00    +0.145 HD
ATOM     38  H   UNL     1      11.822   0.359   0.547  0.00  0.00    +0.145 HD
ENDBRANCH  27  34
ENDBRANCH  24  26
ENDBRANCH   2  22
TORSDOF 7
