REMARK  Name = ZINC38873917
REMARK  7 active torsions:
REMARK  status: ('A' for Active; 'I' for Inactive)
REMARK    1  A    between atoms: C_2  and  C_3
REMARK    2  A    between atoms: C_3  and  N_4
REMARK    3  A    between atoms: C_8  and  S_26
REMARK    4  A    between atoms: N_13  and  C_14
REMARK    5  A    between atoms: C_14  and  C_16
REMARK    6  A    between atoms: C_19  and  C_22
REMARK    7  A    between atoms: S_26  and  N_29
REMARK                            x       y       z     vdW  Elec       q    Type
REMARK                         _______ _______ _______ _____ _____    ______ ____
ROOT
ATOM      1  N   UNL     1       1.357   1.975  -0.000  0.00  0.00    -0.310 N 
ATOM      2  C   UNL     1       2.020   2.203   1.190  0.00  0.00    +0.059 A 
ATOM      3  C   UNL     1       1.569   2.020   2.505  0.00  0.00    +0.029 A 
ATOM      4  C   UNL     1       2.387   2.307   3.573  0.00  0.00    +0.030 A 
ATOM      5  C   UNL     1       3.673   2.783   3.383  0.00  0.00    +0.106 A 
ATOM      6  C   UNL     1       4.143   2.973   2.095  0.00  0.00    +0.045 A 
ATOM      7  C   UNL     1       3.326   2.687   1.027  0.00  0.00    +0.041 A 
ATOM      8  S   UNL     1       3.506   2.776  -0.735  0.00  0.00    -0.052 S 
ATOM      9  C   UNL     1       1.985   2.216  -1.180  0.00  0.00    +0.168 A 
ATOM     10  N   UNL     1       1.505   2.050  -2.408  0.00  0.00    -0.152 NA
ENDROOT
BRANCH   5  11
ATOM     11  S   UNL     1       4.702   3.144   4.767  0.00  0.00    +0.056 S 
ATOM     12  O   UNL     1       5.663   4.091   4.323  0.00  0.00    -0.153 OA
ATOM     13  O   UNL     1       3.833   3.397   5.863  0.00  0.00    -0.153 OA
BRANCH  11  14
ATOM     14  N   UNL     1       5.534   1.760   5.133  0.00  0.00    -0.204 NA
ATOM     15  H   UNL     1       5.396   0.958   4.606  0.00  0.00    +0.144 HD
ATOM     16  H   UNL     1       6.161   1.752   5.873  0.00  0.00    +0.144 HD
ENDBRANCH  11  14
ENDBRANCH   5  11
BRANCH  10  17
ATOM     17  C   UNL     1       2.265   2.339  -3.468  0.00  0.00    +0.269 C 
ATOM     18  O   UNL     1       3.400   2.756  -3.309  0.00  0.00    -0.268 OA
BRANCH  17  19
ATOM     19  C   UNL     1       1.730   2.154  -4.837  0.00  0.00    +0.039 A 
ATOM     20  C   UNL     1       0.431   1.682  -5.022  0.00  0.00    +0.013 A 
ATOM     21  C   UNL     1      -0.062   1.511  -6.300  0.00  0.00    +0.013 A 
ATOM     22  C   UNL     1       0.730   1.806  -7.395  0.00  0.00    +0.055 A 
ATOM     23  C   UNL     1       2.020   2.273  -7.217  0.00  0.00    +0.013 A 
ATOM     24  C   UNL     1       2.522   2.455  -5.945  0.00  0.00    +0.013 A 
BRANCH  22  25
ATOM     25  C   UNL     1       0.186   1.616  -8.788  0.00  0.00    +0.417 C 
ATOM     26  F   UNL     1      -0.433   2.797  -9.211  0.00  0.00    -0.166 F 
ATOM     27  F   UNL     1       1.234   1.301  -9.659  0.00  0.00    -0.166 F 
ATOM     28  F   UNL     1      -0.748   0.574  -8.785  0.00  0.00    -0.166 F 
ENDBRANCH  22  25
ENDBRANCH  17  19
ENDBRANCH  10  17
BRANCH   1  29
ATOM     29  C   UNL     1      -0.018   1.468   0.010  0.00  0.00    +0.212 C 
BRANCH  29  31
ATOM     30  C   UNL     1       0.018  -1.178  -0.004  0.00  0.00    +0.005 C 
ATOM     31  C   UNL     1       0.002  -0.004   0.002  0.00  0.00    -0.084 C 
ENDBRANCH  29  31
ENDBRANCH   1  29
TORSDOF 7
