REMARK  Name = ZINC33444517
REMARK  4 active torsions:
REMARK  status: ('A' for Active; 'I' for Inactive)
REMARK    1  A    between atoms: C_4  and  C_15
REMARK    2  A    between atoms: C_6  and  C_9
REMARK    3  A    between atoms: N_11  and  C_12
REMARK    4  A    between atoms: C_20  and  N_23
REMARK                            x       y       z     vdW  Elec       q    Type
REMARK                         _______ _______ _______ _____ _____    ______ ____
ROOT
ATOM      1  C   UNL     1       2.083   2.956  -7.599  0.00  0.00    +0.001 C 
ATOM      2  C   UNL     1       1.683   1.830  -6.644  0.00  0.00    +0.001 C 
ATOM      3  C   UNL     1       1.056   2.429  -5.383  0.00  0.00    +0.013 C 
ATOM      4  C   UNL     1      -0.184   3.239  -5.765  0.00  0.00    +0.087 C 
ATOM      5  C   UNL     1       0.216   4.365  -6.719  0.00  0.00    +0.087 C 
ATOM      6  C   UNL     1       0.843   3.767  -7.980  0.00  0.00    +0.013 C 
ENDROOT
BRANCH   4   7
ATOM      7  C   UNL     1      -0.801   3.828  -4.522  0.00  0.00    +0.219 C 
ATOM      8  O   UNL     1      -0.797   5.029  -4.355  0.00  0.00    -0.275 OA
ATOM      9  N   UNL     1      -1.357   3.021  -3.598  0.00  0.00    -0.301 N 
ATOM     10  C   UNL     1      -1.473   1.576  -3.838  0.00  0.00    +0.106 C 
ATOM     11  C   UNL     1      -2.933   1.158  -3.635  0.00  0.00    +0.003 C 
ATOM     12  C   UNL     1      -3.398   1.604  -2.246  0.00  0.00    -0.072 C 
ATOM     13  C   UNL     1      -3.313   3.128  -2.143  0.00  0.00    +0.003 C 
ATOM     14  C   UNL     1      -1.857   3.568  -2.329  0.00  0.00    +0.106 C 
BRANCH  12  15
ATOM     15  N   UNL     1      -4.787   1.176  -2.035  0.00  0.00    +0.380 N 
ATOM     16  H   UNL     1      -5.122   1.496  -1.037  0.00  0.00    -0.090 HD
ATOM     17  H   UNL     1      -4.848   0.080  -2.108  0.00  0.00    -0.090 HD
ATOM     18  H   UNL     1      -5.432   1.631  -2.801  0.00  0.00    -0.090 HD
ENDBRANCH  12  15
ENDBRANCH   4   7
BRANCH   5  19
ATOM     19  C   UNL     1       1.216   5.266  -6.041  0.00  0.00    +0.217 C 
ATOM     20  O   UNL     1       1.573   5.031  -4.906  0.00  0.00    -0.275 OA
ATOM     21  N   UNL     1       1.713   6.334  -6.696  0.00  0.00    -0.312 N 
ATOM     22  H   UNL     1       1.390   6.548  -7.726  0.00  0.00    +0.149 HD
BRANCH  21  23
ATOM     23  C   UNL     1       2.685   7.210  -6.037  0.00  0.00    +0.073 C 
ATOM     24  C   UNL     1       2.495   8.720  -6.194  0.00  0.00    +0.024 C 
ATOM     25  C   UNL     1       3.634   8.012  -6.931  0.00  0.00    +0.024 C 
ENDBRANCH  21  23
ENDBRANCH   5  19
TORSDOF 4
