REMARK  Name = ZINC40551224
REMARK  7 active torsions:
REMARK  status: ('A' for Active; 'I' for Inactive)
REMARK    1  A    between atoms: CE_1  and  SD_2
REMARK    2  A    between atoms: SD_2  and  CG_3
REMARK    3  A    between atoms: CG_3  and  CB_4
REMARK    4  A    between atoms: CB_4  and  CA_5
REMARK    5  A    between atoms: CA_5  and  C_7
REMARK    6  A    between atoms: CA_5  and  N_10
REMARK    7  A    between atoms: N_13  and  C_14
REMARK                            x       y       z     vdW  Elec       q    Type
REMARK                         _______ _______ _______ _____ _____    ______ ____
ROOT
ATOM      1  N   MET A   1       0.985  -1.897   4.078  0.00  0.00    -0.286 N 
ATOM      2  C   UNK A   0       1.613  -1.641   5.242  0.00  0.00    +0.300 C 
ATOM      3  O   UNK A   0       2.819  -1.768   5.324  0.00  0.00    -0.253 OA
ATOM      4  N   UNK A   0       0.903  -1.244   6.317  0.00  0.00    -0.298 N 
ATOM      5  H   MET A   1       0.023  -1.796   4.013  0.00  0.00    +0.151 HD
ATOM      6  H   UNK A   0      -0.059  -1.143   6.252  0.00  0.00    +0.150 HD
ENDROOT
BRANCH   4   7
ATOM      7  C   UNK A   0       1.585  -0.966   7.583  0.00  0.00    +0.061 C 
ATOM      8  C   UNK A   0       1.758  -2.267   8.370  0.00  0.00    -0.056 C 
ATOM      9  N   UNK A   0       1.069  -2.168   9.659  0.00  0.00    +0.381 N 
ATOM     10  C   UNK A   0       1.640  -1.088  10.467  0.00  0.00    -0.078 C 
ATOM     11  C   UNK A   0       1.464   0.252   9.751  0.00  0.00    -0.014 C 
ATOM     12  C   UNK A   0       0.745   0.012   8.416  0.00  0.00    +0.004 C 
ATOM     13  C   UNK A   0      -0.610  -0.644   8.711  0.00  0.00    -0.014 C 
ATOM     14  C   UNK A   0      -0.367  -1.962   9.462  0.00  0.00    -0.078 C 
ATOM     15  H   UNK A   0       1.202  -3.035  10.159  0.00  0.00    -0.082 HD
ENDBRANCH   4   7
BRANCH   1  16
ATOM     16  CA  MET A   1       1.757  -2.329   2.909  0.00  0.00    +0.188 C 
BRANCH  16  17
ATOM     17  C   MET A   1       1.957  -3.821   2.963  0.00  0.00    +0.376 C 
ATOM     18  O   MET A   1       2.954  -4.320   2.470  0.00  0.00    -0.244 OA
ATOM     19  OXT MET A   1       1.123  -4.529   3.500  0.00  0.00    -0.244 OA
ENDBRANCH  16  17
BRANCH  16  20
ATOM     20  CB  MET A   1       0.997  -1.962   1.633  0.00  0.00    +0.044 C 
BRANCH  20  21
ATOM     21  CG  MET A   1       0.902  -0.439   1.516  0.00  0.00    +0.071 C 
BRANCH  21  23
ATOM     22  CE  MET A   1      -0.022   1.810   0.012  0.00  0.00    +0.084 C 
ATOM     23  SD  MET A   1       0.002  -0.004   0.002  0.00  0.00    -0.164 S 
ENDBRANCH  21  23
ENDBRANCH  20  21
ENDBRANCH  16  20
ENDBRANCH   1  16
TORSDOF 6
