REMARK  Name = ZINC58478423
REMARK  3 active torsions:
REMARK  status: ('A' for Active; 'I' for Inactive)
REMARK    1  A    between atoms: C_3  and  N_17
REMARK    2  A    between atoms: C_4  and  C_14
REMARK    3  A    between atoms: C_6  and  N_7
REMARK                            x       y       z     vdW  Elec       q    Type
REMARK                         _______ _______ _______ _____ _____    ______ ____
ROOT
ATOM      1  C   UNL     1       1.292  -0.683  -0.045  0.00  0.00    +0.025 A 
ATOM      2  C   UNL     1       2.443   0.077  -0.045  0.00  0.00    +0.025 A 
ATOM      3  C   UNL     1       2.363   1.463  -0.007  0.00  0.00    +0.037 A 
ATOM      4  C   UNL     1       1.108   2.088   0.032  0.00  0.00    +0.059 A 
ATOM      5  C   UNL     1      -0.053   1.310   0.032  0.00  0.00    +0.038 A 
ATOM      6  C   UNL     1       0.044  -0.070  -0.006  0.00  0.00    +0.031 A 
ENDROOT
BRANCH   6   7
ATOM      7  N   UNL     1      -1.118  -0.851  -0.007  0.00  0.00    -0.330 N 
ATOM      8  C   UNL     1      -0.988  -2.287   0.093  0.00  0.00    +0.105 C 
ATOM      9  C   UNL     1      -0.858  -2.897  -1.325  0.00  0.00    +0.019 C 
ATOM     10  C   UNL     1      -2.143  -2.816  -2.035  0.00  0.00    +0.002 C 
ATOM     11  C   UNL     1      -2.637  -1.393  -2.280  0.00  0.00    +0.002 C 
ATOM     12  C   UNL     1      -3.386  -0.907  -1.063  0.00  0.00    +0.019 C 
ATOM     13  C   UNL     1      -2.426  -0.174  -0.103  0.00  0.00    +0.105 C 
ENDBRANCH   6   7
BRANCH   4  14
ATOM     14  C   UNL     1       1.013   3.559   0.073  0.00  0.00    +0.243 C 
ATOM     15  O   UNL     1       2.018   4.236  -0.028  0.00  0.00    -0.270 OA
ATOM     16  N   UNL     1      -0.187   4.154   0.223  0.00  0.00    -0.325 N 
ATOM     17  H   UNL     1      -0.989   3.614   0.304  0.00  0.00    +0.145 HD
ATOM     18  H   UNL     1      -0.249   5.121   0.250  0.00  0.00    +0.145 HD
ENDBRANCH   4  14
BRANCH   3  19
ATOM     19  N   UNL     1       3.525   2.230  -0.007  0.00  0.00    -0.357 N 
ATOM     20  H   UNL     1       4.391   1.797   0.044  0.00  0.00    +0.142 HD
ATOM     21  H   UNL     1       3.468   3.197  -0.058  0.00  0.00    +0.142 HD
ENDBRANCH   3  19
TORSDOF 3
