REMARK  Name = ZINC43425565
REMARK  3 active torsions:
REMARK  status: ('A' for Active; 'I' for Inactive)
REMARK    1  A    between atoms: C_3  and  N_11
REMARK    2  A    between atoms: C_6  and  C_7
REMARK    3  A    between atoms: N_8  and  O_9
REMARK                            x       y       z     vdW  Elec       q    Type
REMARK                         _______ _______ _______ _____ _____    ______ ____
ROOT
ATOM      1  C   UNL     1       0.629   0.178   1.323  0.00  0.00    +0.013 A 
ATOM      2  C   UNL     1       1.790   0.915   1.400  0.00  0.00    +0.024 A 
ATOM      3  C   UNL     1       2.315   1.510   0.258  0.00  0.00    +0.030 A 
ATOM      4  C   UNL     1       1.669   1.363  -0.965  0.00  0.00    +0.024 A 
ATOM      5  C   UNL     1       0.508   0.628  -1.048  0.00  0.00    +0.013 A 
ATOM      6  C   UNL     1      -0.021   0.029   0.096  0.00  0.00    +0.018 A 
ENDROOT
BRANCH   3   7
ATOM      7  N   UNL     1       3.490   2.255   0.339  0.00  0.00    -0.322 N 
ATOM      8  C   UNL     1       3.485   3.718   0.160  0.00  0.00    +0.133 C 
ATOM      9  C   UNL     1       4.562   4.096  -0.862  0.00  0.00    +0.179 C 
ATOM     10  O   UNL     1       5.809   3.496  -0.496  0.00  0.00    -0.373 OA
ATOM     11  C   UNL     1       5.771   2.071  -0.473  0.00  0.00    +0.139 C 
ATOM     12  C   UNL     1       4.783   1.616   0.613  0.00  0.00    +0.102 C 
ATOM     13  C   UNL     1       4.660   0.095   0.567  0.00  0.00    +0.025 C 
ATOM     14  C   UNL     1       6.031  -0.523   0.859  0.00  0.00    +0.002 C 
ATOM     15  C   UNL     1       7.048  -0.050  -0.180  0.00  0.00    +0.003 C 
ATOM     16  C   UNL     1       7.143   1.482  -0.155  0.00  0.00    +0.033 C 
ENDBRANCH   3   7
BRANCH   6  17
ATOM     17  C   UNL     1      -1.268  -0.763   0.010  0.00  0.00    +0.162 C 
ATOM     18  N   UNL     1      -1.582  -1.362  -1.102  0.00  0.00    -0.072 NA
ATOM     19  N   UNL     1      -2.100  -0.866   1.112  0.00  0.00    -0.340 N 
ATOM     20  H   UNL     1      -1.865  -0.419   1.940  0.00  0.00    +0.144 HD
ATOM     21  H   UNL     1      -2.917  -1.385   1.055  0.00  0.00    +0.144 HD
BRANCH  18  22
ATOM     22  O   UNL     1      -0.669  -1.372  -2.184  0.00  0.00    -0.408 OA
ATOM     23  H   UNL     1      -0.991  -1.841  -2.966  0.00  0.00    +0.328 HD
ENDBRANCH  18  22
ENDBRANCH   6  17
TORSDOF 3
