REMARK  Name = ZINC09696038
REMARK  10 active torsions:
REMARK  status: ('A' for Active; 'I' for Inactive)
REMARK    1  A    between atoms: C_1  and  C_2
REMARK    2  A    between atoms: C_2  and  C_3
REMARK    3  A    between atoms: C_2  and  N_4
REMARK    4  A    between atoms: C_5  and  C_7
REMARK    5  A    between atoms: C_12  and  N_13
REMARK    6  A    between atoms: N_13  and  C_14
REMARK    7  A    between atoms: C_14  and  N_16
REMARK    8  A    between atoms: C_17  and  C_19
REMARK    9  A    between atoms: C_24  and  O_25
REMARK   10  A    between atoms: O_25  and  C_26
REMARK                            x       y       z     vdW  Elec       q    Type
REMARK                         _______ _______ _______ _____ _____    ______ ____
ROOT
ATOM      1  N   UNL     1      -3.703   2.932   0.248  0.00  0.00    -0.296 N 
ATOM      2  H   UNL     1      -3.048   3.469  -0.224  0.00  0.00    +0.154 HD
ENDROOT
BRANCH   1   8
ATOM      3  C   UNL     1      -2.464   0.851   0.227  0.00  0.00    +0.058 A 
ATOM      4  C   UNL     1      -2.454  -0.541   0.104  0.00  0.00    +0.015 A 
ATOM      5  C   UNL     1      -3.634  -1.222  -0.099  0.00  0.00    +0.001 A 
ATOM      6  C   UNL     1      -4.833  -0.533  -0.191  0.00  0.00    +0.002 A 
ATOM      7  C   UNL     1      -4.859   0.842  -0.077  0.00  0.00    +0.024 A 
ATOM      8  C   UNL     1      -3.679   1.545   0.132  0.00  0.00    +0.045 A 
BRANCH   3  10
ATOM      9  N   UNL     1      -0.054   0.910   0.638  0.00  0.00    -0.309 N 
ATOM     10  C   UNL     1      -1.205   1.586   0.448  0.00  0.00    +0.246 C 
ATOM     11  O   UNL     1      -1.204   2.802   0.459  0.00  0.00    -0.270 OA
ATOM     12  H   UNL     1      -0.055  -0.060   0.630  0.00  0.00    +0.149 HD
BRANCH   9  14
ATOM     13  C   UNL     1       2.178   0.755   1.625  0.00  0.00    +0.027 C 
ATOM     14  C   UNL     1       1.198   1.640   0.852  0.00  0.00    +0.067 C 
ATOM     15  C   UNL     1       1.806   2.016  -0.500  0.00  0.00    +0.027 C 
ENDBRANCH   9  14
ENDBRANCH   3  10
ENDBRANCH   1   8
BRANCH   1  16
ATOM     16  C   UNL     1      -4.637   3.529   1.015  0.00  0.00    +0.141 C 
ATOM     17  S   UNL     1      -5.711   2.578   1.950  0.00  0.00    -0.018 S 
BRANCH  16  18
ATOM     18  N   UNL     1      -4.725   4.873   1.046  0.00  0.00    -0.263 N 
ATOM     19  C   UNL     1      -5.659   5.469   1.813  0.00  0.00    +0.253 C 
ATOM     20  O   UNL     1      -6.422   4.795   2.477  0.00  0.00    -0.270 OA
ATOM     21  H   UNL     1      -4.117   5.411   0.516  0.00  0.00    +0.157 HD
BRANCH  19  22
ATOM     22  C   UNL     1      -5.756   6.940   1.848  0.00  0.00    +0.080 A 
ATOM     23  C   UNL     1      -4.881   7.720   1.086  0.00  0.00    +0.032 A 
ATOM     24  C   UNL     1      -4.977   9.095   1.123  0.00  0.00    +0.019 A 
ATOM     25  C   UNL     1      -5.937   9.708   1.912  0.00  0.00    +0.019 A 
ATOM     26  C   UNL     1      -6.807   8.949   2.669  0.00  0.00    +0.047 A 
ATOM     27  C   UNL     1      -6.729   7.565   2.640  0.00  0.00    +0.132 A 
ATOM     28 BR   UNL     1      -3.793  10.149   0.091  0.00  0.00    -0.050 Br
BRANCH  27  29
ATOM     29  O   UNL     1      -7.588   6.818   3.379  0.00  0.00    -0.494 OA
ATOM     30  C   UNL     1      -8.553   7.524   4.161  0.00  0.00    +0.277 C 
ENDBRANCH  27  29
ENDBRANCH  19  22
ENDBRANCH  16  18
ENDBRANCH   1  16
TORSDOF 7
