REMARK  Name = ZINC67266690
REMARK  4 active torsions:
REMARK  status: ('A' for Active; 'I' for Inactive)
REMARK    1  A    between atoms: C_4  and  C_7
REMARK    2  A    between atoms: C_7  and  C_9
REMARK    3  A    between atoms: C_7  and  N_16
REMARK    4  A    between atoms: C_17  and  C_19
REMARK                            x       y       z     vdW  Elec       q    Type
REMARK                         _______ _______ _______ _____ _____    ______ ____
ROOT
ATOM      1  N   UNL     1       3.630  -1.873   0.845  0.00  0.00    -0.304 N 
ATOM      2  C   UNL     1       3.871  -1.738   2.164  0.00  0.00    +0.217 C 
ATOM      3  O   UNL     1       4.155  -0.651   2.621  0.00  0.00    -0.275 OA
ATOM      4  H   UNL     1       3.403  -2.743   0.480  0.00  0.00    +0.150 HD
ENDROOT
BRANCH   2   5
ATOM      5  C   UNL     1       3.788  -2.938   3.073  0.00  0.00    +0.075 C 
ATOM      6  C   UNL     1       2.376  -3.526   3.013  0.00  0.00    +0.015 C 
ATOM      7  C   UNL     1       2.296  -4.752   3.926  0.00  0.00    +0.036 C 
ATOM      8  C   UNL     1       2.635  -4.346   5.356  0.00  0.00    +0.112 C 
ATOM      9  C   UNL     1       4.030  -3.735   5.428  0.00  0.00    +0.036 C 
ATOM     10  C   UNL     1       4.103  -2.513   4.508  0.00  0.00    +0.015 C 
ATOM     11  C   UNL     1       1.605  -3.377   5.888  0.00  0.00    +0.244 C 
ATOM     12  O   UNL     1       1.338  -2.277   5.453  0.00  0.00    -0.273 OA
ATOM     13  N   UNL     1       1.046  -3.992   6.951  0.00  0.00    -0.238 N 
ATOM     14  C   UNL     1       1.579  -5.203   7.156  0.00  0.00    +0.307 C 
ATOM     15  O   UNL     1       1.238  -5.948   8.053  0.00  0.00    -0.252 OA
ATOM     16  N   UNL     1       2.534  -5.503   6.255  0.00  0.00    -0.285 N 
ATOM     17  H   UNL     1       0.345  -3.605   7.498  0.00  0.00    +0.159 HD
ATOM     18  H   UNL     1       3.053  -6.321   6.210  0.00  0.00    +0.151 HD
ENDBRANCH   2   5
BRANCH   1  19
ATOM     19  C   UNL     1       3.711  -0.707  -0.038  0.00  0.00    +0.134 C 
BRANCH  19  20
ATOM     20  C   UNL     1       4.014  -1.161  -1.442  0.00  0.00    -0.023 A 
ATOM     21  C   UNL     1       3.406  -2.295  -1.948  0.00  0.00    +0.008 A 
ATOM     22  C   UNL     1       3.683  -2.711  -3.237  0.00  0.00    +0.038 A 
ATOM     23  C   UNL     1       4.570  -1.992  -4.021  0.00  0.00    +0.123 A 
ATOM     24  C   UNL     1       5.178  -0.857  -3.513  0.00  0.00    +0.038 A 
ATOM     25  C   UNL     1       4.896  -0.439  -2.226  0.00  0.00    +0.008 A 
ATOM     26  F   UNL     1       4.842  -2.399  -5.280  0.00  0.00    -0.205 F 
ENDBRANCH  19  20
BRANCH  19  30
ATOM     27  C   UNL     1      -0.017   1.378   0.010  0.00  0.00    +0.000 A 
ATOM     28  C   UNL     1       1.171   2.086   0.002  0.00  0.00    +0.000 A 
ATOM     29  C   UNL     1       2.377   1.411  -0.013  0.00  0.00    +0.006 A 
ATOM     30  C   UNL     1       2.396   0.029  -0.020  0.00  0.00    -0.023 A 
ATOM     31  C   UNL     1       1.208  -0.679  -0.012  0.00  0.00    +0.006 A 
ATOM     32  C   UNL     1       0.002  -0.004   0.002  0.00  0.00    +0.000 A 
ENDBRANCH  19  30
ENDBRANCH   1  19
TORSDOF 4
