REMARK  Name = ZINC05610008
REMARK  4 active torsions:
REMARK  status: ('A' for Active; 'I' for Inactive)
REMARK    1  A    between atoms: C_1  and  C_2
REMARK    2  A    between atoms: C_2  and  C_3
REMARK    3  A    between atoms: C_10  and  N_25
REMARK    4  A    between atoms: C_11  and  C_23
REMARK                            x       y       z     vdW  Elec       q    Type
REMARK                         _______ _______ _______ _____ _____    ______ ____
ROOT
ATOM      1  C   UNL     1       0.731  -0.503   1.223  0.00  0.00    +0.071 A 
ATOM      2  C   UNL     1       2.094  -0.752   1.313  0.00  0.00    +0.061 A 
ATOM      3  C   UNL     1       2.361  -1.190   2.583  0.00  0.00    +0.223 A 
ATOM      4  N   UNL     1       1.200  -1.213   3.256  0.00  0.00    -0.246 N 
ATOM      5  H   UNL     1       1.081  -1.482   4.180  0.00  0.00    +0.192 HD
ATOM      6  N   UNL     1       0.189  -0.773   2.387  0.00  0.00    -0.176 NA
ATOM      7  O   UNL     1       3.610  -1.519   2.993  0.00  0.00    -0.423 OA
ATOM      8  C   UNL     1       4.648  -1.158   2.212  0.00  0.00    +0.201 C 
ATOM      9  C   UNL     1       4.512  -0.721   0.938  0.00  0.00    +0.110 C 
ATOM     10  C   UNL     1       3.168  -0.602   0.274  0.00  0.00    +0.145 C 
ATOM     11  C   UNL     1       3.010  -1.609  -0.819  0.00  0.00    +0.001 A 
ATOM     12  C   UNL     1       3.034  -2.987  -0.804  0.00  0.00    +0.045 A 
ATOM     13  C   UNL     1       2.850  -3.636  -2.022  0.00  0.00    +0.124 A 
ATOM     14  C   UNL     1       2.654  -2.927  -3.192  0.00  0.00    +0.040 A 
ATOM     15  C   UNL     1       2.631  -1.541  -3.213  0.00  0.00    +0.026 A 
ATOM     16  C   UNL     1       2.814  -0.879  -1.998  0.00  0.00    +0.038 A 
ATOM     17  N   UNL     1       2.839   0.480  -1.732  0.00  0.00    -0.284 N 
ATOM     18  C   UNL     1       3.043   0.735  -0.423  0.00  0.00    +0.238 C 
ATOM     19  O   UNL     1       3.113   1.829   0.097  0.00  0.00    -0.274 OA
ATOM     20  F   UNL     1       2.864  -4.987  -2.062  0.00  0.00    -0.205 F 
ATOM     21  H   UNL     1       2.723   1.167  -2.407  0.00  0.00    +0.155 HD
ENDROOT
BRANCH   8  22
ATOM     22  N   UNL     1       5.913  -1.238   2.738  0.00  0.00    -0.328 N 
ATOM     23  H   UNL     1       6.042  -1.547   3.648  0.00  0.00    +0.145 HD
ATOM     24  H   UNL     1       6.679  -0.985   2.199  0.00  0.00    +0.145 HD
ENDBRANCH   8  22
BRANCH   1  26
ATOM     25  C   UNL     1      -0.019   1.526   0.010  0.00  0.00    +0.010 C 
ATOM     26  C   UNL     1       0.002  -0.004   0.002  0.00  0.00    +0.054 C 
ENDBRANCH   1  26
BRANCH   9  27
ATOM     27  C   UNL     1       5.685  -0.361   0.199  0.00  0.00    +0.102 C 
ATOM     28  N   UNL     1       6.615  -0.076  -0.387  0.00  0.00    -0.191 NA
ENDBRANCH   9  27
TORSDOF 3
