REMARK  Name = ZINC51035954
REMARK  5 active torsions:
REMARK  status: ('A' for Active; 'I' for Inactive)
REMARK    1  A    between atoms: C_1  and  C_2
REMARK    2  A    between atoms: C_2  and  C_4
REMARK    3  A    between atoms: C_2  and  S_11
REMARK    4  A    between atoms: C_7  and  N_10
REMARK    5  A    between atoms: S_11  and  C_12
REMARK                            x       y       z     vdW  Elec       q    Type
REMARK                         _______ _______ _______ _____ _____    ______ ____
ROOT
ATOM      1  C   UNL     1      -0.019   1.526   0.010  0.00  0.00    +0.024 C 
ATOM      2  C   UNL     1       0.002  -0.004   0.002  0.00  0.00    +0.080 C 
ENDROOT
BRANCH   2   3
ATOM      3  C   UNL     1       0.707  -0.490  -1.238  0.00  0.00    -0.034 A 
ATOM      4  C   UNL     1       0.220  -0.150  -2.487  0.00  0.00    +0.006 A 
ATOM      5  C   UNL     1       0.864  -0.594  -3.625  0.00  0.00    +0.023 A 
ATOM      6  C   UNL     1       2.003  -1.382  -3.514  0.00  0.00    +0.025 A 
ATOM      7  C   UNL     1       2.489  -1.722  -2.258  0.00  0.00    +0.023 A 
ATOM      8  C   UNL     1       1.843  -1.270  -1.124  0.00  0.00    +0.006 A 
BRANCH   6   9
ATOM      9  N   UNL     1       2.656  -1.833  -4.664  0.00  0.00    -0.358 N 
ATOM     10  H   UNL     1       2.315  -1.596  -5.540  0.00  0.00    +0.142 HD
ATOM     11  H   UNL     1       3.451  -2.384  -4.585  0.00  0.00    +0.142 HD
ENDBRANCH   6   9
ENDBRANCH   2   3
BRANCH   2  12
ATOM     12  S   UNL     1      -1.700  -0.632   0.015  0.00  0.00    -0.096 S 
BRANCH  12  13
ATOM     13  C   UNL     1      -2.335  -0.110   1.573  0.00  0.00    +0.126 A 
ATOM     14  C   UNL     1      -3.643  -0.420   1.952  0.00  0.00    +0.117 A 
ATOM     15  C   UNL     1      -4.104   0.018   3.204  0.00  0.00    +0.182 A 
ATOM     16  N   UNL     1      -5.376  -0.406   3.322  0.00  0.00    -0.216 NA
ATOM     17  H   UNL     1      -4.695  -1.527   0.503  0.00  0.00    +0.167 HD
ATOM     18  C   UNL     1      -5.724  -1.062   2.250  0.00  0.00    +0.199 A 
ATOM     19  N   UNL     1      -4.694  -1.100   1.374  0.00  0.00    -0.341 N 
ATOM     20  N   UNL     1      -3.271   0.714   3.985  0.00  0.00    -0.214 NA
ATOM     21  C   UNL     1      -2.048   0.983   3.587  0.00  0.00    +0.224 A 
ATOM     22  N   UNL     1      -1.577   0.584   2.419  0.00  0.00    -0.227 NA
ENDBRANCH  12  13
ENDBRANCH   2  12
TORSDOF 4
