REMARK  Name = ZINC39674499
REMARK  10 active torsions:
REMARK  status: ('A' for Active; 'I' for Inactive)
REMARK    1  A    between atoms: C_1  and  C_2
REMARK    2  A    between atoms: C_12  and  O_13
REMARK    3  A    between atoms: O_13  and  C_14
REMARK    4  A    between atoms: C_14  and  C_15
REMARK    5  A    between atoms: C_19  and  C_28
REMARK    6  A    between atoms: N_30  and  C_31
REMARK    7  A    between atoms: C_31  and  C_33
REMARK    8  A    between atoms: C_31  and  C_34
REMARK    9  A    between atoms: C_35  and  C_41
REMARK   10  A    between atoms: C_38  and  C_40
REMARK                            x       y       z     vdW  Elec       q    Type
REMARK                         _______ _______ _______ _____ _____    ______ ____
ROOT
ATOM      1  C   UNL     1       0.441  -6.279   3.657  0.00  0.00    +0.253 C 
ATOM      2  O   UNL     1       0.596  -6.774   2.560  0.00  0.00    -0.272 OA
ATOM      3  N   UNL     1       0.398  -7.066   4.750  0.00  0.00    -0.297 N 
ATOM      4  C   UNL     1       0.212  -6.650   6.161  0.00  0.00    +0.121 C 
ATOM      5  C   UNL     1      -0.709  -7.732   6.768  0.00  0.00    +0.100 C 
ATOM      6  C   UNL     1      -0.497  -8.971   5.881  0.00  0.00    -0.004 C 
ATOM      7  C   UNL     1       0.520  -8.542   4.814  0.00  0.00    +0.115 C 
ATOM      8  C   UNL     1      -1.810  -9.377   5.218  0.00  0.00    -0.010 C 
ATOM      9  C   UNL     1      -1.586 -10.643   4.387  0.00  0.00    -0.082 C 
ATOM     10  N   UNL     1      -1.100 -11.721   5.257  0.00  0.00    +0.379 N 
ATOM     11  C   UNL     1       0.207 -11.361   5.818  0.00  0.00    -0.082 C 
ATOM     12  C   UNL     1       0.060 -10.125   6.709  0.00  0.00    -0.010 C 
ATOM     13  H   UNL     1      -1.758 -11.868   6.008  0.00  0.00    -0.086 HD
ATOM     14  H   UNL     1      -1.012 -12.571   4.720  0.00  0.00    -0.086 HD
ENDROOT
BRANCH   5  15
ATOM     15  C   UNL     1      -2.147  -7.286   6.715  0.00  0.00    +0.219 C 
ATOM     16  O   UNL     1      -2.507  -6.496   5.869  0.00  0.00    -0.275 OA
ATOM     17  N   UNL     1      -3.035  -7.765   7.609  0.00  0.00    -0.309 N 
ATOM     18  H   UNL     1      -2.747  -8.398   8.287  0.00  0.00    +0.149 HD
BRANCH  17  19
ATOM     19  C   UNL     1      -4.433  -7.332   7.558  0.00  0.00    +0.100 C 
ATOM     20  C   UNL     1      -4.588  -6.019   8.328  0.00  0.00    +0.033 C 
BRANCH  19  21
ATOM     21  C   UNL     1      -5.309  -8.387   8.183  0.00  0.00    -0.001 C 
ATOM     22  C   UNL     1      -6.389  -8.973   7.661  0.00  0.00    +0.063 C 
ATOM     23  N   UNL     1      -6.911  -9.873   8.524  0.00  0.00    -0.159 NA
ATOM     24  N   UNL     1      -6.302  -9.971   9.592  0.00  0.00    -0.180 NA
ATOM     25  C   UNL     1      -5.165  -9.035   9.548  0.00  0.00    +0.154 C 
ATOM     26  C   UNL     1      -5.285  -7.990  10.659  0.00  0.00    +0.039 C 
ATOM     27  C   UNL     1      -6.951  -8.672   6.296  0.00  0.00    +0.067 C 
ENDBRANCH  19  21
ENDBRANCH  17  19
ENDBRANCH   5  15
BRANCH   1  28
ATOM     28  C   UNL     1       0.298  -4.786   3.796  0.00  0.00    +0.324 C 
BRANCH  28  29
ATOM     29  O   UNL     1       0.376  -4.177   2.506  0.00  0.00    -0.479 OA
BRANCH  29  41
ATOM     30  C   UNL     1       0.165   1.421  -0.192  0.00  0.00    +0.045 C 
ATOM     31  C   UNL     1       0.286  -0.078  -0.103  0.00  0.00    -0.033 A 
ATOM     32  C   UNL     1       0.465  -0.831  -1.217  0.00  0.00    +0.096 A 
ATOM     33  C   UNL     1       0.575  -2.234  -1.106  0.00  0.00    +0.338 A 
ATOM     34  O   UNL     1       0.736  -2.898  -2.114  0.00  0.00    -0.245 OA
ATOM     35  O   UNL     1       0.508  -2.854   0.082  0.00  0.00    -0.418 OA
ATOM     36  C   UNL     1       0.332  -2.163   1.229  0.00  0.00    +0.181 A 
ATOM     37  C   UNL     1       0.219  -0.763   1.192  0.00  0.00    +0.024 A 
ATOM     38  C   UNL     1       0.042  -0.044   2.379  0.00  0.00    +0.012 A 
ATOM     39  C   UNL     1      -0.017  -0.715   3.580  0.00  0.00    +0.004 A 
ATOM     40  C   UNL     1       0.099  -2.096   3.620  0.00  0.00    +0.049 A 
ATOM     41  C   UNL     1       0.264  -2.823   2.454  0.00  0.00    +0.164 A 
ENDBRANCH  29  41
ENDBRANCH  28  29
ENDBRANCH   1  28
TORSDOF 6
