REMARK  Name = ZINC09271546
REMARK  5 active torsions:
REMARK  status: ('A' for Active; 'I' for Inactive)
REMARK    1  A    between atoms: C_4  and  O_24
REMARK    2  A    between atoms: C_5  and  C_7
REMARK    3  A    between atoms: N_8  and  N_9
REMARK    4  A    between atoms: C_10  and  C_12
REMARK    5  A    between atoms: C_14  and  C_18
REMARK                            x       y       z     vdW  Elec       q    Type
REMARK                         _______ _______ _______ _____ _____    ______ ____
ROOT
ATOM      1  N   UNL     1       2.412  -4.186  -0.047  0.00  0.00    -0.202 N 
ATOM      2  C   UNL     1       3.592  -4.838  -0.063  0.00  0.00    +0.281 C 
ATOM      3  O   UNL     1       4.634  -4.210  -0.070  0.00  0.00    -0.267 OA
ATOM      4  H   UNL     1       1.581  -4.686  -0.041  0.00  0.00    +0.178 HD
ENDROOT
BRANCH   2   5
ATOM      5  C   UNL     1       3.619  -6.309  -0.072  0.00  0.00    +0.122 A 
ATOM      6  C   UNL     1       4.744  -7.104  -0.083  0.00  0.00    +0.063 A 
ATOM      7  C   UNL     1       4.318  -8.442  -0.088  0.00  0.00    +0.100 A 
ATOM      8  N   UNL     1       2.999  -8.460  -0.080  0.00  0.00    -0.173 NA
ATOM      9  N   UNL     1       2.533  -7.140  -0.065  0.00  0.00    -0.272 N 
ATOM     10  H   UNL     1       1.603  -6.863  -0.054  0.00  0.00    +0.189 HD
BRANCH   7  11
ATOM     11  C   UNL     1       5.199  -9.631  -0.100  0.00  0.00    +0.040 A 
ATOM     12  C   UNL     1       4.858 -10.956  -0.111  0.00  0.00    +0.019 A 
ATOM     13  C   UNL     1       5.864 -11.899  -0.122  0.00  0.00    +0.023 A 
ATOM     14  C   UNL     1       7.158 -11.485  -0.121  0.00  0.00    +0.056 A 
ATOM     15  S   UNL     1       6.982  -9.709  -0.112  0.00  0.00    -0.080 S 
ATOM     16 BR   UNL     1       8.738 -12.524  -0.134  0.00  0.00    -0.043 Br
ENDBRANCH   7  11
ENDBRANCH   2   5
BRANCH   1  18
ATOM     17  C   UNL     1       1.250  -2.157  -0.023  0.00  0.00    +0.142 C 
ATOM     18  N   UNL     1       2.386  -2.785  -0.038  0.00  0.00    -0.187 NA
BRANCH  17  23
ATOM     19  C   UNL     1      -0.017   1.375   0.010  0.00  0.00    +0.001 A 
ATOM     20  C   UNL     1       1.169   2.089   0.002  0.00  0.00    +0.004 A 
ATOM     21  C   UNL     1       2.383   1.428  -0.013  0.00  0.00    +0.046 A 
ATOM     22  C   UNL     1       2.420   0.044  -0.022  0.00  0.00    +0.125 A 
ATOM     23  C   UNL     1       1.222  -0.684  -0.014  0.00  0.00    +0.036 A 
ATOM     24  C   UNL     1       0.002  -0.004   0.002  0.00  0.00    +0.013 A 
BRANCH  22  25
ATOM     25  O   UNL     1       3.613  -0.606  -0.038  0.00  0.00    -0.506 OA
ATOM     26  H   UNL     1       3.967  -0.800   0.841  0.00  0.00    +0.292 HD
ENDBRANCH  22  25
ENDBRANCH  17  23
ENDBRANCH   1  18
TORSDOF 5
