REMARK  Name = ZINC12852396
REMARK  7 active torsions:
REMARK  status: ('A' for Active; 'I' for Inactive)
REMARK    1  A    between atoms: C_1  and  C_2
REMARK    2  A    between atoms: C_2  and  C_4
REMARK    3  A    between atoms: C_2  and  N_44
REMARK    4  A    between atoms: N_6  and  C_7
REMARK    5  A    between atoms: C_19  and  N_44
REMARK    6  A    between atoms: C_20  and  C_21
REMARK    7  A    between atoms: C_20  and  N_44
REMARK                            x       y       z     vdW  Elec       q    Type
REMARK                         _______ _______ _______ _____ _____    ______ ____
ROOT
ATOM      1  C   UNL     1      -4.663  -0.095   2.921  0.00  0.00    +0.203 C 
ATOM      2  O   UNL     1      -4.276   0.702   3.749  0.00  0.00    -0.277 OA
ATOM      3  N   UNL     1      -5.498  -1.090   3.282  0.00  0.00    -0.287 N 
ATOM      4  H   UNL     1      -5.867  -1.682   2.608  0.00  0.00    +0.155 HD
ENDROOT
BRANCH   3   5
ATOM      5  C   UNL     1      -5.832  -1.269   4.631  0.00  0.00    +0.035 A 
ATOM      6  C   UNL     1      -7.098  -1.729   4.976  0.00  0.00    +0.025 A 
ATOM      7  C   UNL     1      -7.432  -1.913   6.303  0.00  0.00    +0.029 A 
ATOM      8  C   UNL     1      -6.507  -1.626   7.296  0.00  0.00    +0.067 A 
ATOM      9  C   UNL     1      -5.237  -1.158   6.952  0.00  0.00    +0.069 A 
ATOM     10  C   UNL     1      -4.902  -0.981   5.618  0.00  0.00    +0.051 A 
ATOM     11  N   UNL     1      -4.543  -0.963   8.144  0.00  0.00    -0.306 N 
ATOM     12  H   UNL     1      -3.631  -0.641   8.224  0.00  0.00    +0.170 HD
ATOM     13  C   UNL     1      -5.353  -1.296   9.166  0.00  0.00    +0.325 A 
ATOM     14  O   UNL     1      -5.053  -1.241  10.344  0.00  0.00    -0.247 OA
ATOM     15  N   UNL     1      -6.545  -1.700   8.688  0.00  0.00    -0.306 N 
ATOM     16  H   UNL     1      -7.301  -1.993   9.220  0.00  0.00    +0.170 HD
ENDBRANCH   3   5
BRANCH   1  18
ATOM     17  C   UNL     1      -5.431   0.221   0.584  0.00  0.00    -0.004 C 
ATOM     18  C   UNL     1      -4.212   0.027   1.488  0.00  0.00    +0.016 C 
BRANCH  18  20
ATOM     19  C   UNL     1      -4.002   2.428   1.718  0.00  0.00    -0.095 C 
ATOM     20  N   UNL     1      -3.292   1.178   1.373  0.00  0.00    +0.388 N 
ATOM     21  H   UNL     1      -2.511   1.048   2.026  0.00  0.00    -0.081 HD
BRANCH  20  22
ATOM     22  C   UNL     1      -2.760   1.263  -0.003  0.00  0.00    -0.041 C 
BRANCH  22  23
ATOM     23  C   UNL     1      -1.519   2.118   0.011  0.00  0.00    -0.046 A 
ATOM     24  C   UNL     1      -1.558   3.401  -0.502  0.00  0.00    +0.004 A 
ATOM     25  C   UNL     1      -0.421   4.188  -0.484  0.00  0.00    +0.020 A 
ATOM     26  C   UNL     1       0.757   3.689   0.043  0.00  0.00    +0.042 A 
ATOM     27  C   UNL     1       0.798   2.404   0.552  0.00  0.00    +0.040 A 
ATOM     28  C   UNL     1      -0.340   1.617   0.533  0.00  0.00    +0.044 A 
ATOM     29 CL   UNL     1      -0.290   0.003   1.172  0.00  0.00    -0.083 Cl
ATOM     30 CL   UNL     1       2.184   4.678   0.066  0.00  0.00    -0.083 Cl
ENDBRANCH  22  23
ENDBRANCH  20  22
ENDBRANCH  18  20
ENDBRANCH   1  18
TORSDOF 5
