REMARK  Name = ZINC13471204
REMARK  6 active torsions:
REMARK  status: ('A' for Active; 'I' for Inactive)
REMARK    1  A    between atoms: C_1  and  C_2
REMARK    2  A    between atoms: C_4  and  C_28
REMARK    3  A    between atoms: C_6  and  N_8
REMARK    4  A    between atoms: N_10  and  C_11
REMARK    5  A    between atoms: N_20  and  C_21
REMARK    6  A    between atoms: C_21  and  C_22
REMARK                            x       y       z     vdW  Elec       q    Type
REMARK                         _______ _______ _______ _____ _____    ______ ____
ROOT
ATOM      1  C   UNL     1       0.316  -2.256   6.111  0.00  0.00    +0.078 C 
ATOM      2  C   UNL     1      -1.094  -2.052   6.673  0.00  0.00    +0.009 C 
ATOM      3  C   UNL     1      -1.712  -3.426   6.977  0.00  0.00    -0.066 C 
ATOM      4  C   UNL     1      -1.496  -4.326   5.738  0.00  0.00    -0.017 C 
ATOM      5  C   UNL     1      -0.122  -4.989   5.967  0.00  0.00    -0.017 C 
ATOM      6  C   UNL     1       0.367  -4.430   7.323  0.00  0.00    -0.066 C 
ATOM      7  C   UNL     1       1.135  -3.123   7.073  0.00  0.00    +0.009 C 
ATOM      8  N   UNL     1      -0.893  -4.052   8.048  0.00  0.00    +0.388 N 
ATOM      9  H   UNL     1      -0.707  -3.389   8.786  0.00  0.00    -0.080 HD
ENDROOT
BRANCH   1  12
ATOM     10  N   UNL     1       0.682  -2.947   2.485  0.00  0.00    -0.295 N 
ATOM     11  C   UNL     1       0.763  -2.326   3.701  0.00  0.00    +0.143 C 
ATOM     12  N   UNL     1       0.230  -2.922   4.809  0.00  0.00    -0.364 N 
ATOM     13  S   UNL     1       1.508  -0.849   3.830  0.00  0.00    -0.016 SA
ATOM     14  H   UNL     1      -0.025  -3.589   2.314  0.00  0.00    +0.154 HD
ATOM     15  H   UNL     1      -0.206  -3.785   4.733  0.00  0.00    +0.162 HD
BRANCH  10  21
ATOM     16  C   UNL     1       1.748  -2.351  -2.278  0.00  0.00    +0.044 C 
ATOM     17  C   UNL     1       2.164  -2.362  -0.829  0.00  0.00    -0.048 A 
ATOM     18  C   UNL     1       3.474  -2.085  -0.485  0.00  0.00    +0.006 A 
ATOM     19  C   UNL     1       3.860  -2.093   0.843  0.00  0.00    -0.048 A 
ATOM     20  C   UNL     1       2.937  -2.379   1.830  0.00  0.00    +0.026 A 
ATOM     21  C   UNL     1       1.620  -2.657   1.488  0.00  0.00    +0.033 A 
ATOM     22  C   UNL     1       1.234  -2.642   0.153  0.00  0.00    +0.026 A 
ATOM     23  C   UNL     1       5.289  -1.791   1.214  0.00  0.00    +0.044 C 
ENDBRANCH  10  21
ENDBRANCH   1  12
BRANCH   8  24
ATOM     24  C   UNL     1      -1.562  -5.247   8.580  0.00  0.00    -0.002 C 
BRANCH  24  25
ATOM     25  C   UNL     1      -0.772  -5.789   9.744  0.00  0.00    +0.089 A 
ATOM     26  C   UNL     1      -0.940  -5.449  11.034  0.00  0.00    +0.042 A 
ATOM     27  C   UNL     1       0.005  -6.192  11.779  0.00  0.00    +0.041 A 
ATOM     28  C   UNL     1       0.694  -6.941  10.899  0.00  0.00    +0.195 A 
ATOM     29  O   UNL     1       0.215  -6.697   9.668  0.00  0.00    -0.470 OA
ENDBRANCH  24  25
ENDBRANCH   8  24
TORSDOF 4
