REMARK  Name = ZINC03665878
REMARK  8 active torsions:
REMARK  status: ('A' for Active; 'I' for Inactive)
REMARK    1  A    between atoms: C_1  and  C_2
REMARK    2  A    between atoms: C_2  and  C_3
REMARK    3  A    between atoms: C_6  and  N_9
REMARK    4  A    between atoms: C_19  and  C_20
REMARK    5  A    between atoms: C_19  and  O_31
REMARK    6  A    between atoms: N_22  and  C_23
REMARK    7  A    between atoms: C_23  and  C_24
REMARK    8  A    between atoms: C_27  and  C_30
REMARK                            x       y       z     vdW  Elec       q    Type
REMARK                         _______ _______ _______ _____ _____    ______ ____
ROOT
ATOM      1  N   UNL     1       2.450   5.547   3.665  0.00  0.00    -0.214 N 
ATOM      2  C   UNL     1       2.376   5.331   4.991  0.00  0.00    +0.314 C 
ATOM      3  O   UNL     1       3.362   5.547   5.669  0.00  0.00    -0.252 OA
ATOM      4  N   UNL     1       1.267   4.889   5.599  0.00  0.00    -0.269 N 
ATOM      5  C   UNL     1       0.085   4.611   4.912  0.00  0.00    +0.043 A 
ATOM      6  C   UNL     1      -1.038   4.154   5.589  0.00  0.00    +0.024 A 
ATOM      7  C   UNL     1      -2.199   3.883   4.891  0.00  0.00    +0.002 A 
ATOM      8  C   UNL     1      -2.249   4.065   3.521  0.00  0.00    +0.001 A 
ATOM      9  C   UNL     1      -1.132   4.521   2.841  0.00  0.00    +0.010 A 
ATOM     10  C   UNL     1       0.025   4.791   3.535  0.00  0.00    +0.033 A 
ATOM     11  C   UNL     1       1.265   5.290   2.829  0.00  0.00    +0.247 C 
ATOM     12  H   UNL     1       1.287   4.756   6.559  0.00  0.00    +0.156 HD
ENDROOT
BRANCH   1  16
ATOM     13  C   UNL     1       5.987   6.925   1.948  0.00  0.00    -0.048 A 
ATOM     14  C   UNL     1       4.997   7.823   2.303  0.00  0.00    +0.005 A 
ATOM     15  C   UNL     1       3.823   7.369   2.872  0.00  0.00    +0.024 A 
ATOM     16  C   UNL     1       3.638   6.010   3.088  0.00  0.00    +0.041 A 
ATOM     17  C   UNL     1       4.636   5.111   2.735  0.00  0.00    +0.024 A 
ATOM     18  C   UNL     1       5.806   5.571   2.162  0.00  0.00    +0.005 A 
BRANCH  13  20
ATOM     19  C   UNL     1       8.286   7.721   2.429  0.00  0.00    +0.009 C 
ATOM     20  C   UNL     1       7.266   7.424   1.328  0.00  0.00    +0.032 C 
ENDBRANCH  13  20
ENDBRANCH   1  16
BRANCH  11  21
ATOM     21  C   UNL     1       1.646   4.272   1.784  0.00  0.00    +0.269 C 
ATOM     22  O   UNL     1       1.689   4.591   0.615  0.00  0.00    -0.270 OA
ATOM     23  N   UNL     1       1.939   3.009   2.149  0.00  0.00    -0.307 N 
ATOM     24  H   UNL     1       1.905   2.754   3.084  0.00  0.00    +0.149 HD
BRANCH  23  25
ATOM     25  C   UNL     1       2.309   2.020   1.133  0.00  0.00    +0.139 C 
BRANCH  25  26
ATOM     26  C   UNL     1       2.585   0.696   1.798  0.00  0.00    -0.030 A 
ATOM     27  C   UNL     1       1.560  -0.214   1.978  0.00  0.00    +0.005 A 
ATOM     28  C   UNL     1       1.814  -1.429   2.588  0.00  0.00    +0.003 A 
ATOM     29  C   UNL     1       3.092  -1.733   3.017  0.00  0.00    -0.050 A 
ATOM     30  C   UNL     1       4.117  -0.823   2.837  0.00  0.00    +0.003 A 
ATOM     31  C   UNL     1       3.863   0.391   2.227  0.00  0.00    +0.005 A 
ATOM     32  C   UNL     1       3.368  -3.058   3.681  0.00  0.00    +0.044 C 
ENDBRANCH  25  26
ENDBRANCH  23  25
ENDBRANCH  11  21
BRANCH  11  33
ATOM     33  O   UNL     1       0.930   6.504   2.155  0.00  0.00    -0.360 OA
ATOM     34  H   UNL     1       0.193   6.420   1.535  0.00  0.00    +0.213 HD
ENDBRANCH  11  33
TORSDOF 6
