REMARK  Name = ZINC36965433
REMARK  8 active torsions:
REMARK  status: ('A' for Active; 'I' for Inactive)
REMARK    1  A    between atoms: C_1  and  S_2
REMARK    2  A    between atoms: S_2  and  C_3
REMARK    3  A    between atoms: C_3  and  C_4
REMARK    4  A    between atoms: C_4  and  C_5
REMARK    5  A    between atoms: C_5  and  C_7
REMARK    6  A    between atoms: C_5  and  N_10
REMARK    7  A    between atoms: N_10  and  S_11
REMARK    8  A    between atoms: S_11  and  C_14
REMARK                            x       y       z     vdW  Elec       q    Type
REMARK                         _______ _______ _______ _____ _____    ______ ____
ROOT
ATOM      1  S   UNL     1      -5.559  -1.409  -1.209  0.00  0.00    +0.063 S 
ATOM      2  O   UNL     1      -5.870  -1.025  -2.542  0.00  0.00    -0.153 OA
ATOM      3  O   UNL     1      -6.310  -2.387  -0.503  0.00  0.00    -0.153 OA
ENDROOT
BRANCH   1   4
ATOM      4  C   UNL     1      -5.608   0.061  -0.238  0.00  0.00    +0.154 A 
ATOM      5  C   UNL     1      -5.833  -0.018   1.126  0.00  0.00    +0.153 A 
ATOM      6  C   UNL     1      -5.871   1.136   1.889  0.00  0.00    +0.078 A 
ATOM      7  C   UNL     1      -5.684   2.369   1.287  0.00  0.00    +0.127 A 
ATOM      8  C   UNL     1      -5.458   2.446  -0.076  0.00  0.00    +0.055 A 
ATOM      9  C   UNL     1      -5.415   1.292  -0.837  0.00  0.00    +0.050 A 
ATOM     10 BR   UNL     1      -5.099   1.398  -2.699  0.00  0.00    -0.048 Br
ATOM     11  F   UNL     1      -5.721   3.496   2.031  0.00  0.00    -0.205 F 
ATOM     12  F   UNL     1      -6.016  -1.222   1.712  0.00  0.00    -0.203 F 
ENDBRANCH   1   4
BRANCH   1  13
ATOM     13  N   UNL     1      -3.989  -1.935  -1.222  0.00  0.00    -0.176 NA
ATOM     14  H   UNL     1      -3.489  -1.948  -2.053  0.00  0.00    +0.149 HD
BRANCH  13  15
ATOM     15  C   UNL     1      -3.356  -2.382   0.021  0.00  0.00    +0.190 C 
BRANCH  15  16
ATOM     16  C   UNL     1      -3.480  -3.879   0.138  0.00  0.00    +0.374 C 
ATOM     17  O   UNL     1      -3.543  -4.402   1.238  0.00  0.00    -0.245 OA
ATOM     18  O   UNL     1      -3.516  -4.568  -0.867  0.00  0.00    -0.245 OA
ENDBRANCH  15  16
BRANCH  15  19
ATOM     19  C   UNL     1      -1.877  -1.992   0.009  0.00  0.00    +0.042 C 
BRANCH  19  20
ATOM     20  C   UNL     1      -1.752  -0.467   0.016  0.00  0.00    +0.071 C 
BRANCH  20  22
ATOM     21  C   UNL     1      -0.022   1.810   0.012  0.00  0.00    +0.084 C 
ATOM     22  S   UNL     1       0.002  -0.004   0.002  0.00  0.00    -0.164 S 
ENDBRANCH  20  22
ENDBRANCH  19  20
ENDBRANCH  15  19
ENDBRANCH  13  15
ENDBRANCH   1  13
TORSDOF 7
