REMARK  Name = ZINC39672543
REMARK  7 active torsions:
REMARK  status: ('A' for Active; 'I' for Inactive)
REMARK    1  A    between atoms: C_1  and  C_2
REMARK    2  A    between atoms: C_5  and  C_7
REMARK    3  A    between atoms: C_7  and  N_8
REMARK    4  A    between atoms: C_9  and  C_11
REMARK    5  A    between atoms: C_22  and  C_24
REMARK    6  A    between atoms: C_28  and  O_29
REMARK    7  A    between atoms: O_29  and  C_30
REMARK                            x       y       z     vdW  Elec       q    Type
REMARK                         _______ _______ _______ _____ _____    ______ ____
ROOT
ATOM      1  C   UNL     1      -2.953  -4.436   4.107  0.00  0.00    +0.100 C 
ATOM      2  C   UNL     1      -3.661  -3.196   4.697  0.00  0.00    +0.121 C 
ATOM      3  N   UNL     1      -4.507  -3.732   5.790  0.00  0.00    -0.296 N 
ATOM      4  C   UNL     1      -3.671  -4.780   6.423  0.00  0.00    +0.115 C 
ATOM      5  C   UNL     1      -2.960  -5.473   5.243  0.00  0.00    -0.004 C 
ATOM      6  C   UNL     1      -1.531  -5.841   5.631  0.00  0.00    -0.010 C 
ATOM      7  C   UNL     1      -1.565  -6.916   6.721  0.00  0.00    -0.082 C 
ATOM      8  N   UNL     1      -2.278  -8.099   6.224  0.00  0.00    +0.379 N 
ATOM      9  C   UNL     1      -3.678  -7.756   5.941  0.00  0.00    -0.082 C 
ATOM     10  C   UNL     1      -3.734  -6.717   4.818  0.00  0.00    -0.010 C 
ATOM     11  C   UNL     1      -5.755  -3.354   6.130  0.00  0.00    +0.251 C 
ATOM     12  O   UNL     1      -6.352  -2.542   5.448  0.00  0.00    -0.270 OA
ATOM     13  H   UNL     1      -1.836  -8.426   5.378  0.00  0.00    -0.086 HD
ATOM     14  H   UNL     1      -2.246  -8.827   6.921  0.00  0.00    -0.086 HD
ENDROOT
BRANCH  11  15
ATOM     15  C   UNL     1      -6.395  -3.923   7.325  0.00  0.00    +0.087 A 
ATOM     16  C   UNL     1      -5.669  -4.234   8.454  0.00  0.00    +0.063 A 
ATOM     17  S   UNL     1      -6.808  -4.839   9.526  0.00  0.00    -0.081 S 
ATOM     18  C   UNL     1      -8.277  -4.705   8.531  0.00  0.00    +0.120 A 
ATOM     19  C   UNL     1      -7.817  -4.176   7.375  0.00  0.00    +0.158 A 
ATOM     20 CL   UNL     1      -9.906  -5.141   8.945  0.00  0.00    -0.072 Cl
BRANCH  19  21
ATOM     21  O   UNL     1      -8.639  -3.904   6.323  0.00  0.00    -0.492 OA
ATOM     22  C   UNL     1      -8.838  -4.947   5.368  0.00  0.00    +0.277 C 
ENDBRANCH  19  21
ENDBRANCH  11  15
BRANCH   1  24
ATOM     23  N   UNL     1      -0.881  -4.864   2.825  0.00  0.00    -0.309 N 
ATOM     24  C   UNL     1      -1.538  -4.095   3.717  0.00  0.00    +0.219 C 
ATOM     25  O   UNL     1      -0.990  -3.130   4.205  0.00  0.00    -0.275 OA
ATOM     26  H   UNL     1      -1.319  -5.636   2.435  0.00  0.00    +0.149 HD
BRANCH  23  27
ATOM     27  C   UNL     1       0.495  -4.533   2.446  0.00  0.00    +0.167 C 
BRANCH  27  32
ATOM     28  C   UNL     1       1.313  -6.419  -2.116  0.00  0.00    +0.066 C 
ATOM     29  C   UNL     1       1.404  -6.464  -0.613  0.00  0.00    +0.046 A 
ATOM     30  C   UNL     1       1.996  -7.503   0.031  0.00  0.00    +0.070 A 
ATOM     31  S   UNL     1       1.795  -6.993   1.731  0.00  0.00    -0.079 S 
ATOM     32  C   UNL     1       0.996  -5.540   1.443  0.00  0.00    +0.096 A 
ATOM     33  N   UNL     1       0.919  -5.495   0.137  0.00  0.00    -0.248 NA
ENDBRANCH  27  32
ENDBRANCH  23  27
ENDBRANCH   1  24
TORSDOF 5
