REMARK  Name = ZINC05722342
REMARK  7 active torsions:
REMARK  status: ('A' for Active; 'I' for Inactive)
REMARK    1  A    between atoms: C_1  and  O_2
REMARK    2  A    between atoms: O_2  and  C_3
REMARK    3  A    between atoms: C_5  and  C_10
REMARK    4  A    between atoms: C_8  and  O_9
REMARK    5  A    between atoms: C_10  and  C_12
REMARK    6  A    between atoms: C_12  and  C_13
REMARK    7  A    between atoms: C_13  and  O_25
REMARK                            x       y       z     vdW  Elec       q    Type
REMARK                         _______ _______ _______ _____ _____    ______ ____
ROOT
ATOM      1  C   UNL     1       3.523  -0.969  -0.037  0.00  0.00    +0.175 C 
ATOM      2  C   UNL     1       2.399   0.042  -0.021  0.00  0.00    +0.017 A 
ATOM      3  C   UNL     1       2.378   1.419  -0.013  0.00  0.00    +0.029 A 
ATOM      4  C   UNL     1       1.168   2.091   0.002  0.00  0.00    +0.043 A 
ATOM      5  C   UNL     1      -0.017   1.376   0.010  0.00  0.00    +0.042 A 
ATOM      6  C   UNL     1       0.002  -0.004   0.002  0.00  0.00    +0.064 A 
ATOM      7  C   UNL     1       1.218  -0.688  -0.013  0.00  0.00    +0.058 A 
ATOM      8  N   UNL     1       1.495  -2.056  -0.023  0.00  0.00    -0.281 N 
ATOM      9  C   UNL     1       2.815  -2.307  -0.037  0.00  0.00    +0.254 C 
ATOM     10  O   UNL     1       3.341  -3.400  -0.048  0.00  0.00    -0.272 OA
ATOM     11 CL   UNL     1      -1.490  -0.891   0.011  0.00  0.00    -0.082 Cl
ATOM     12 CL   UNL     1       1.137   3.827   0.011  0.00  0.00    -0.083 Cl
ATOM     13  H   UNL     1       0.814  -2.746  -0.020  0.00  0.00    +0.155 HD
ENDROOT
BRANCH   1  14
ATOM     14  O   UNL     1       4.335  -0.833   1.131  0.00  0.00    -0.374 OA
ATOM     15  H   UNL     1       5.073  -1.457   1.172  0.00  0.00    +0.211 HD
ENDBRANCH   1  14
BRANCH   1  16
ATOM     16  C   UNL     1       4.371  -0.807  -1.300  0.00  0.00    +0.129 C 
BRANCH  16  17
ATOM     17  C   UNL     1       5.406  -1.901  -1.353  0.00  0.00    +0.167 C 
ATOM     18  O   UNL     1       5.461  -2.728  -0.468  0.00  0.00    -0.292 OA
BRANCH  17  21
ATOM     19  C   UNL     1       8.196  -3.035  -3.588  0.00  0.00    +0.162 A 
ATOM     20  C   UNL     1       7.313  -2.980  -2.529  0.00  0.00    +0.060 A 
ATOM     21  C   UNL     1       6.349  -1.965  -2.477  0.00  0.00    +0.021 A 
ATOM     22  C   UNL     1       6.285  -1.014  -3.503  0.00  0.00    +0.015 A 
ATOM     23  C   UNL     1       7.174  -1.074  -4.553  0.00  0.00    +0.050 A 
ATOM     24  C   UNL     1       8.129  -2.081  -4.603  0.00  0.00    +0.158 A 
BRANCH  19  26
ATOM     25  C   UNL     1       9.145  -4.963  -2.568  0.00  0.00    +0.277 C 
ATOM     26  O   UNL     1       9.133  -4.020  -3.641  0.00  0.00    -0.491 OA
ENDBRANCH  19  26
BRANCH  24  27
ATOM     27  O   UNL     1       8.998  -2.138  -5.644  0.00  0.00    -0.503 OA
ATOM     28  H   UNL     1       8.685  -2.667  -6.390  0.00  0.00    +0.292 HD
ENDBRANCH  24  27
ENDBRANCH  17  21
ENDBRANCH  16  17
ENDBRANCH   1  16
TORSDOF 6
