REMARK  Name = ZINC40378750
REMARK  5 active torsions:
REMARK  status: ('A' for Active; 'I' for Inactive)
REMARK    1  A    between atoms: C_1  and  C_2
REMARK    2  A    between atoms: C_2  and  C_3
REMARK    3  A    between atoms: N_5  and  C_6
REMARK    4  A    between atoms: C_8  and  S_13
REMARK    5  A    between atoms: S_13  and  N_16
REMARK                            x       y       z     vdW  Elec       q    Type
REMARK                         _______ _______ _______ _____ _____    ______ ____
ROOT
ATOM      1  C   UNL     1       1.413  -2.315  -2.637  0.00  0.00    +0.054 A 
ATOM      2  C   UNL     1       1.948  -1.445  -3.578  0.00  0.00    +0.053 A 
ATOM      3  C   UNL     1       2.507  -1.944  -4.738  0.00  0.00    +0.107 A 
ATOM      4  C   UNL     1       2.533  -3.308  -4.965  0.00  0.00    +0.030 A 
ATOM      5  C   UNL     1       2.001  -4.177  -4.031  0.00  0.00    +0.024 A 
ATOM      6  C   UNL     1       1.445  -3.685  -2.864  0.00  0.00    +0.062 A 
ATOM      7 CL   UNL     1       0.784  -4.777  -1.688  0.00  0.00    -0.082 Cl
ENDROOT
BRANCH   1  10
ATOM      8  C   UNL     1       0.186  -0.638  -1.477  0.00  0.00    +0.217 C 
ATOM      9  O   UNL     1       0.151   0.023  -2.494  0.00  0.00    -0.275 OA
ATOM     10  N   UNL     1       0.847  -1.812  -1.460  0.00  0.00    -0.284 N 
ATOM     11  H   UNL     1       0.930  -2.309  -0.631  0.00  0.00    +0.155 HD
BRANCH   8  13
ATOM     12  C   UNL     1      -1.177   1.201  -0.523  0.00  0.00    +0.013 C 
ATOM     13  C   UNL     1      -0.510  -0.145  -0.234  0.00  0.00    +0.093 C 
ENDBRANCH   8  13
ENDBRANCH   1  10
BRANCH   3  14
ATOM     14  S   UNL     1       3.186  -0.841  -5.933  0.00  0.00    +0.056 S 
ATOM     15  O   UNL     1       3.157  -1.523  -7.179  0.00  0.00    -0.153 OA
ATOM     16  O   UNL     1       2.549   0.414  -5.736  0.00  0.00    -0.153 OA
BRANCH  14  17
ATOM     17  N   UNL     1       4.782  -0.625  -5.548  0.00  0.00    -0.204 NA
ATOM     18  H   UNL     1       5.429  -0.442  -6.247  0.00  0.00    +0.144 HD
ATOM     19  H   UNL     1       5.071  -0.683  -4.623  0.00  0.00    +0.144 HD
ENDBRANCH  14  17
ENDBRANCH   3  14
TORSDOF 4
