REMARK  Name = ZINC05410214
REMARK  4 active torsions:
REMARK  status: ('A' for Active; 'I' for Inactive)
REMARK    1  A    between atoms: C_1  and  C_2
REMARK    2  A    between atoms: N_6  and  N_7
REMARK    3  A    between atoms: C_8  and  C_9
REMARK    4  A    between atoms: C_14  and  O_15
REMARK                            x       y       z     vdW  Elec       q    Type
REMARK                         _______ _______ _______ _____ _____    ______ ____
ROOT
ATOM      1  N   UNL     1       0.029  -0.371   2.446  0.00  0.00    -0.171 NA
ATOM      2  C   UNL     1      -0.048  -1.233   3.414  0.00  0.00    +0.145 C 
ENDROOT
BRANCH   1   8
ATOM      3  C   UNL     1       0.469   1.466   0.022  0.00  0.00    +0.090 C 
ATOM      4  C   UNL     1       0.223  -0.021   0.007  0.00  0.00    +0.150 A 
ATOM      5  N   UNL     1       0.164  -0.764  -1.051  0.00  0.00    -0.157 NA
ATOM      6  N   UNL     1      -0.079  -2.083  -0.644  0.00  0.00    -0.253 N 
ATOM      7  C   UNL     1      -0.160  -2.080   0.703  0.00  0.00    +0.196 A 
ATOM      8  N   UNL     1       0.031  -0.810   1.115  0.00  0.00    -0.193 N 
ATOM      9  S   UNL     1      -0.445  -3.439   1.705  0.00  0.00    -0.010 S 
ATOM     10  H   UNL     1      -0.172  -2.856  -1.223  0.00  0.00    +0.191 HD
ENDBRANCH   1   8
BRANCH   2  11
ATOM     11  C   UNL     1      -0.152  -0.767   4.808  0.00  0.00    +0.038 A 
ATOM     12  C   UNL     1      -0.230  -1.691   5.853  0.00  0.00    +0.028 A 
ATOM     13  C   UNL     1      -0.328  -1.249   7.156  0.00  0.00    +0.020 A 
ATOM     14  C   UNL     1      -0.350   0.108   7.433  0.00  0.00    +0.034 A 
ATOM     15  C   UNL     1      -0.275   1.032   6.407  0.00  0.00    +0.061 A 
ATOM     16  C   UNL     1      -0.170   0.605   5.093  0.00  0.00    +0.139 A 
ATOM     17 BR   UNL     1      -0.307   2.882   6.799  0.00  0.00    -0.046 Br
ATOM     18 BR   UNL     1      -0.433  -2.501   8.570  0.00  0.00    -0.050 Br
BRANCH  16  19
ATOM     19  O   UNL     1      -0.089   1.512   4.085  0.00  0.00    -0.505 OA
ATOM     20  H   UNL     1      -0.947   1.777   3.726  0.00  0.00    +0.292 HD
ENDBRANCH  16  19
ENDBRANCH   2  11
TORSDOF 3
