REMARK  Name = ZINC11905516
REMARK  5 active torsions:
REMARK  status: ('A' for Active; 'I' for Inactive)
REMARK    1  A    between atoms: C_10  and  S_12
REMARK    2  A    between atoms: S_12  and  C_13
REMARK    3  A    between atoms: C_13  and  C_14
REMARK    4  A    between atoms: N_16  and  C_17
REMARK    5  A    between atoms: C_18  and  C_26
REMARK                            x       y       z     vdW  Elec       q    Type
REMARK                         _______ _______ _______ _____ _____    ______ ____
ROOT
ATOM      1  C   UNL     1      -0.016   1.344   0.009  0.00  0.00    +0.228 C 
ATOM      2  O   UNL     1       1.026   1.964   0.003  0.00  0.00    -0.275 OA
ATOM      3  N   UNL     1       0.002  -0.004   0.002  0.00  0.00    -0.279 N 
ATOM      4  H   UNL     1      -0.831  -0.500   0.007  0.00  0.00    +0.155 HD
ENDROOT
BRANCH   3   5
ATOM      5  C   UNL     1       1.212  -0.681  -0.013  0.00  0.00    +0.084 A 
ATOM      6  C   UNL     1       1.434  -2.051  -0.017  0.00  0.00    +0.068 A 
ATOM      7  C   UNL     1       2.813  -2.508  -0.037  0.00  0.00    -0.023 A 
ATOM      8  C   UNL     1       3.743  -1.529  -0.041  0.00  0.00    -0.004 A 
ATOM      9  S   UNL     1       2.814  -0.022  -0.024  0.00  0.00    -0.077 S 
ATOM     10  C   UNL     1       5.231  -1.697  -0.054  0.00  0.00    +0.043 C 
ATOM     11  C   UNL     1       5.557  -3.152   0.314  0.00  0.00    +0.005 C 
ATOM     12  C   UNL     1       4.671  -4.082  -0.519  0.00  0.00    +0.005 C 
ATOM     13  C   UNL     1       3.219  -3.976  -0.049  0.00  0.00    +0.037 C 
BRANCH   6  14
ATOM     14  C   UNL     1       0.318  -3.002  -0.005  0.00  0.00    +0.244 C 
ATOM     15  O   UNL     1      -0.157  -3.396  -1.054  0.00  0.00    -0.270 OA
ATOM     16  N   UNL     1      -0.182  -3.439   1.168  0.00  0.00    -0.325 N 
ATOM     17  H   UNL     1       0.197  -3.125   2.004  0.00  0.00    +0.145 HD
ATOM     18  H   UNL     1      -0.920  -4.069   1.176  0.00  0.00    +0.145 HD
ENDBRANCH   6  14
ENDBRANCH   3   5
BRANCH   1  19
ATOM     19  C   UNL     1      -1.331   2.079   0.020  0.00  0.00    +0.173 C 
BRANCH  19  20
ATOM     20  S   UNL     1      -1.025   3.863   0.028  0.00  0.00    -0.078 S 
BRANCH  20  30
ATOM     21  C   UNL     1      -7.644   4.782  -0.337  0.00  0.00    +0.005 C 
ATOM     22  C   UNL     1      -7.366   3.513   0.478  0.00  0.00    +0.006 C 
ATOM     23  C   UNL     1      -6.025   2.936   0.030  0.00  0.00    +0.056 C 
ATOM     24  C   UNL     1      -4.958   3.999   0.049  0.00  0.00    +0.052 A 
ATOM     25  C   UNL     1      -5.246   5.326   0.066  0.00  0.00    +0.038 A 
ATOM     26  C   UNL     1      -4.183   6.255   0.063  0.00  0.00    +0.255 A 
ATOM     27  O   UNL     1      -4.410   7.454   0.074  0.00  0.00    -0.267 OA
ATOM     28  N   UNL     1      -2.914   5.801   0.053  0.00  0.00    -0.302 N 
ATOM     29  H   UNL     1      -2.172   6.425   0.052  0.00  0.00    +0.171 HD
ATOM     30  C   UNL     1      -2.683   4.458   0.039  0.00  0.00    +0.170 A 
ATOM     31  N   UNL     1      -3.680   3.600   0.039  0.00  0.00    -0.228 NA
ATOM     32  C   UNL     1      -6.652   5.859   0.097  0.00  0.00    +0.042 C 
ENDBRANCH  20  30
ENDBRANCH  19  20
ENDBRANCH   1  19
TORSDOF 5
