REMARK  Name = ZINC52881598
REMARK  5 active torsions:
REMARK  status: ('A' for Active; 'I' for Inactive)
REMARK    1  A    between atoms: C_1  and  C_2
REMARK    2  A    between atoms: C_9  and  C_11
REMARK    3  A    between atoms: C_11  and  C_12
REMARK    4  A    between atoms: C_11  and  C_13
REMARK    5  A    between atoms: C_11  and  N_19
REMARK                            x       y       z     vdW  Elec       q    Type
REMARK                         _______ _______ _______ _____ _____    ______ ____
ROOT
ATOM      1  C   UNL     1       1.721  -0.601   3.247  0.00  0.00    +0.116 C 
ATOM      2  C   UNL     1       3.230  -0.586   2.996  0.00  0.00    +0.042 C 
ENDROOT
BRANCH   1  10
ATOM      3  C   UNL     1      -0.082   1.010  -0.177  0.00  0.00    +0.030 C 
ATOM      4  C   UNL     1      -1.044   0.830   1.000  0.00  0.00    +0.099 C 
ATOM      5  C   UNL     1      -2.176  -0.122   0.600  0.00  0.00    +0.182 C 
ATOM      6  O   UNL     1      -2.962  -0.430   1.755  0.00  0.00    -0.376 OA
ATOM      7  C   UNL     1      -2.244  -1.113   2.786  0.00  0.00    +0.179 C 
ATOM      8  C   UNL     1      -1.115  -0.211   3.297  0.00  0.00    +0.136 C 
ATOM      9  N   UNL     1      -0.325   0.244   2.142  0.00  0.00    -0.293 N 
ATOM     10  C   UNL     1       1.018   0.127   2.131  0.00  0.00    +0.240 C 
ATOM     11  O   UNL     1       1.661   0.608   1.221  0.00  0.00    -0.273 OA
ENDBRANCH   1  10
BRANCH   1  12
ATOM     12  C   UNL     1       1.422   0.081   4.558  0.00  0.00    -0.019 A 
ATOM     13  C   UNL     1       1.294   1.457   4.607  0.00  0.00    +0.006 A 
ATOM     14  C   UNL     1       1.020   2.083   5.809  0.00  0.00    +0.000 A 
ATOM     15  C   UNL     1       0.875   1.333   6.961  0.00  0.00    +0.000 A 
ATOM     16  C   UNL     1       1.002  -0.043   6.912  0.00  0.00    +0.000 A 
ATOM     17  C   UNL     1       1.272  -0.669   5.709  0.00  0.00    +0.006 A 
ENDBRANCH   1  12
BRANCH   1  18
ATOM     18  N   UNL     1       1.247  -1.991   3.300  0.00  0.00    -0.314 NA
ATOM     19  H   UNL     1       1.691  -2.496   4.052  0.00  0.00    +0.119 HD
ATOM     20  H   UNL     1       0.242  -2.027   3.384  0.00  0.00    +0.119 HD
ENDBRANCH   1  18
TORSDOF 3
