REMARK  Name = ZINC61079765
REMARK  7 active torsions:
REMARK  status: ('A' for Active; 'I' for Inactive)
REMARK    1  A    between atoms: C_1  and  C_2
REMARK    2  A    between atoms: C_2  and  C_4
REMARK    3  A    between atoms: C_2  and  N_9
REMARK    4  A    between atoms: N_6  and  C_7
REMARK    5  A    between atoms: N_6  and  C_8
REMARK    6  A    between atoms: C_10  and  C_12
REMARK    7  A    between atoms: C_14  and  N_20
REMARK                            x       y       z     vdW  Elec       q    Type
REMARK                         _______ _______ _______ _____ _____    ______ ____
ROOT
ATOM      1  N   UNL     1       0.811  -0.509   1.129  0.00  0.00    -0.300 N 
ATOM      2  C   UNL     1       2.147  -0.635   1.002  0.00  0.00    +0.246 C 
ATOM      3  O   UNL     1       2.687  -0.350  -0.050  0.00  0.00    -0.270 OA
ATOM      4  H   UNL     1       0.380  -0.736   1.967  0.00  0.00    +0.150 HD
ENDROOT
BRANCH   2   5
ATOM      5  C   UNL     1       2.954  -1.119   2.140  0.00  0.00    +0.053 A 
ATOM      6  C   UNL     1       2.335  -1.452   3.346  0.00  0.00    +0.039 A 
ATOM      7  C   UNL     1       3.097  -1.906   4.409  0.00  0.00    +0.061 A 
ATOM      8  C   UNL     1       4.478  -2.029   4.273  0.00  0.00    +0.145 A 
ATOM      9  C   UNL     1       5.092  -1.699   3.077  0.00  0.00    +0.056 A 
ATOM     10  C   UNL     1       4.339  -1.251   2.010  0.00  0.00    +0.033 A 
ATOM     11 BR   UNL     1       5.183  -0.809   0.377  0.00  0.00    -0.049 Br
ATOM     12  F   UNL     1       5.220  -2.472   5.311  0.00  0.00    -0.204 F 
BRANCH   7  13
ATOM     13  N   UNL     1       2.481  -2.240   5.620  0.00  0.00    -0.356 N 
ATOM     14  H   UNL     1       1.520  -2.154   5.714  0.00  0.00    +0.142 HD
ATOM     15  H   UNL     1       3.015  -2.558   6.364  0.00  0.00    +0.142 HD
ENDBRANCH   7  13
ENDBRANCH   2   5
BRANCH   1  17
ATOM     16  C   UNL     1       0.007   1.502  -0.009  0.00  0.00    +0.038 C 
ATOM     17  C   UNL     1       0.010  -0.029  -0.000  0.00  0.00    +0.156 C 
BRANCH  17  18
ATOM     18  C   UNL     1      -1.403  -0.533   0.136  0.00  0.00    +0.235 C 
ATOM     19  O   UNL     1      -1.840  -0.826   1.229  0.00  0.00    -0.274 OA
ATOM     20  N   UNL     1      -2.182  -0.659  -0.957  0.00  0.00    -0.306 N 
ATOM     21  C   UNL     1      -3.585  -1.054  -0.815  0.00  0.00    +0.131 C 
ATOM     22  C   UNL     1      -1.625  -0.402  -2.287  0.00  0.00    +0.131 C 
ENDBRANCH  17  18
ENDBRANCH   1  17
TORSDOF 4
