REMARK  Name = ZINC43172648
REMARK  7 active torsions:
REMARK  status: ('A' for Active; 'I' for Inactive)
REMARK    1  A    between atoms: C_1  and  C_2
REMARK    2  A    between atoms: C_7  and  N_8
REMARK    3  A    between atoms: N_11  and  C_12
REMARK    4  A    between atoms: C_12  and  C_13
REMARK    5  A    between atoms: C_13  and  C_14
REMARK    6  A    between atoms: C_17  and  S_20
REMARK    7  A    between atoms: S_20  and  N_23
REMARK                            x       y       z     vdW  Elec       q    Type
REMARK                         _______ _______ _______ _____ _____    ______ ____
ROOT
ATOM      1  N   UNL     1       0.026  -0.014   2.417  0.00  0.00    -0.269 N 
ATOM      2  C   UNL     1      -0.056  -0.693   3.579  0.00  0.00    +0.304 C 
ATOM      3  O   UNL     1      -0.040  -1.909   3.574  0.00  0.00    -0.253 OA
ATOM      4  N   UNL     1      -0.155  -0.025   4.745  0.00  0.00    -0.299 N 
ATOM      5  H   UNL     1       0.079   0.955   2.425  0.00  0.00    +0.156 HD
ATOM      6  H   UNL     1      -0.168   0.945   4.748  0.00  0.00    +0.150 HD
ENDROOT
BRANCH   1  13
ATOM      7  C   UNL     1      -1.266   1.183   0.182  0.00  0.00    +0.046 C 
ATOM      8  C   UNL     1      -0.585  -0.158   0.085  0.00  0.00    -0.028 A 
ATOM      9  C   UNL     1      -0.570  -0.840  -1.116  0.00  0.00    +0.025 A 
ATOM     10  C   UNL     1       0.055  -2.071  -1.206  0.00  0.00    +0.041 A 
ATOM     11  C   UNL     1       0.667  -2.623  -0.094  0.00  0.00    +0.022 A 
ATOM     12  C   UNL     1       0.655  -1.944   1.109  0.00  0.00    +0.025 A 
ATOM     13  C   UNL     1       0.034  -0.706   1.200  0.00  0.00    +0.038 A 
ATOM     14 CL   UNL     1       0.071  -2.926  -2.717  0.00  0.00    -0.084 Cl
ENDBRANCH   1  13
BRANCH   4  15
ATOM     15  C   UNL     1      -0.244  -0.763   6.007  0.00  0.00    +0.110 C 
BRANCH  15  16
ATOM     16  C   UNL     1      -0.346   0.226   7.170  0.00  0.00    +0.054 C 
BRANCH  16  17
ATOM     17  C   UNL     1      -0.438  -0.534   8.468  0.00  0.00    -0.046 A 
ATOM     18  C   UNL     1      -1.673  -0.902   8.968  0.00  0.00    +0.005 A 
ATOM     19  C   UNL     1      -1.756  -1.599  10.159  0.00  0.00    +0.029 A 
ATOM     20  C   UNL     1      -0.605  -1.928  10.850  0.00  0.00    +0.105 A 
ATOM     21  C   UNL     1       0.630  -1.560  10.350  0.00  0.00    +0.029 A 
ATOM     22  C   UNL     1       0.714  -0.867   9.157  0.00  0.00    +0.005 A 
BRANCH  20  23
ATOM     23  S   UNL     1      -0.711  -2.815  12.369  0.00  0.00    +0.056 S 
ATOM     24  O   UNL     1       0.475  -2.523  13.094  0.00  0.00    -0.153 OA
ATOM     25  O   UNL     1      -2.007  -2.563  12.896  0.00  0.00    -0.153 OA
BRANCH  23  26
ATOM     26  N   UNL     1      -0.656  -4.428  11.999  0.00  0.00    -0.204 NA
ATOM     27  H   UNL     1      -0.577  -4.711  11.074  0.00  0.00    +0.144 HD
ATOM     28  H   UNL     1      -0.701  -5.090  12.706  0.00  0.00    +0.144 HD
ENDBRANCH  23  26
ENDBRANCH  20  23
ENDBRANCH  16  17
ENDBRANCH  15  16
ENDBRANCH   4  15
TORSDOF 6
