REMARK  Name = ZINC01563395
REMARK  4 active torsions:
REMARK  status: ('A' for Active; 'I' for Inactive)
REMARK    1  A    between atoms: C_4  and  C_7
REMARK    2  A    between atoms: C_14  and  N_25
REMARK    3  A    between atoms: C_15  and  S_17
REMARK    4  A    between atoms: S_17  and  C_18
REMARK                            x       y       z     vdW  Elec       q    Type
REMARK                         _______ _______ _______ _____ _____    ______ ____
ROOT
ATOM      1  C   UNL     1      -5.827   1.629   0.052  0.00  0.00    +0.164 A 
ATOM      2  N   UNL     1      -5.882   2.959   0.062  0.00  0.00    -0.211 NA
ATOM      3  C   UNL     1      -4.780   3.694   0.059  0.00  0.00    +0.148 A 
ATOM      4  C   UNL     1      -3.528   3.032   0.045  0.00  0.00    +0.149 A 
ATOM      5  C   UNL     1      -3.517   1.617   0.035  0.00  0.00    +0.186 A 
ATOM      6  N   UNL     1      -4.686   0.964   0.039  0.00  0.00    -0.206 NA
ATOM      7  N   UNL     1      -2.350   0.962   0.022  0.00  0.00    -0.209 NA
ATOM      8  C   UNL     1      -1.219   1.642   0.018  0.00  0.00    +0.151 A 
ATOM      9  C   UNL     1      -1.233   3.056   0.034  0.00  0.00    +0.142 A 
ATOM     10  N   UNL     1      -2.378   3.711   0.041  0.00  0.00    -0.230 NA
ATOM     11  N   UNL     1      -4.851   5.073   0.070  0.00  0.00    -0.341 N 
ATOM     12  H   UNL     1      -5.715   5.514   0.080  0.00  0.00    +0.144 HD
ATOM     13  H   UNL     1      -4.037   5.600   0.068  0.00  0.00    +0.144 HD
ENDROOT
BRANCH   1  17
ATOM     14  C   UNL     1      -9.468  -0.565   0.064  0.00  0.00    +0.000 A 
ATOM     15  C   UNL     1      -9.497   0.819   0.073  0.00  0.00    +0.001 A 
ATOM     16  C   UNL     1      -8.318   1.536   0.070  0.00  0.00    +0.011 A 
ATOM     17  C   UNL     1      -7.096   0.864   0.056  0.00  0.00    +0.019 A 
ATOM     18  C   UNL     1      -7.074  -0.529   0.041  0.00  0.00    +0.011 A 
ATOM     19  C   UNL     1      -8.259  -1.236   0.050  0.00  0.00    +0.001 A 
ENDBRANCH   1  17
BRANCH   8  20
ATOM     20  N   UNL     1      -0.012   0.966   0.004  0.00  0.00    -0.341 N 
ATOM     21  H   UNL     1       0.001  -0.004  -0.003  0.00  0.00    +0.144 HD
ATOM     22  H   UNL     1       0.822   1.462  -0.003  0.00  0.00    +0.144 HD
ENDBRANCH   8  20
BRANCH   9  23
ATOM     23  S   UNL     1       0.287   3.947   0.036  0.00  0.00    -0.067 S 
BRANCH  23  24
ATOM     24  C   UNL     1      -0.207   5.633  -0.096  0.00  0.00    +0.014 A 
ATOM     25  C   UNL     1      -0.447   6.193  -1.345  0.00  0.00    +0.016 A 
ATOM     26  C   UNL     1      -0.841   7.513  -1.445  0.00  0.00    +0.021 A 
ATOM     27  C   UNL     1      -0.984   8.282  -0.303  0.00  0.00    +0.041 A 
ATOM     28  C   UNL     1      -0.740   7.729   0.942  0.00  0.00    +0.021 A 
ATOM     29  C   UNL     1      -0.352   6.408   1.048  0.00  0.00    +0.016 A 
ATOM     30 CL   UNL     1      -1.472   9.943  -0.433  0.00  0.00    -0.084 Cl
ENDBRANCH  23  24
ENDBRANCH   9  23
TORSDOF 4
