REMARK  Name = ZINC39545676
REMARK  7 active torsions:
REMARK  status: ('A' for Active; 'I' for Inactive)
REMARK    1  A    between atoms: C_1  and  C_2
REMARK    2  A    between atoms: C_2  and  C_3
REMARK    3  A    between atoms: C_2  and  S_4
REMARK    4  A    between atoms: S_4  and  N_7
REMARK    5  A    between atoms: N_7  and  C_8
REMARK    6  A    between atoms: C_13  and  O_14
REMARK    7  A    between atoms: C_15  and  C_17
REMARK                            x       y       z     vdW  Elec       q    Type
REMARK                         _______ _______ _______ _____ _____    ______ ____
ROOT
ATOM      1  N   UNL     1      -2.712  -0.132  -1.350  0.00  0.00    -0.139 N 
ATOM      2  C   UNL     1      -2.850   1.087  -1.909  0.00  0.00    +0.258 C 
ATOM      3  O   UNL     1      -3.307   1.193  -3.028  0.00  0.00    -0.272 OA
ENDROOT
BRANCH   2   4
ATOM      4  C   UNL     1      -2.436   2.318  -1.145  0.00  0.00    +0.153 C 
ATOM      5  C   UNL     1      -0.933   2.595  -1.341  0.00  0.00    +0.100 C 
ATOM      6  C   UNL     1      -0.891   3.970  -1.970  0.00  0.00    +0.137 C 
ATOM      7  C   UNL     1      -2.113   4.415  -2.126  0.00  0.00    +0.107 C 
ATOM      8  N   UNL     1      -2.478   5.676  -2.645  0.00  0.00    -0.302 N 
ATOM      9  C   UNL     1      -3.600   6.262  -2.037  0.00  0.00    +0.037 A 
ATOM     10  C   UNL     1      -3.981   7.550  -2.387  0.00  0.00    +0.023 A 
ATOM     11  C   UNL     1      -5.090   8.123  -1.795  0.00  0.00    +0.002 A 
ATOM     12  C   UNL     1      -5.816   7.409  -0.858  0.00  0.00    +0.000 A 
ATOM     13  C   UNL     1      -5.434   6.129  -0.507  0.00  0.00    +0.007 A 
ATOM     14  C   UNL     1      -4.320   5.548  -1.089  0.00  0.00    -0.010 A 
ATOM     15  C   UNL     1      -3.914   4.161  -0.665  0.00  0.00    +0.124 C 
ATOM     16  N   UNL     1      -3.099   3.512  -1.693  0.00  0.00    -0.368 NA
ATOM     17  F   UNL     1       0.232   4.636  -2.317  0.00  0.00    -0.207 F 
ATOM     18  H   UNL     1      -1.992   6.104  -3.367  0.00  0.00    +0.153 HD
ATOM     19  H   UNL     1      -3.684   3.249  -2.471  0.00  0.00    +0.129 HD
ENDBRANCH   2   4
BRANCH   1  20
ATOM     20  C   UNL     1      -2.280  -0.249  -0.022  0.00  0.00    +0.101 A 
ATOM     21  C   UNL     1      -3.198  -0.180   1.016  0.00  0.00    +0.029 A 
ATOM     22  C   UNL     1      -2.770  -0.295   2.325  0.00  0.00    +0.002 A 
ATOM     23  C   UNL     1      -1.428  -0.479   2.603  0.00  0.00    +0.004 A 
ATOM     24  C   UNL     1      -0.508  -0.548   1.574  0.00  0.00    +0.047 A 
ATOM     25  C   UNL     1      -0.929  -0.440   0.259  0.00  0.00    +0.140 A 
BRANCH  25  26
ATOM     26  O   UNL     1      -0.026  -0.514  -0.755  0.00  0.00    -0.505 OA
ATOM     27  H   UNL     1       0.406   0.326  -0.959  0.00  0.00    +0.292 HD
ENDBRANCH  25  26
ENDBRANCH   1  20
BRANCH   1  28
ATOM     28  S   UNL     1      -3.052  -1.491  -2.233  0.00  0.00    +0.054 S 
ATOM     29  O   UNL     1      -2.331  -2.532  -1.588  0.00  0.00    -0.154 OA
ATOM     30  O   UNL     1      -2.761  -1.133  -3.577  0.00  0.00    -0.154 OA
BRANCH  28  32
ATOM     31  C   UNL     1      -5.588  -0.501  -2.503  0.00  0.00    +0.033 C 
ATOM     32  C   UNL     1      -4.836  -1.746  -2.027  0.00  0.00    +0.146 C 
ATOM     33  C   UNL     1      -5.277  -2.956  -2.853  0.00  0.00    +0.033 C 
ENDBRANCH  28  32
ENDBRANCH   1  28
TORSDOF 5
