REMARK  Name = ZINC36929862
REMARK  5 active torsions:
REMARK  status: ('A' for Active; 'I' for Inactive)
REMARK    1  A    between atoms: C_6  and  C_7
REMARK    2  A    between atoms: C_7  and  O_8
REMARK    3  A    between atoms: C_9  and  C_11
REMARK    4  A    between atoms: C_11  and  C_12
REMARK    5  A    between atoms: N_13  and  O_14
REMARK                            x       y       z     vdW  Elec       q    Type
REMARK                         _______ _______ _______ _____ _____    ______ ____
ROOT
ATOM      1  C   UNL     1      -0.019   1.526   0.010  0.00  0.00    +0.025 C 
ATOM      2  C   UNL     1       1.420   2.052  -0.001  0.00  0.00    +0.108 C 
ATOM      3  N   UNL     1       2.130   1.465  -1.145  0.00  0.00    -0.301 N 
ATOM      4  C   UNL     1       2.135   0.004  -1.299  0.00  0.00    +0.108 C 
ATOM      5  C   UNL     1       0.688  -0.500  -1.273  0.00  0.00    +0.025 C 
ATOM      6  C   UNL     1       0.002  -0.004   0.002  0.00  0.00    +0.017 C 
ATOM      7  C   UNL     1       2.764   2.251  -2.037  0.00  0.00    +0.223 C 
ATOM      8  O   UNL     1       2.752   3.456  -1.899  0.00  0.00    -0.275 OA
ENDROOT
BRANCH   6   9
ATOM      9  C   UNL     1      -1.433  -0.534   0.048  0.00  0.00    +0.159 C 
BRANCH   9  10
ATOM     10  O   UNL     1      -1.411  -1.958   0.157  0.00  0.00    -0.395 OA
ATOM     11  H   UNL     1      -2.289  -2.363   0.192  0.00  0.00    +0.209 HD
ENDBRANCH   9  10
ENDBRANCH   6   9
BRANCH   7  12
ATOM     12  C   UNL     1       3.488   1.633  -3.205  0.00  0.00    +0.170 C 
BRANCH  12  13
ATOM     13  C   UNL     1       4.107   2.721  -4.045  0.00  0.00    +0.140 C 
ATOM     14  N   UNL     1       3.965   3.959  -3.705  0.00  0.00    -0.076 NA
ATOM     15  N   UNL     1       4.824   2.395  -5.175  0.00  0.00    -0.344 N 
ATOM     16  H   UNL     1       4.931   1.466  -5.430  0.00  0.00    +0.144 HD
ATOM     17  H   UNL     1       5.223   3.095  -5.715  0.00  0.00    +0.144 HD
BRANCH  14  18
ATOM     18  O   UNL     1       4.547   4.981  -4.493  0.00  0.00    -0.408 OA
ATOM     19  H   UNL     1       4.387   5.875  -4.160  0.00  0.00    +0.328 HD
ENDBRANCH  14  18
ENDBRANCH  12  13
ENDBRANCH   7  12
TORSDOF 5
