REMARK  Name = ZINC66978646
REMARK  11 active torsions:
REMARK  status: ('A' for Active; 'I' for Inactive)
REMARK    1  A    between atoms: C_1  and  C_2
REMARK    2  A    between atoms: C_2  and  C_3
REMARK    3  A    between atoms: C_2  and  C_4
REMARK    4  A    between atoms: C_2  and  C_5
REMARK    5  A    between atoms: C_7  and  C_10
REMARK    6  A    between atoms: C_10  and  C_11
REMARK    7  A    between atoms: C_10  and  C_12
REMARK    8  A    between atoms: C_10  and  N_13
REMARK    9  A    between atoms: N_16  and  C_17
REMARK   10  A    between atoms: C_17  and  C_18
REMARK   11  A    between atoms: C_18  and  O_28
REMARK                            x       y       z     vdW  Elec       q    Type
REMARK                         _______ _______ _______ _____ _____    ______ ____
ROOT
ATOM      1  N   UNL     1       3.390  -1.215  -4.894  0.00  0.00    -0.287 N 
ATOM      2  C   UNL     1       4.524  -1.432  -5.590  0.00  0.00    +0.300 C 
ATOM      3  O   UNL     1       5.577  -0.971  -5.196  0.00  0.00    -0.253 OA
ATOM      4  N   UNL     1       4.490  -2.162  -6.723  0.00  0.00    -0.296 N 
ATOM      5  H   UNL     1       2.550  -1.584  -5.209  0.00  0.00    +0.151 HD
ATOM      6  H   UNL     1       3.650  -2.530  -7.038  0.00  0.00    +0.150 HD
ENDROOT
BRANCH   1   7
ATOM      7  C   UNL     1       3.427  -0.423  -3.663  0.00  0.00    +0.093 C 
ATOM      8  C   UNL     1       3.943   0.983  -3.976  0.00  0.00    +0.040 C 
ATOM      9  C   UNL     1       4.358  -1.095  -2.652  0.00  0.00    +0.040 C 
BRANCH   7  12
ATOM     10  C   UNL     1       0.426   0.203  -1.741  0.00  0.00    +0.233 A 
ATOM     11  N   UNL     1       1.706   0.318  -1.962  0.00  0.00    -0.193 NA
ATOM     12  C   UNL     1       2.039  -0.331  -3.083  0.00  0.00    +0.194 A 
ATOM     13  N   UNL     1       0.968  -0.869  -3.593  0.00  0.00    -0.059 NA
ATOM     14  O   UNL     1      -0.104  -0.536  -2.724  0.00  0.00    -0.337 OA
BRANCH  10  16
ATOM     15  C   UNL     1      -0.181   2.318  -0.597  0.00  0.00    +0.020 C 
ATOM     16  C   UNL     1      -0.327   0.795  -0.578  0.00  0.00    +0.041 C 
ATOM     17  C   UNL     1       0.244   0.245   0.731  0.00  0.00    +0.020 C 
ATOM     18  C   UNL     1      -1.807   0.423  -0.685  0.00  0.00    +0.020 C 
ENDBRANCH  10  16
ENDBRANCH   7  12
ENDBRANCH   1   7
BRANCH   4  19
ATOM     19  C   UNL     1       5.723  -2.397  -7.479  0.00  0.00    +0.145 C 
BRANCH  19  20
ATOM     20  C   UNL     1       5.434  -3.354  -8.638  0.00  0.00    +0.107 C 
ATOM     21  C   UNL     1       4.842  -4.649  -8.087  0.00  0.00    +0.041 C 
ATOM     22  C   UNL     1       4.764  -5.670  -9.229  0.00  0.00    +0.008 C 
ATOM     23  C   UNL     1       6.185  -6.097  -9.590  0.00  0.00    +0.035 C 
ATOM     24  C   UNL     1       7.057  -4.891  -9.823  0.00  0.00    -0.041 A 
ATOM     25  C   UNL     1       6.714  -3.632  -9.383  0.00  0.00    -0.011 A 
ATOM     26  C   UNL     1       7.566  -2.562  -9.625  0.00  0.00    +0.007 A 
ATOM     27  C   UNL     1       8.752  -2.751 -10.306  0.00  0.00    +0.000 A 
ATOM     28  C   UNL     1       9.094  -4.014 -10.752  0.00  0.00    +0.000 A 
ATOM     29  C   UNL     1       8.249  -5.078 -10.510  0.00  0.00    +0.004 A 
BRANCH  20  30
ATOM     30  O   UNL     1       4.494  -2.747  -9.527  0.00  0.00    -0.382 OA
ATOM     31  H   UNL     1       4.798  -1.913  -9.912  0.00  0.00    +0.211 HD
ENDBRANCH  20  30
ENDBRANCH  19  20
ENDBRANCH   4  19
TORSDOF 6
