REMARK  Name = ZINC03104251
REMARK  7 active torsions:
REMARK  status: ('A' for Active; 'I' for Inactive)
REMARK    1  A    between atoms: C_1  and  N_2
REMARK    2  A    between atoms: N_2  and  C_3
REMARK    3  A    between atoms: C_3  and  N_5
REMARK    4  A    between atoms: N_5  and  N_6
REMARK    5  A    between atoms: C_7  and  C_9
REMARK    6  A    between atoms: C_9  and  C_10
REMARK    7  A    between atoms: C_22  and  C_25
REMARK                            x       y       z     vdW  Elec       q    Type
REMARK                         _______ _______ _______ _____ _____    ______ ____
ROOT
ATOM      1  C   UNL     1      -4.576   4.270   0.002  0.00  0.00    -0.013 A 
ATOM      2  C   UNL     1      -3.640   3.310  -0.043  0.00  0.00    +0.098 A 
ATOM      3  N   UNL     1      -2.392   3.869   0.046  0.00  0.00    -0.299 N 
ATOM      4  C   UNL     1      -2.501   5.240   0.158  0.00  0.00    +0.055 A 
ATOM      5  C   UNL     1      -3.873   5.550   0.130  0.00  0.00    +0.004 A 
ATOM      6  C   UNL     1      -4.289   6.879   0.223  0.00  0.00    +0.010 A 
ATOM      7  C   UNL     1      -3.359   7.875   0.335  0.00  0.00    +0.001 A 
ATOM      8  C   UNL     1      -2.004   7.574   0.358  0.00  0.00    +0.002 A 
ATOM      9  C   UNL     1      -1.572   6.269   0.268  0.00  0.00    +0.027 A 
ATOM     10  C   UNL     1      -1.190   3.159   0.030  0.00  0.00    +0.156 A 
ATOM     11  C   UNL     1      -0.966   2.206  -0.959  0.00  0.00    +0.084 A 
ATOM     12  C   UNL     1       0.228   1.504  -0.958  0.00  0.00    +0.037 A 
ATOM     13  C   UNL     1       1.163   1.789   0.028  0.00  0.00    +0.074 A 
ATOM     14  C   UNL     1       0.876   2.752   0.974  0.00  0.00    +0.125 A 
ATOM     15  N   UNL     1      -0.273   3.401   0.953  0.00  0.00    -0.236 NA
ATOM     16 CL   UNL     1      -2.168   1.896  -2.171  0.00  0.00    -0.080 Cl
ENDROOT
BRANCH  13  17
ATOM     17  C   UNL     1       2.478   1.054   0.064  0.00  0.00    +0.419 C 
ATOM     18  F   UNL     1       3.422   1.749  -0.700  0.00  0.00    -0.166 F 
ATOM     19  F   UNL     1       2.925   0.963   1.387  0.00  0.00    -0.166 F 
ATOM     20  F   UNL     1       2.309  -0.232  -0.460  0.00  0.00    -0.166 F 
ENDBRANCH  13  17
BRANCH   1  21
ATOM     21  C   UNL     1      -6.068   4.070  -0.066  0.00  0.00    +0.134 C 
BRANCH  21  23
ATOM     22  N   UNL     1      -7.839   4.105  -1.792  0.00  0.00    -0.235 N 
ATOM     23  C   UNL     1      -6.533   4.240  -1.489  0.00  0.00    +0.233 C 
ATOM     24  O   UNL     1      -5.732   4.497  -2.362  0.00  0.00    -0.274 OA
ATOM     25  H   UNL     1      -8.480   3.899  -1.094  0.00  0.00    +0.173 HD
BRANCH  22  26
ATOM     26  N   UNL     1      -8.272   4.262  -3.115  0.00  0.00    -0.246 N 
ATOM     27  H   UNL     1      -7.631   4.468  -3.814  0.00  0.00    +0.172 HD
BRANCH  26  28
ATOM     28  C   UNL     1      -9.578   4.128  -3.418  0.00  0.00    +0.147 C 
ATOM     29  S   UNL     1     -10.106   4.320  -5.035  0.00  0.00    -0.017 S 
BRANCH  28  31
ATOM     30  C   UNL     1     -11.889   3.695  -2.777  0.00  0.00    +0.127 C 
ATOM     31  N   UNL     1     -10.469   3.841  -2.448  0.00  0.00    -0.329 N 
ATOM     32  H   UNL     1     -10.169   3.733  -1.532  0.00  0.00    +0.147 HD
ENDBRANCH  28  31
ENDBRANCH  26  28
ENDBRANCH  22  26
ENDBRANCH  21  23
ENDBRANCH   1  21
TORSDOF 6
