REMARK  Name = ZINC08740473
REMARK  7 active torsions:
REMARK  status: ('A' for Active; 'I' for Inactive)
REMARK    1  A    between atoms: C_3  and  C_6
REMARK    2  A    between atoms: N_7  and  N_8
REMARK    3  A    between atoms: N_17  and  C1*_18
REMARK    4  A    between atoms: C2*_20  and  O2*_30
REMARK    5  A    between atoms: C3*_22  and  O3*_29
REMARK    6  A    between atoms: C4*_24  and  C5*_27
REMARK    7  A    between atoms: C5*_27  and  O5*_28
REMARK                            x       y       z     vdW  Elec       q    Type
REMARK                         _______ _______ _______ _____ _____    ______ ____
ROOT
ATOM      1  N   UNL     1       0.106   2.387   2.737  0.00  0.00    -0.206 N 
ATOM      2  C   UNL     1       0.859   3.325   2.061  0.00  0.00    +0.220 A 
ATOM      3  N   UNL     1       1.145   4.524   2.506  0.00  0.00    -0.208 NA
ATOM      4  C   UNL     1       1.901   5.176   1.587  0.00  0.00    +0.149 A 
ATOM      5  C   UNL     1       2.485   6.451   1.518  0.00  0.00    +0.147 A 
ATOM      6  N   UNL     1       3.183   6.771   0.434  0.00  0.00    -0.219 NA
ATOM      7  C   UNL     1       3.329   5.916  -0.562  0.00  0.00    +0.225 A 
ATOM      8  N   UNL     1       2.800   4.710  -0.541  0.00  0.00    -0.216 NA
ATOM      9  C   UNL     1       2.090   4.301   0.505  0.00  0.00    +0.169 A 
ATOM     10  N   UNL     1       1.419   3.143   0.826  0.00  0.00    -0.266 N 
ATOM     11  N   UNL     1       2.337   7.355   2.558  0.00  0.00    -0.341 N 
ATOM     12  H   UNL     1      -0.061   1.519   2.337  0.00  0.00    +0.177 HD
ATOM     13  H   UNL     1       1.365   7.550   2.695  0.00  0.00    +0.144 HD
ATOM     14  H   UNL     1       2.745   8.233   2.499  0.00  0.00    +0.144 HD
ENDROOT
BRANCH  10  15
ATOM     15  C1* UNL     1       1.326   1.937  -0.000  0.00  0.00    +0.255 C 
ATOM     16  C2* UNL     1       2.192   0.804   0.604  0.00  0.00    +0.195 C 
ATOM     17  C3* UNL     1       1.480  -0.451   0.029  0.00  0.00    +0.178 C 
ATOM     18  C4* UNL     1       0.002  -0.004   0.002  0.00  0.00    +0.177 C 
ATOM     19  O4* UNL     1      -0.017   1.428   0.010  0.00  0.00    -0.346 OA
BRANCH  17  20
ATOM     20  O3* UNL     1       1.947  -0.742  -1.289  0.00  0.00    -0.386 OA
ATOM     21  H3* UNL     1       1.472  -1.463  -1.725  0.00  0.00    +0.210 HD
ENDBRANCH  17  20
BRANCH  16  22
ATOM     22  O2* UNL     1       3.543   0.885   0.143  0.00  0.00    -0.385 OA
ATOM     23  H2* UNL     1       4.095   0.137   0.409  0.00  0.00    +0.210 HD
ENDBRANCH  16  22
BRANCH  18  24
ATOM     24  C5* UNL     1      -0.676  -0.525  -1.266  0.00  0.00    +0.190 C 
BRANCH  24  25
ATOM     25  O5* UNL     1      -2.067  -0.200  -1.231  0.00  0.00    -0.392 OA
ATOM     26  H5* UNL     1      -2.561  -0.500  -2.006  0.00  0.00    +0.210 HD
ENDBRANCH  24  25
ENDBRANCH  18  24
ENDBRANCH  10  15
BRANCH   1  28
ATOM     27  C   UNL     1      -1.127   1.803   4.639  0.00  0.00    +0.145 C 
ATOM     28  N   UNL     1      -0.418   2.688   4.002  0.00  0.00    -0.187 NA
BRANCH  27  31
ATOM     29  C   UNL     1      -2.845   1.852   8.007  0.00  0.00    +0.008 A 
ATOM     30  C   UNL     1      -2.447   1.329   6.798  0.00  0.00    +0.017 A 
ATOM     31  C   UNL     1      -1.675   2.118   5.963  0.00  0.00    +0.032 A 
ATOM     32  S   UNL     1      -1.515   3.617   6.920  0.00  0.00    -0.096 S 
ATOM     33  C   UNL     1      -2.473   3.115   8.340  0.00  0.00    +0.046 A 
ENDBRANCH  27  31
ENDBRANCH   1  28
TORSDOF 7
