REMARK  Name = ZINC40707176
REMARK  4 active torsions:
REMARK  status: ('A' for Active; 'I' for Inactive)
REMARK    1  A    between atoms: C_1  and  N_2
REMARK    2  A    between atoms: C_4  and  N_17
REMARK    3  A    between atoms: C_5  and  O_9
REMARK    4  A    between atoms: O_9  and  C_10
REMARK                            x       y       z     vdW  Elec       q    Type
REMARK                         _______ _______ _______ _____ _____    ______ ____
ROOT
ATOM      1  C   UNL     1      -0.002   1.453   0.130  0.00  0.00    +0.127 C 
ATOM      2  N   UNL     1       0.013  -0.011   0.080  0.00  0.00    -0.330 N 
ATOM      3  C   UNL     1      -1.182  -0.719   0.086  0.00  0.00    +0.146 A 
ATOM      4  C   UNL     1      -1.180  -2.116   0.045  0.00  0.00    +0.128 A 
ATOM      5  C   UNL     1      -2.407  -2.777   0.054  0.00  0.00    +0.246 A 
ATOM      6  N   UNL     1      -3.525  -2.059   0.102  0.00  0.00    -0.199 NA
ATOM      7  C   UNL     1      -3.485  -0.743   0.141  0.00  0.00    +0.227 A 
ATOM      8  N   UNL     1      -2.347  -0.079   0.138  0.00  0.00    -0.219 NA
ATOM      9  H   UNL     1       0.858  -0.486   0.041  0.00  0.00    +0.147 HD
ENDROOT
BRANCH   4  10
ATOM     10  N   UNL     1       0.025  -2.834  -0.006  0.00  0.00    -0.351 N 
ATOM     11  H   UNL     1       0.872  -2.361  -0.012  0.00  0.00    +0.143 HD
ATOM     12  H   UNL     1       0.011  -3.804  -0.035  0.00  0.00    +0.143 HD
ENDBRANCH   4  10
BRANCH   5  13
ATOM     13  O   UNL     1      -2.460  -4.132   0.015  0.00  0.00    -0.436 OA
BRANCH  13  14
ATOM     14  C   UNL     1      -3.676  -4.727   0.128  0.00  0.00    +0.130 A 
ATOM     15  C   UNL     1      -4.541  -4.751  -0.957  0.00  0.00    +0.047 A 
ATOM     16  C   UNL     1      -5.777  -5.357  -0.840  0.00  0.00    +0.019 A 
ATOM     17  C   UNL     1      -6.153  -5.939   0.357  0.00  0.00    +0.018 A 
ATOM     18  C   UNL     1      -5.292  -5.915   1.440  0.00  0.00    +0.019 A 
ATOM     19  C   UNL     1      -4.053  -5.316   1.326  0.00  0.00    +0.047 A 
ATOM     20 BR   UNL     1      -7.846  -6.767   0.514  0.00  0.00    -0.050 Br
ENDBRANCH  13  14
ENDBRANCH   5  13
TORSDOF 3
