REMARK  Name = ZINC58029096
REMARK  6 active torsions:
REMARK  status: ('A' for Active; 'I' for Inactive)
REMARK    1  A    between atoms: C_1  and  C_2
REMARK    2  A    between atoms: C_2  and  C_3
REMARK    3  A    between atoms: C_2  and  C_4
REMARK    4  A    between atoms: C_4  and  C_6
REMARK    5  A    between atoms: C_4  and  N_18
REMARK    6  A    between atoms: N_21  and  C_22
REMARK                            x       y       z     vdW  Elec       q    Type
REMARK                         _______ _______ _______ _____ _____    ______ ____
ROOT
ATOM      1  C   UNL     1      -1.408  -0.681  -0.793  0.00  0.00    +0.163 C 
ENDROOT
BRANCH   1   2
ATOM      2  C   UNL     1      -1.641  -2.170  -0.809  0.00  0.00    +0.240 C 
ATOM      3  O   UNL     1      -2.233  -2.681  -1.736  0.00  0.00    -0.273 OA
ATOM      4  N   UNL     1      -1.193  -2.934   0.207  0.00  0.00    -0.270 N 
ATOM      5  C   UNL     1      -0.401  -2.341   1.294  0.00  0.00    +0.114 C 
ATOM      6  C   UNL     1       0.784  -3.275   1.573  0.00  0.00    +0.024 C 
ATOM      7  C   UNL     1       0.249  -4.620   2.063  0.00  0.00    +0.038 C 
ATOM      8  C   UNL     1      -0.801  -5.146   1.119  0.00  0.00    -0.026 A 
ATOM      9  C   UNL     1      -1.478  -4.306   0.247  0.00  0.00    +0.039 A 
ATOM     10  C   UNL     1      -2.449  -4.821  -0.604  0.00  0.00    +0.024 A 
ATOM     11  C   UNL     1      -2.743  -6.169  -0.582  0.00  0.00    +0.002 A 
ATOM     12  C   UNL     1      -2.070  -7.007   0.288  0.00  0.00    +0.000 A 
ATOM     13  C   UNL     1      -1.095  -6.498   1.131  0.00  0.00    +0.005 A 
ENDBRANCH   1   2
BRANCH   1  14
ATOM     14  N   UNL     1      -2.562   0.000  -1.384  0.00  0.00    -0.288 N 
ATOM     15  C   UNL     1      -2.835   1.276  -1.048  0.00  0.00    +0.304 C 
ATOM     16  O   UNL     1      -2.124   1.862  -0.255  0.00  0.00    -0.252 OA
ATOM     17  N   UNL     1      -3.897   1.904  -1.592  0.00  0.00    -0.269 N 
ATOM     18  H   UNL     1      -3.129  -0.467  -2.018  0.00  0.00    +0.151 HD
ATOM     19  H   UNL     1      -4.499   1.419  -2.178  0.00  0.00    +0.156 HD
BRANCH  17  20
ATOM     20  C   UNL     1      -4.130   3.255  -1.312  0.00  0.00    +0.035 A 
ATOM     21  C   UNL     1      -4.665   4.085  -2.289  0.00  0.00    +0.023 A 
ATOM     22  C   UNL     1      -4.894   5.418  -2.009  0.00  0.00    +0.002 A 
ATOM     23  C   UNL     1      -4.593   5.926  -0.759  0.00  0.00    +0.000 A 
ATOM     24  C   UNL     1      -4.060   5.102   0.215  0.00  0.00    +0.002 A 
ATOM     25  C   UNL     1      -3.833   3.767  -0.056  0.00  0.00    +0.023 A 
ENDBRANCH  17  20
ENDBRANCH   1  14
BRANCH   1  27
ATOM     26  C   UNL     1       0.161   1.139  -1.476  0.00  0.00    +0.009 C 
ATOM     27  C   UNL     1      -0.152  -0.353  -1.603  0.00  0.00    +0.012 C 
ATOM     28  C   UNL     1       1.027  -1.169  -1.068  0.00  0.00    +0.009 C 
ENDBRANCH   1  27
TORSDOF 4
