REMARK  Name = ZINC08708403
REMARK  6 active torsions:
REMARK  status: ('A' for Active; 'I' for Inactive)
REMARK    1  A    between atoms: C_5  and  C_7
REMARK    2  A    between atoms: C_7  and  N_44
REMARK    3  A    between atoms: C_8  and  C_9
REMARK    4  A    between atoms: C_8  and  N_44
REMARK    5  A    between atoms: N_11  and  C_12
REMARK    6  A    between atoms: C_13  and  C_21
REMARK                            x       y       z     vdW  Elec       q    Type
REMARK                         _______ _______ _______ _____ _____    ______ ____
ROOT
ATOM      1  C   UNL     1       1.141   2.072   0.002  0.00  0.00    +0.201 C 
ATOM      2  O   UNL     1       2.200   1.480  -0.011  0.00  0.00    -0.278 OA
ATOM      3  N   UNL     1      -0.017   1.382   0.010  0.00  0.00    -0.281 N 
ATOM      4  H   UNL     1      -0.863   1.856   0.016  0.00  0.00    +0.155 HD
ENDROOT
BRANCH   3   5
ATOM      5  C   UNL     1       0.002  -0.004   0.002  0.00  0.00    +0.084 A 
ATOM      6  C   UNL     1      -1.073  -0.881   0.013  0.00  0.00    +0.068 A 
ATOM      7  C   UNL     1      -0.780  -2.304  -0.003  0.00  0.00    -0.023 A 
ATOM      8  C   UNL     1       0.533  -2.620  -0.016  0.00  0.00    -0.004 A 
ATOM      9  S   UNL     1       1.374  -1.062  -0.016  0.00  0.00    -0.077 S 
ATOM     10  C   UNL     1       1.132  -3.993  -0.028  0.00  0.00    +0.043 C 
ATOM     11  C   UNL     1       0.038  -5.000   0.356  0.00  0.00    +0.005 C 
ATOM     12  C   UNL     1      -1.218  -4.703  -0.467  0.00  0.00    +0.005 C 
ATOM     13  C   UNL     1      -1.848  -3.390   0.002  0.00  0.00    +0.037 C 
BRANCH   6  14
ATOM     14  C   UNL     1      -2.455  -0.390   0.036  0.00  0.00    +0.244 C 
ATOM     15  O   UNL     1      -3.044  -0.181  -1.008  0.00  0.00    -0.270 OA
ATOM     16  N   UNL     1      -3.072  -0.170   1.214  0.00  0.00    -0.325 N 
ATOM     17  H   UNL     1      -2.603  -0.337   2.046  0.00  0.00    +0.145 HD
ATOM     18  H   UNL     1      -3.986   0.155   1.229  0.00  0.00    +0.145 HD
ENDBRANCH   6  14
ENDBRANCH   3   5
BRANCH   1  19
ATOM     19  C   UNL     1       1.121   3.579   0.011  0.00  0.00    +0.016 C 
BRANCH  19  20
ATOM     20  N   UNL     1       2.508   4.081   0.000  0.00  0.00    +0.387 N 
ATOM     21  H   UNL     1       3.000   3.735   0.832  0.00  0.00    -0.085 HD
ATOM     22  H   UNL     1       2.984   3.744  -0.845  0.00  0.00    -0.085 HD
BRANCH  20  23
ATOM     23  C   UNL     1       2.518   5.556   0.008  0.00  0.00    -0.043 C 
BRANCH  23  28
ATOM     24  C   UNL     1       5.854   6.896   1.162  0.00  0.00    +0.000 A 
ATOM     25  C   UNL     1       6.565   6.928  -0.023  0.00  0.00    +0.003 A 
ATOM     26  C   UNL     1       5.968   6.516  -1.199  0.00  0.00    +0.038 A 
ATOM     27  C   UNL     1       4.657   6.071  -1.190  0.00  0.00    +0.125 A 
ATOM     28  C   UNL     1       3.945   6.040  -0.003  0.00  0.00    -0.029 A 
ATOM     29  C   UNL     1       4.543   6.458   1.171  0.00  0.00    +0.004 A 
ATOM     30  F   UNL     1       4.072   5.669  -2.340  0.00  0.00    -0.205 F 
ENDBRANCH  23  28
ENDBRANCH  20  23
ENDBRANCH  19  20
ENDBRANCH   1  19
TORSDOF 6
