REMARK  Name = ZINC52855673
REMARK  3 active torsions:
REMARK  status: ('A' for Active; 'I' for Inactive)
REMARK    1  A    between atoms: C_8  and  N_13
REMARK    2  A    between atoms: C_9  and  N_12
REMARK    3  A    between atoms: C_16  and  C_18
REMARK                            x       y       z     vdW  Elec       q    Type
REMARK                         _______ _______ _______ _____ _____    ______ ____
ROOT
ATOM      1  C   UNL     1       0.037   1.352   0.629  0.00  0.00    +0.017 A 
ATOM      2  C   UNL     1       1.161   2.082   0.391  0.00  0.00    +0.029 A 
ATOM      3  C   UNL     1       2.386   1.426   0.177  0.00  0.00    +0.073 A 
ATOM      4  C   UNL     1       2.425   0.011   0.213  0.00  0.00    +0.029 A 
ATOM      5  C   UNL     1       1.247  -0.710   0.461  0.00  0.00    +0.027 A 
ATOM      6  C   UNL     1       0.078  -0.041   0.664  0.00  0.00    +0.019 A 
ATOM      7 BR   UNL     1      -1.509  -1.013   0.999  0.00  0.00    -0.050 Br
ATOM      8  C   UNL     1       3.656  -0.647  -0.002  0.00  0.00    +0.097 A 
ATOM      9  C   UNL     1       4.778   0.136  -0.241  0.00  0.00    +0.069 A 
ATOM     10  C   UNL     1       4.656   1.527  -0.261  0.00  0.00    +0.136 A 
ATOM     11  N   UNL     1       3.505   2.121  -0.058  0.00  0.00    -0.253 NA
ENDROOT
BRANCH   8  12
ATOM     12  N   UNL     1       3.743  -2.042   0.025  0.00  0.00    -0.237 N 
ATOM     13  C   UNL     1       4.645  -2.774   0.728  0.00  0.00    +0.115 A 
ATOM     14  C   UNL     1       4.391  -4.081   0.484  0.00  0.00    +0.045 A 
ATOM     15  C   UNL     1       3.303  -4.153  -0.393  0.00  0.00    +0.066 A 
ATOM     16  N   UNL     1       2.911  -2.934  -0.664  0.00  0.00    -0.171 NA
BRANCH  15  17
ATOM     17  C   UNL     1       2.685  -5.418  -0.929  0.00  0.00    +0.040 C 
ATOM     18  C   UNL     1       3.498  -6.709  -0.806  0.00  0.00    +0.010 C 
ATOM     19  C   UNL     1       3.321  -6.043  -2.173  0.00  0.00    +0.010 C 
ENDBRANCH  15  17
ENDBRANCH   8  12
BRANCH   9  20
ATOM     20  N   UNL     1       6.022  -0.465  -0.461  0.00  0.00    -0.355 N 
ATOM     21  H   UNL     1       6.087  -1.429  -0.545  0.00  0.00    +0.142 HD
ATOM     22  H   UNL     1       6.820   0.083  -0.528  0.00  0.00    +0.142 HD
ENDBRANCH   9  20
TORSDOF 3
