REMARK  Name = ZINC05413414
REMARK  6 active torsions:
REMARK  status: ('A' for Active; 'I' for Inactive)
REMARK    1  A    between atoms: C_4  and  C_7
REMARK    2  A    between atoms: C_7  and  C_8
REMARK    3  A    between atoms: C_8  and  C_10
REMARK    4  A    between atoms: C_8  and  N_13
REMARK    5  A    between atoms: C_14  and  C_16
REMARK    6  A    between atoms: C_31  and  C_33
REMARK                            x       y       z     vdW  Elec       q    Type
REMARK                         _______ _______ _______ _____ _____    ______ ____
ROOT
ATOM      1  C   UNL     1       1.253  -1.806   1.363  0.00  0.00    +0.181 C 
ATOM      2  C   UNL     1       0.595  -0.846   0.358  0.00  0.00    +0.139 C 
ATOM      3  N   UNL     1      -0.548  -0.197   1.016  0.00  0.00    -0.298 N 
ATOM      4  C   UNL     1      -1.594  -1.039   1.613  0.00  0.00    +0.127 C 
ATOM      5  C   UNL     1      -0.938  -2.000   2.613  0.00  0.00    +0.129 C 
ATOM      6  N   UNL     1       0.207  -2.648   1.960  0.00  0.00    -0.271 N 
ATOM      7  C   UNL     1       0.297  -3.992   1.909  0.00  0.00    +0.306 C 
ATOM      8  O   UNL     1       1.371  -4.522   1.702  0.00  0.00    -0.252 OA
ATOM      9  N   UNL     1      -0.804  -4.748   2.087  0.00  0.00    -0.281 N 
ATOM     10  C   UNL     1      -2.151  -4.165   1.971  0.00  0.00    +0.137 C 
ATOM     11  C   UNL     1      -2.974  -5.047   1.019  0.00  0.00    +0.179 C 
ATOM     12  O   UNL     1      -2.907  -6.405   1.461  0.00  0.00    -0.377 OA
ATOM     13  C   UNL     1      -1.591  -6.962   1.440  0.00  0.00    +0.179 C 
ATOM     14  C   UNL     1      -0.696  -6.180   2.409  0.00  0.00    +0.137 C 
ATOM     15  C   UNL     1      -0.638   1.147   1.067  0.00  0.00    +0.219 C 
ATOM     16  O   UNL     1       0.268   1.832   0.640  0.00  0.00    -0.275 OA
ENDROOT
BRANCH  15  17
ATOM     17  C   UNL     1      -1.866   1.799   1.649  0.00  0.00    +0.072 C 
ATOM     18  C   UNL     1      -3.076   1.492   0.762  0.00  0.00    -0.007 C 
ATOM     19  C   UNL     1      -4.308   2.206   1.324  0.00  0.00    -0.082 C 
ATOM     20  C   UNL     1      -2.932   3.976   2.245  0.00  0.00    -0.082 C 
ATOM     21  C   UNL     1      -1.660   3.315   1.711  0.00  0.00    -0.007 C 
ATOM     22  N   UNL     1      -4.067   3.662   1.357  0.00  0.00    +0.379 N 
ATOM     23  H   UNL     1      -4.909   4.136   1.703  0.00  0.00    -0.086 HD
ATOM     24  H   UNL     1      -3.855   3.990   0.408  0.00  0.00    -0.086 HD
ENDBRANCH  15  17
BRANCH   1  26
ATOM     25  N   UNL     1       3.569  -2.569   0.946  0.00  0.00    -0.302 N 
ATOM     26  C   UNL     1       2.258  -2.675   0.651  0.00  0.00    +0.236 C 
ATOM     27  O   UNL     1       1.887  -3.469  -0.187  0.00  0.00    -0.274 OA
ATOM     28  H   UNL     1       3.865  -1.934   1.616  0.00  0.00    +0.150 HD
BRANCH  25  29
ATOM     29  C   UNL     1       4.545  -3.414   0.254  0.00  0.00    +0.159 C 
BRANCH  29  30
ATOM     30  C   UNL     1       4.643  -4.745   0.954  0.00  0.00    +0.231 C 
ATOM     31  O   UNL     1       3.964  -4.966   1.934  0.00  0.00    -0.274 OA
ATOM     32  N   UNL     1       5.486  -5.689   0.490  0.00  0.00    -0.328 N 
ATOM     33  H   UNL     1       6.029  -5.512  -0.293  0.00  0.00    +0.145 HD
ATOM     34  H   UNL     1       5.549  -6.546   0.941  0.00  0.00    +0.145 HD
ENDBRANCH  29  30
BRANCH  29  35
ATOM     35  C   UNL     1       5.913  -2.728   0.268  0.00  0.00    +0.035 C 
BRANCH  35  39
ATOM     36  C   UNL     1       6.837   0.265  -2.718  0.00  0.00    +0.000 C 
ATOM     37  C   UNL     1       7.105   0.604  -1.250  0.00  0.00    +0.000 C 
ATOM     38  C   UNL     1       7.174  -0.688  -0.433  0.00  0.00    +0.003 C 
ATOM     39  C   UNL     1       5.844  -1.436  -0.549  0.00  0.00    -0.009 C 
ATOM     40  C   UNL     1       5.576  -1.775  -2.017  0.00  0.00    +0.003 C 
ATOM     41  C   UNL     1       5.508  -0.483  -2.834  0.00  0.00    +0.000 C 
ENDBRANCH  35  39
ENDBRANCH  29  35
ENDBRANCH  25  29
ENDBRANCH   1  26
TORSDOF 6
