REMARK  Name = ZINC64985401
REMARK  4 active torsions:
REMARK  status: ('A' for Active; 'I' for Inactive)
REMARK    1  A    between atoms: C_4  and  S_7
REMARK    2  A    between atoms: S_7  and  N_10
REMARK    3  A    between atoms: C_12  and  C_21
REMARK    4  A    between atoms: N_23  and  C_24
REMARK                            x       y       z     vdW  Elec       q    Type
REMARK                         _______ _______ _______ _____ _____    ______ ____
ROOT
ATOM      1  N   UNL     1       3.808  -1.473   2.821  0.00  0.00    -0.195 N 
ATOM      2  C   UNL     1       4.768  -0.542   3.440  0.00  0.00    +0.186 C 
ATOM      3  C   UNL     1       3.964   0.611   4.057  0.00  0.00    +0.278 C 
ATOM      4  O   UNL     1       3.043   0.073   5.009  0.00  0.00    -0.476 OA
ATOM      5  C   UNL     1       2.269  -0.974   4.618  0.00  0.00    +0.144 A 
ATOM      6  C   UNL     1       2.629  -1.758   3.527  0.00  0.00    +0.093 A 
ATOM      7  C   UNL     1       1.828  -2.821   3.140  0.00  0.00    +0.028 A 
ATOM      8  C   UNL     1       0.666  -3.096   3.837  0.00  0.00    +0.002 A 
ATOM      9  C   UNL     1       0.303  -2.313   4.917  0.00  0.00    +0.004 A 
ATOM     10  C   UNL     1       1.104  -1.261   5.313  0.00  0.00    +0.047 A 
ENDROOT
BRANCH   3  11
ATOM     11  C   UNL     1       4.902   1.570   4.744  0.00  0.00    +0.260 C 
ATOM     12  O   UNL     1       4.847   1.715   5.947  0.00  0.00    -0.271 OA
ATOM     13  N   UNL     1       5.803   2.266   4.021  0.00  0.00    -0.278 N 
ATOM     14  H   UNL     1       5.806   2.197   3.054  0.00  0.00    +0.155 HD
BRANCH  13  15
ATOM     15  C   UNL     1       6.734   3.089   4.668  0.00  0.00    +0.105 A 
ATOM     16  C   UNL     1       6.619   4.472   4.583  0.00  0.00    +0.147 A 
ATOM     17  C   UNL     1       7.541   5.281   5.223  0.00  0.00    +0.040 A 
ATOM     18  C   UNL     1       8.575   4.717   5.946  0.00  0.00    +0.006 A 
ATOM     19  C   UNL     1       8.693   3.342   6.033  0.00  0.00    +0.040 A 
ATOM     20  C   UNL     1       7.772   2.526   5.401  0.00  0.00    +0.147 A 
ATOM     21  F   UNL     1       7.885   1.182   5.491  0.00  0.00    -0.203 F 
ATOM     22  F   UNL     1       5.609   5.024   3.876  0.00  0.00    -0.203 F 
ENDBRANCH  13  15
ENDBRANCH   3  11
BRANCH   1  23
ATOM     23  S   UNL     1       4.107  -2.153   1.341  0.00  0.00    +0.075 S 
ATOM     24  O   UNL     1       5.091  -1.343   0.713  0.00  0.00    -0.150 OA
ATOM     25  O   UNL     1       2.841  -2.410   0.749  0.00  0.00    -0.150 OA
BRANCH  23  29
ATOM     26  C   UNL     1       6.031  -6.183   2.082  0.00  0.00    +0.000 A 
ATOM     27  C   UNL     1       4.656  -6.080   1.987  0.00  0.00    +0.002 A 
ATOM     28  C   UNL     1       4.068  -4.850   1.761  0.00  0.00    +0.029 A 
ATOM     29  C   UNL     1       4.856  -3.721   1.630  0.00  0.00    +0.109 A 
ATOM     30  C   UNL     1       6.231  -3.824   1.726  0.00  0.00    +0.029 A 
ATOM     31  C   UNL     1       6.819  -5.054   1.950  0.00  0.00    +0.002 A 
ENDBRANCH  23  29
ENDBRANCH   1  23
TORSDOF 4
