REMARK  Name = ZINC43418805
REMARK  10 active torsions:
REMARK  status: ('A' for Active; 'I' for Inactive)
REMARK    1  A    between atoms: C_1  and  C_2
REMARK    2  A    between atoms: C_2  and  C_3
REMARK    3  A    between atoms: C_2  and  C_4
REMARK    4  A    between atoms: C_4  and  N_5
REMARK    5  A    between atoms: N_5  and  C_6
REMARK    6  A    between atoms: N_5  and  C_12
REMARK    7  A    between atoms: C_6  and  C_7
REMARK    8  A    between atoms: C_7  and  C_8
REMARK    9  A    between atoms: N_9  and  O_10
REMARK   10  A    between atoms: C_12  and  C_13
REMARK                            x       y       z     vdW  Elec       q    Type
REMARK                         _______ _______ _______ _____ _____    ______ ____
ROOT
ATOM      1  N   UNL     1       0.052  -0.033   2.445  0.00  0.00    +0.383 N 
ATOM      2  H   UNL     1      -0.115   0.952   2.300  0.00  0.00    -0.081 HD
ENDROOT
BRANCH   1   3
ATOM      3  C   UNL     1       0.784  -0.580   1.296  0.00  0.00    -0.075 C 
BRANCH   3   5
ATOM      4  C   UNL     1       0.015   1.258  -0.212  0.00  0.00    +0.005 C 
ATOM      5  C   UNL     1       0.026  -0.257   0.007  0.00  0.00    -0.034 C 
ATOM      6  C   UNL     1       0.718  -0.938  -1.176  0.00  0.00    +0.005 C 
ENDBRANCH   3   5
ENDBRANCH   1   3
BRANCH   1   7
ATOM      7  C   UNL     1      -1.233  -0.732   2.585  0.00  0.00    -0.071 C 
BRANCH   7   8
ATOM      8  C   UNL     1      -2.056  -0.069   3.692  0.00  0.00    +0.056 C 
BRANCH   8   9
ATOM      9  C   UNL     1      -3.423  -0.701   3.748  0.00  0.00    +0.130 C 
ATOM     10  N   UNL     1      -3.729  -1.652   2.928  0.00  0.00    -0.077 NA
ATOM     11  N   UNL     1      -4.346  -0.265   4.672  0.00  0.00    -0.344 N 
ATOM     12  H   UNL     1      -4.116   0.448   5.288  0.00  0.00    +0.143 HD
ATOM     13  H   UNL     1      -5.226  -0.672   4.708  0.00  0.00    +0.143 HD
BRANCH  10  14
ATOM     14  O   UNL     1      -5.014  -2.246   2.981  0.00  0.00    -0.408 OA
ATOM     15  H   UNL     1      -5.149  -2.947   2.329  0.00  0.00    +0.328 HD
ENDBRANCH  10  14
ENDBRANCH   8   9
ENDBRANCH   7   8
ENDBRANCH   1   7
BRANCH   1  16
ATOM     16  C   UNL     1       0.846  -0.220   3.667  0.00  0.00    -0.043 C 
BRANCH  16  17
ATOM     17  C   UNL     1       2.110   0.597   3.574  0.00  0.00    -0.063 A 
ATOM     18  C   UNL     1       3.249   0.045   3.018  0.00  0.00    +0.004 A 
ATOM     19  C   UNL     1       4.408   0.792   2.932  0.00  0.00    +0.039 A 
ATOM     20  C   UNL     1       4.429   2.094   3.402  0.00  0.00    +0.137 A 
ATOM     21  C   UNL     1       3.287   2.646   3.959  0.00  0.00    +0.053 A 
ATOM     22  C   UNL     1       2.126   1.898   4.039  0.00  0.00    +0.020 A 
ATOM     23 BR   UNL     1       3.312   4.425   4.601  0.00  0.00    -0.047 Br
ATOM     24  F   UNL     1       5.562   2.825   3.319  0.00  0.00    -0.204 F 
ENDBRANCH  16  17
ENDBRANCH   1  16
TORSDOF 8
