REMARK  Name = ZINC09829627
REMARK  8 active torsions:
REMARK  status: ('A' for Active; 'I' for Inactive)
REMARK    1  A    between atoms: C_5  and  N_7
REMARK    2  A    between atoms: C_12  and  C_14
REMARK    3  A    between atoms: C_12  and  C_31
REMARK    4  A    between atoms: C_12  and  N_63
REMARK    5  A    between atoms: C_14  and  N_15
REMARK    6  A    between atoms: C_16  and  C_18
REMARK    7  A    between atoms: N_20  and  C_21
REMARK    8  A    between atoms: C_21  and  C_22
REMARK                            x       y       z     vdW  Elec       q    Type
REMARK                         _______ _______ _______ _____ _____    ______ ____
ROOT
ATOM      1  C   UNL     1      -1.250   2.205   0.020  0.00  0.00    +0.017 C 
ENDROOT
BRANCH   1   7
ATOM      2  N   UNL     1       0.313   4.781   2.982  0.00  0.00    -0.331 N 
ATOM      3  C   UNL     1      -0.791   3.888   3.359  0.00  0.00    +0.086 C 
ATOM      4  C   UNL     1      -0.880   2.737   2.354  0.00  0.00    -0.059 C 
ATOM      5  C   UNL     1       0.020   4.176   0.627  0.00  0.00    -0.059 C 
ATOM      6  C   UNL     1       0.109   5.327   1.633  0.00  0.00    +0.086 C 
ATOM      7  N   UNL     1      -1.108   3.299   1.006  0.00  0.00    +0.389 N 
ATOM      8  H   UNL     1      -1.972   3.853   1.016  0.00  0.00    -0.081 HD
BRANCH   2  13
ATOM      9  C   UNL     1       0.909   6.518   6.167  0.00  0.00    +0.002 A 
ATOM     10  C   UNL     1       0.782   7.837   5.774  0.00  0.00    +0.003 A 
ATOM     11  C   UNL     1       0.500   8.146   4.456  0.00  0.00    +0.040 A 
ATOM     12  C   UNL     1       0.344   7.135   3.526  0.00  0.00    +0.144 A 
ATOM     13  C   UNL     1       0.471   5.807   3.919  0.00  0.00    +0.065 A 
ATOM     14  C   UNL     1       0.750   5.502   5.244  0.00  0.00    +0.026 A 
ATOM     15  F   UNL     1       0.067   7.437   2.239  0.00  0.00    -0.204 F 
ENDBRANCH   2  13
ENDBRANCH   1   7
BRANCH   1  16
ATOM     16  C   UNL     1      -0.018   1.338   0.013  0.00  0.00    +0.093 A 
ATOM     17  C   UNL     1      -0.002  -0.006   0.061  0.00  0.00    +0.043 A 
ATOM     18  C   UNL     1       1.355  -0.401   0.026  0.00  0.00    +0.041 A 
ATOM     19  C   UNL     1       2.087   0.726  -0.042  0.00  0.00    +0.195 A 
ATOM     20  O   UNL     1       1.250   1.776  -0.049  0.00  0.00    -0.469 OA
ENDBRANCH   1  16
BRANCH   1  21
ATOM     21  C   UNL     1      -1.456   2.811  -1.369  0.00  0.00    +0.097 C 
BRANCH  21  22
ATOM     22  N   UNL     1      -2.583   3.747  -1.332  0.00  0.00    -0.309 N 
ATOM     23  C   UNL     1      -2.950   4.404  -2.450  0.00  0.00    +0.299 C 
ATOM     24  O   UNL     1      -2.348   4.221  -3.488  0.00  0.00    -0.265 OA
ATOM     25  H   UNL     1      -3.064   3.894  -0.503  0.00  0.00    +0.149 HD
BRANCH  23  26
ATOM     26  C   UNL     1      -4.100   5.359  -2.413  0.00  0.00    +0.299 C 
ATOM     27  O   UNL     1      -4.702   5.542  -1.375  0.00  0.00    -0.265 OA
ATOM     28  N   UNL     1      -4.467   6.016  -3.530  0.00  0.00    -0.303 N 
ATOM     29  H   UNL     1      -3.986   5.869  -4.360  0.00  0.00    +0.149 HD
BRANCH  28  30
ATOM     30  C   UNL     1      -5.594   6.951  -3.493  0.00  0.00    +0.140 C 
BRANCH  30  31
ATOM     31  C   UNL     1      -5.796   7.548  -4.862  0.00  0.00    -0.027 A 
ATOM     32  C   UNL     1      -5.144   8.716  -5.209  0.00  0.00    +0.009 A 
ATOM     33  C   UNL     1      -5.322   9.265  -6.465  0.00  0.00    +0.050 A 
ATOM     34  C   UNL     1      -6.166   8.650  -7.377  0.00  0.00    +0.166 A 
ATOM     35  C   UNL     1      -6.827   7.476  -7.026  0.00  0.00    +0.167 A 
ATOM     36  C   UNL     1      -6.639   6.929  -5.767  0.00  0.00    +0.054 A 
ATOM     37  O   UNL     1      -7.590   7.072  -8.083  0.00  0.00    -0.453 OA
ATOM     38  C   UNL     1      -7.706   8.226  -8.936  0.00  0.00    +0.466 C 
ATOM     39  O   UNL     1      -6.513   8.982  -8.654  0.00  0.00    -0.453 OA
ENDBRANCH  30  31
ENDBRANCH  28  30
ENDBRANCH  23  26
ENDBRANCH  21  22
ENDBRANCH   1  21
TORSDOF 8
