REMARK  Name = ZINC63225249
REMARK  2 active torsions:
REMARK  status: ('A' for Active; 'I' for Inactive)
REMARK    1  A    between atoms: N_10  and  C_11
REMARK    2  A    between atoms: C_14  and  O_27
REMARK                            x       y       z     vdW  Elec       q    Type
REMARK                         _______ _______ _______ _____ _____    ______ ____
ROOT
ATOM      1  C   UNL     1       2.087  -4.844  -0.146  0.00  0.00    +0.283 C 
ATOM      2  O   UNL     1       2.455  -6.146  -0.174  0.00  0.00    -0.265 OA
ATOM      3  C   UNL     1       0.748  -4.502  -0.236  0.00  0.00    +0.113 C 
ATOM      4  C   UNL     1      -0.325  -5.577  -0.228  0.00  0.00    +0.187 C 
ATOM      5  C   UNL     1      -1.750  -5.084  -0.331  0.00  0.00    +0.007 A 
ATOM      6  C   UNL     1      -2.834  -5.932  -0.336  0.00  0.00    +0.008 A 
ATOM      7  C   UNL     1      -4.110  -5.398  -0.433  0.00  0.00    +0.001 A 
ATOM      8  C   UNL     1      -4.302  -4.028  -0.524  0.00  0.00    +0.005 A 
ATOM      9  C   UNL     1      -3.212  -3.181  -0.519  0.00  0.00    -0.024 A 
ATOM     10  C   UNL     1      -1.948  -3.720  -0.422  0.00  0.00    +0.046 A 
ATOM     11  N   UNL     1      -0.929  -2.787  -0.425  0.00  0.00    -0.267 N 
ATOM     12  C   UNL     1       0.364  -3.161  -0.330  0.00  0.00    +0.255 C 
ATOM     13  O   UNL     1       1.227  -2.299  -0.332  0.00  0.00    -0.270 OA
ATOM     14  C   UNL     1      -1.532  -1.446  -0.536  0.00  0.00    +0.119 C 
ATOM     15  C   UNL     1      -3.054  -1.682  -0.600  0.00  0.00    +0.056 C 
ENDROOT
BRANCH   1  25
ATOM     16  C   UNL     1       8.374  -6.737  -0.134  0.00  0.00    +0.002 A 
ATOM     17  C   UNL     1       9.068  -5.539  -0.130  0.00  0.00    +0.001 A 
ATOM     18  C   UNL     1       8.359  -4.351  -0.108  0.00  0.00    +0.017 A 
ATOM     19  C   UNL     1       6.985  -4.379  -0.090  0.00  0.00    +0.039 A 
ATOM     20  C   UNL     1       6.254  -5.576  -0.093  0.00  0.00    +0.055 A 
ATOM     21  C   UNL     1       7.001  -6.766  -0.116  0.00  0.00    +0.027 A 
ATOM     22  N   UNL     1       4.877  -5.445  -0.074  0.00  0.00    -0.333 N 
ATOM     23  H   UNL     1       4.316  -6.237  -0.075  0.00  0.00    +0.168 HD
ATOM     24  C   UNL     1       4.304  -4.207  -0.053  0.00  0.00    +0.175 A 
ATOM     25  N   UNL     1       3.016  -3.887  -0.032  0.00  0.00    -0.184 NA
ATOM     26  S   UNL     1       5.725  -3.127  -0.060  0.00  0.00    -0.050 S 
ENDBRANCH   1  25
BRANCH   4  27
ATOM     27  O   UNL     1      -0.200  -6.323   0.985  0.00  0.00    -0.382 OA
ATOM     28  H   UNL     1       0.657  -6.758   1.093  0.00  0.00    +0.211 HD
ENDBRANCH   4  27
TORSDOF 2
