REMARK  Name = ZINC14018105
REMARK  5 active torsions:
REMARK  status: ('A' for Active; 'I' for Inactive)
REMARK    1  A    between atoms: C_5  and  C_7
REMARK    2  A    between atoms: N_9  and  N_10
REMARK    3  A    between atoms: N_10  and  C_11
REMARK    4  A    between atoms: C_11  and  N_13
REMARK    5  A    between atoms: C_14  and  C_16
REMARK                            x       y       z     vdW  Elec       q    Type
REMARK                         _______ _______ _______ _____ _____    ______ ____
ROOT
ATOM      1  C   UNL     1       1.147   1.655   0.000  0.00  0.00    +0.153 C 
ATOM      2  S   UNL     1       1.124   3.367   0.009  0.00  0.00    -0.017 S 
ENDROOT
BRANCH   1   3
ATOM      3  N   UNL     1      -0.011   0.966   0.007  0.00  0.00    -0.263 N 
ATOM      4  C   UNL     1      -1.187   1.624   0.017  0.00  0.00    +0.251 C 
ATOM      5  O   UNL     1      -1.204   2.839   0.023  0.00  0.00    -0.270 OA
ATOM      6  H   UNL     1       0.002  -0.004   0.002  0.00  0.00    +0.157 HD
BRANCH   4   7
ATOM      7  C   UNL     1      -2.456   0.868   0.018  0.00  0.00    +0.055 A 
ATOM      8  C   UNL     1      -2.440  -0.529   0.011  0.00  0.00    +0.016 A 
ATOM      9  C   UNL     1      -3.628  -1.228   0.013  0.00  0.00    +0.021 A 
ATOM     10  C   UNL     1      -4.836  -0.550   0.022  0.00  0.00    +0.042 A 
ATOM     11  C   UNL     1      -4.860   0.834   0.029  0.00  0.00    +0.040 A 
ATOM     12  C   UNL     1      -3.677   1.548   0.034  0.00  0.00    +0.054 A 
ATOM     13 CL   UNL     1      -3.708   3.283   0.051  0.00  0.00    -0.083 Cl
ATOM     14 CL   UNL     1      -6.327  -1.439   0.025  0.00  0.00    -0.083 Cl
ENDBRANCH   4   7
ENDBRANCH   1   3
BRANCH   1  15
ATOM     15  N   UNL     1       2.323   0.998  -0.015  0.00  0.00    -0.245 N 
ATOM     16  H   UNL     1       3.156   1.494  -0.020  0.00  0.00    +0.172 HD
BRANCH  15  19
ATOM     17  C   UNL     1       3.518  -1.061  -0.037  0.00  0.00    +0.261 C 
ATOM     18  O   UNL     1       4.562  -0.439  -0.044  0.00  0.00    -0.269 OA
ATOM     19  N   UNL     1       2.342  -0.403  -0.022  0.00  0.00    -0.231 N 
ATOM     20  H   UNL     1       1.509  -0.900  -0.017  0.00  0.00    +0.173 HD
BRANCH  17  25
ATOM     21  C   UNL     1       2.366  -4.635  -0.043  0.00  0.00    +0.001 A 
ATOM     22  C   UNL     1       3.576  -5.309  -0.059  0.00  0.00    +0.001 A 
ATOM     23  C   UNL     1       4.766  -4.605  -0.068  0.00  0.00    +0.016 A 
ATOM     24  C   UNL     1       4.755  -3.224  -0.061  0.00  0.00    +0.030 A 
ATOM     25  C   UNL     1       3.538  -2.539  -0.045  0.00  0.00    +0.052 A 
ATOM     26  C   UNL     1       2.341  -3.257  -0.032  0.00  0.00    +0.014 A 
ATOM     27 BR   UNL     1       6.384  -2.263  -0.071  0.00  0.00    -0.050 Br
ENDBRANCH  17  25
ENDBRANCH  15  19
ENDBRANCH   1  15
TORSDOF 5
