REMARK  Name = ZINC02660484
REMARK  3 active torsions:
REMARK  status: ('A' for Active; 'I' for Inactive)
REMARK    1  A    between atoms: C_11  and  N_12
REMARK    2  A    between atoms: N_12  and  N_13
REMARK    3  A    between atoms: C_14  and  C_16
REMARK                            x       y       z     vdW  Elec       q    Type
REMARK                         _______ _______ _______ _____ _____    ______ ____
ROOT
ATOM      1  N   UNL     1       4.712  -0.392   0.800  0.00  0.00    -0.264 N 
ATOM      2  H   UNL     1       4.593   0.312   1.456  0.00  0.00    +0.170 HD
ENDROOT
BRANCH   1  13
ATOM      3  C   UNL     1      -0.017   1.380   0.010  0.00  0.00    +0.000 A 
ATOM      4  C   UNL     1       1.167   2.096   0.002  0.00  0.00    +0.001 A 
ATOM      5  C   UNL     1       2.379   1.434  -0.023  0.00  0.00    +0.010 A 
ATOM      6  C   UNL     1       2.401   0.043  -0.035  0.00  0.00    +0.000 A 
ATOM      7  C   UNL     1       1.207  -0.674  -0.010  0.00  0.00    -0.038 A 
ATOM      8  C   UNL     1       0.002  -0.004   0.002  0.00  0.00    +0.004 A 
ATOM      9  C   UNL     1       1.254  -2.178   0.031  0.00  0.00    +0.036 C 
ATOM     10  C   UNL     1       1.597  -2.740  -1.346  0.00  0.00    +0.009 C 
ATOM     11  C   UNL     1       2.733  -1.942  -1.981  0.00  0.00    +0.029 C 
ATOM     12  C   UNL     1       3.835  -1.667  -0.994  0.00  0.00    -0.002 C 
ATOM     13  C   UNL     1       3.680  -0.700  -0.088  0.00  0.00    +0.048 C 
ENDBRANCH   1  13
BRANCH   1  14
ATOM     14  N   UNL     1       5.920  -1.100   0.742  0.00  0.00    -0.232 N 
ATOM     15  C   UNL     1       6.916  -0.803   1.599  0.00  0.00    +0.267 C 
ATOM     16  O   UNL     1       6.767   0.080   2.423  0.00  0.00    -0.268 OA
ATOM     17  H   UNL     1       6.038  -1.804   0.086  0.00  0.00    +0.173 HD
BRANCH  15  18
ATOM     18  C   UNL     1       8.180  -1.544   1.540  0.00  0.00    +0.076 A 
ATOM     19  C   UNL     1       9.312  -1.402   2.321  0.00  0.00    +0.024 A 
ATOM     20  C   UNL     1      10.375  -2.247   2.041  0.00  0.00    -0.036 A 
ATOM     21  C   UNL     1      10.200  -3.136   1.021  0.00  0.00    -0.006 A 
ATOM     22  S   UNL     1       8.656  -2.869   0.445  0.00  0.00    -0.088 S 
ATOM     23  C   UNL     1      11.195  -4.146   0.530  0.00  0.00    +0.043 C 
ATOM     24  C   UNL     1      12.575  -3.781   1.093  0.00  0.00    +0.005 C 
ATOM     25  C   UNL     1      12.440  -3.513   2.595  0.00  0.00    +0.005 C 
ATOM     26  C   UNL     1      11.686  -2.203   2.823  0.00  0.00    +0.036 C 
ENDBRANCH  15  18
ENDBRANCH   1  14
TORSDOF 3
