REMARK  Name = ZINC06045110
REMARK  2 active torsions:
REMARK  status: ('A' for Active; 'I' for Inactive)
REMARK    1  A    between atoms: C_5  and  N_10
REMARK    2  A    between atoms: C_6  and  N_7
REMARK                            x       y       z     vdW  Elec       q    Type
REMARK                         _______ _______ _______ _____ _____    ______ ____
ROOT
ATOM      1  C   UNL     1       1.157   2.261  -0.339  0.00  0.00    +0.049 A 
ATOM      2  C   UNL     1       1.075   3.638  -0.241  0.00  0.00    +0.017 A 
ATOM      3  C   UNL     1      -0.118   4.240   0.115  0.00  0.00    +0.030 A 
ATOM      4  C   UNL     1      -1.233   3.466   0.375  0.00  0.00    +0.037 A 
ATOM      5  C   UNL     1      -1.156   2.083   0.271  0.00  0.00    +0.068 A 
ATOM      6  C   UNL     1       0.046   1.482  -0.081  0.00  0.00    +0.149 A 
ATOM      7  I   UNL     1      -3.041   4.378   0.914  0.00  0.00    -0.042 I 
ATOM      8  I   UNL     1       2.763   4.816  -0.634  0.00  0.00    -0.044 I 
ENDROOT
BRANCH   6   9
ATOM      9  N   UNL     1       0.134   0.008  -0.187  0.00  0.00    +0.058 N 
ATOM     10  O   UNL     1       1.142  -0.570   0.178  0.00  0.00    -0.126 OA
ATOM     11  O   UNL     1      -0.802  -0.627  -0.639  0.00  0.00    -0.126 OA
ENDBRANCH   6   9
BRANCH   5  12
ATOM     12  N   UNL     1      -2.283   1.298   0.527  0.00  0.00    -0.355 N 
ATOM     13  H   UNL     1      -2.199   0.333   0.586  0.00  0.00    +0.142 HD
ATOM     14  H   UNL     1      -3.150   1.717   0.646  0.00  0.00    +0.142 HD
ENDBRANCH   5  12
TORSDOF 2
