REMARK  Name = ZINC32831493
REMARK  6 active torsions:
REMARK  status: ('A' for Active; 'I' for Inactive)
REMARK    1  A    between atoms: C_1  and  C_2
REMARK    2  A    between atoms: N_4  and  C_5
REMARK    3  A    between atoms: C_7  and  N_12
REMARK    4  A    between atoms: C_10  and  O_11
REMARK    5  A    between atoms: N_12  and  S_13
REMARK    6  A    between atoms: S_13  and  C_16
REMARK                            x       y       z     vdW  Elec       q    Type
REMARK                         _______ _______ _______ _____ _____    ______ ____
ROOT
ATOM      1  C   UNL     1      -0.015  -0.700  -1.211  0.00  0.00    +0.077 A 
ATOM      2  C   UNL     1       0.006  -2.087  -1.222  0.00  0.00    +0.051 A 
ATOM      3  C   UNL     1       0.017  -2.788  -0.025  0.00  0.00    +0.050 A 
ATOM      4  C   UNL     1       0.013  -2.103   1.182  0.00  0.00    +0.028 A 
ATOM      5  C   UNL     1      -0.002  -0.721   1.194  0.00  0.00    +0.049 A 
ATOM      6  C   UNL     1      -0.013  -0.016   0.002  0.00  0.00    +0.138 A 
ENDROOT
BRANCH   1  10
ATOM      7  C   UNL     1       0.699   0.350  -4.756  0.00  0.00    +0.109 C 
ATOM      8  C   UNL     1       0.633  -0.463  -3.489  0.00  0.00    +0.214 C 
ATOM      9  O   UNL     1       1.180  -1.544  -3.434  0.00  0.00    -0.276 OA
ATOM     10  N   UNL     1      -0.032   0.011  -2.418  0.00  0.00    -0.283 N 
ATOM     11  H   UNL     1      -0.589   0.957  -2.491  0.00  0.00    +0.155 HD
ENDBRANCH   1  10
BRANCH   6  12
ATOM     12  O   UNL     1      -0.029   1.345   0.016  0.00  0.00    -0.505 OA
ATOM     13  H   UNL     1      -0.028   1.885   0.974  0.00  0.00    +0.292 HD
ENDBRANCH   6  12
BRANCH   3  14
ATOM     14  N   UNL     1       0.033  -4.188  -0.035  0.00  0.00    -0.216 N 
ATOM     15  H   UNL     1       0.710  -4.726  -0.714  0.00  0.00    +0.174 HD
BRANCH  14  16
ATOM     16  S   UNL     1      -0.969  -5.034   0.976  0.00  0.00    +0.075 S 
ATOM     17  O   UNL     1      -0.741  -6.412   0.715  0.00  0.00    -0.150 OA
ATOM     18  O   UNL     1      -0.812  -4.468   2.270  0.00  0.00    -0.150 OA
BRANCH  16  19
ATOM     19  C   UNL     1      -2.624  -4.693   0.475  0.00  0.00    +0.144 A 
ATOM     20  C   UNL     1      -3.415  -5.707  -0.031  0.00  0.00    +0.033 A 
ATOM     21  C   UNL     1      -4.713  -5.441  -0.424  0.00  0.00    +0.022 A 
ATOM     22  C   UNL     1      -5.222  -4.159  -0.311  0.00  0.00    +0.044 A 
ATOM     23  C   UNL     1      -4.431  -3.143   0.195  0.00  0.00    +0.060 A 
ATOM     24  C   UNL     1      -3.133  -3.411   0.594  0.00  0.00    +0.151 A 
ATOM     25  F   UNL     1      -2.362  -2.421   1.094  0.00  0.00    -0.203 F 
ATOM     26 CL   UNL     1      -6.852  -3.825  -0.805  0.00  0.00    -0.083 Cl
ENDBRANCH  16  19
ENDBRANCH  14  16
ENDBRANCH   3  14
TORSDOF 5
