REMARK  Name = ZINC58687634
REMARK  10 active torsions:
REMARK  status: ('A' for Active; 'I' for Inactive)
REMARK    1  A    between atoms: C_1  and  C_2
REMARK    2  A    between atoms: C_7  and  C_8
REMARK    3  A    between atoms: C_8  and  C_10
REMARK    4  A    between atoms: C_8  and  N_28
REMARK    5  A    between atoms: C_10  and  C_11
REMARK    6  A    between atoms: N_13  and  N_14
REMARK    7  A    between atoms: C_15  and  C_17
REMARK    8  A    between atoms: C_17  and  C_19
REMARK    9  A    between atoms: C_17  and  O_20
REMARK   10  A    between atoms: O_20  and  C_21
REMARK                            x       y       z     vdW  Elec       q    Type
REMARK                         _______ _______ _______ _____ _____    ______ ____
ROOT
ATOM      1  C   UNL     1       1.321   1.209   4.384  0.00  0.00    +0.231 C 
ATOM      2  O   UNL     1       0.161   1.295   4.730  0.00  0.00    -0.274 OA
ATOM      3  N   UNL     1       2.298   1.691   5.178  0.00  0.00    -0.234 N 
ATOM      4  H   UNL     1       3.225   1.622   4.901  0.00  0.00    +0.173 HD
ENDROOT
BRANCH   3   5
ATOM      5  N   UNL     1       1.974   2.290   6.402  0.00  0.00    -0.231 N 
ATOM      6  C   UNL     1       2.952   2.771   7.196  0.00  0.00    +0.270 C 
ATOM      7  O   UNL     1       4.111   2.686   6.850  0.00  0.00    -0.270 OA
ATOM      8  H   UNL     1       1.047   2.358   6.679  0.00  0.00    +0.173 HD
BRANCH   6   9
ATOM      9  C   UNL     1       2.604   3.416   8.513  0.00  0.00    +0.257 C 
ATOM     10  C   UNL     1       1.986   2.371   9.444  0.00  0.00    +0.062 C 
BRANCH   9  11
ATOM     11  O   UNL     1       3.788   3.946   9.111  0.00  0.00    -0.480 OA
BRANCH  11  12
ATOM     12  C   UNL     1       3.629   4.960  10.003  0.00  0.00    +0.122 A 
ATOM     13  C   UNL     1       4.735   5.509  10.634  0.00  0.00    +0.048 A 
ATOM     14  C   UNL     1       4.571   6.539  11.540  0.00  0.00    +0.042 A 
ATOM     15  C   UNL     1       3.304   7.023  11.818  0.00  0.00    +0.124 A 
ATOM     16  C   UNL     1       2.199   6.475  11.188  0.00  0.00    +0.042 A 
ATOM     17  C   UNL     1       2.361   5.449  10.277  0.00  0.00    +0.048 A 
ATOM     18  F   UNL     1       3.146   8.030  12.704  0.00  0.00    -0.205 F 
ENDBRANCH  11  12
ENDBRANCH   9  11
ENDBRANCH   6   9
ENDBRANCH   3   5
BRANCH   1  19
ATOM     19  C   UNL     1       1.668   0.565   3.067  0.00  0.00    +0.124 C 
BRANCH  19  20
ATOM     20  C   UNL     1       0.386   0.108   2.368  0.00  0.00    +0.114 C 
BRANCH  20  27
ATOM     21  C   UNL     1      -1.704  -0.257   0.407  0.00  0.00    +0.044 C 
ATOM     22  C   UNL     1      -0.278  -0.599   0.061  0.00  0.00    -0.045 A 
ATOM     23  C   UNL     1       0.032  -1.082  -1.197  0.00  0.00    +0.004 A 
ATOM     24  C   UNL     1       1.340  -1.396  -1.514  0.00  0.00    +0.000 A 
ATOM     25  C   UNL     1       2.339  -1.226  -0.574  0.00  0.00    +0.000 A 
ATOM     26  C   UNL     1       2.030  -0.742   0.683  0.00  0.00    +0.006 A 
ATOM     27  C   UNL     1       0.722  -0.424   0.999  0.00  0.00    -0.024 A 
ENDBRANCH  20  27
BRANCH  20  28
ATOM     28  N   UNL     1      -0.252  -0.947   3.160  0.00  0.00    -0.292 N 
ATOM     29  C   UNL     1       0.363  -2.135   3.319  0.00  0.00    +0.298 C 
ATOM     30  O   UNL     1       1.486  -2.302   2.882  0.00  0.00    -0.253 OA
ATOM     31  N   UNL     1      -0.266  -3.139   3.962  0.00  0.00    -0.313 N 
ATOM     32  H   UNL     1      -1.117  -0.790   3.569  0.00  0.00    +0.151 HD
ATOM     33  H   UNL     1      -1.161  -3.006   4.310  0.00  0.00    +0.146 HD
ATOM     34  H   UNL     1       0.177  -3.994   4.077  0.00  0.00    +0.146 HD
ENDBRANCH  20  28
ENDBRANCH  19  20
ENDBRANCH   1  19
TORSDOF 8
