REMARK  Name = ZINC05697037
REMARK  4 active torsions:
REMARK  status: ('A' for Active; 'I' for Inactive)
REMARK    1  A    between atoms: C_1  and  C_2
REMARK    2  A    between atoms: C_3  and  C_10
REMARK    3  A    between atoms: C_10  and  C_11
REMARK    4  A    between atoms: C_12  and  C_19
REMARK                            x       y       z     vdW  Elec       q    Type
REMARK                         _______ _______ _______ _____ _____    ______ ____
ROOT
ATOM      1  C   UNL     1       4.162  -1.377  -0.662  0.00  0.00    +0.084 C 
ENDROOT
BRANCH   1   4
ATOM      2  C   UNL     1       4.819   1.271   0.365  0.00  0.00    +0.064 C 
ATOM      3  C   UNL     1       3.416   0.734   0.478  0.00  0.00    +0.026 A 
ATOM      4  C   UNL     1       3.107  -0.522  -0.009  0.00  0.00    +0.040 A 
ATOM      5  C   UNL     1       1.796  -0.980   0.117  0.00  0.00    +0.258 A 
ATOM      6  N   UNL     1       0.893  -0.198   0.698  0.00  0.00    -0.275 N 
ATOM      7  C   UNL     1       1.229   0.998   1.152  0.00  0.00    +0.327 A 
ATOM      8  N   UNL     1       2.465   1.460   1.046  0.00  0.00    -0.311 N 
ATOM      9  O   UNL     1       0.285   1.768   1.744  0.00  0.00    -0.247 OA
ATOM     10  O   UNL     1       1.448  -2.205  -0.347  0.00  0.00    -0.267 OA
ATOM     11  H   UNL     1       2.683   2.369   1.400  0.00  0.00    +0.170 HD
ATOM     12  H   UNL     1      -0.050  -0.517   0.793  0.00  0.00    +0.173 HD
ENDBRANCH   1   4
BRANCH   1  13
ATOM     13  C   UNL     1       4.080  -1.222  -2.159  0.00  0.00    +0.040 A 
ATOM     14  C   UNL     1       3.239  -2.024  -2.908  0.00  0.00    +0.026 A 
ATOM     15  N   UNL     1       3.183  -1.854  -4.220  0.00  0.00    -0.311 N 
ATOM     16  C   UNL     1       3.926  -0.938  -4.819  0.00  0.00    +0.327 A 
ATOM     17  N   UNL     1       4.746  -0.155  -4.139  0.00  0.00    -0.275 N 
ATOM     18  C   UNL     1       4.849  -0.266  -2.820  0.00  0.00    +0.258 A 
ATOM     19  O   UNL     1       5.691   0.539  -2.126  0.00  0.00    -0.267 OA
ATOM     20  O   UNL     1       3.844  -0.798  -6.164  0.00  0.00    -0.247 OA
ATOM     21  C   UNL     1       2.387  -3.071  -2.237  0.00  0.00    +0.064 C 
ATOM     22  H   UNL     1       5.294   0.528  -4.622  0.00  0.00    +0.173 HD
ATOM     23  H   UNL     1       2.570  -2.427  -4.765  0.00  0.00    +0.170 HD
ENDBRANCH   1  13
TORSDOF 2
