REMARK  Name = ZINC61088454
REMARK  6 active torsions:
REMARK  status: ('A' for Active; 'I' for Inactive)
REMARK    1  A    between atoms: C_1  and  C_2
REMARK    2  A    between atoms: C_2  and  C_4
REMARK    3  A    between atoms: C_2  and  N_17
REMARK    4  A    between atoms: C_4  and  N_5
REMARK    5  A    between atoms: C_6  and  C_8
REMARK    6  A    between atoms: C_10  and  N_16
REMARK                            x       y       z     vdW  Elec       q    Type
REMARK                         _______ _______ _______ _____ _____    ______ ____
ROOT
ATOM      1  N   UNL     1      -1.518  -1.968  -0.358  0.00  0.00    -0.313 N 
ATOM      2  C   UNL     1      -2.692  -2.595  -0.567  0.00  0.00    +0.245 C 
ATOM      3  O   UNL     1      -3.732  -1.968  -0.528  0.00  0.00    -0.270 OA
ATOM      4  H   UNL     1      -0.688  -2.469  -0.389  0.00  0.00    +0.149 HD
ENDROOT
BRANCH   2   5
ATOM      5  C   UNL     1      -2.715  -4.046  -0.844  0.00  0.00    +0.053 A 
ATOM      6  C   UNL     1      -1.521  -4.770  -0.883  0.00  0.00    +0.039 A 
ATOM      7  C   UNL     1      -1.550  -6.129  -1.143  0.00  0.00    +0.061 A 
ATOM      8  C   UNL     1      -2.766  -6.771  -1.364  0.00  0.00    +0.145 A 
ATOM      9  C   UNL     1      -3.949  -6.054  -1.325  0.00  0.00    +0.056 A 
ATOM     10  C   UNL     1      -3.931  -4.699  -1.061  0.00  0.00    +0.033 A 
ATOM     11 BR   UNL     1      -5.551  -3.725  -1.001  0.00  0.00    -0.049 Br
ATOM     12  F   UNL     1      -2.791  -8.098  -1.617  0.00  0.00    -0.204 F 
BRANCH   7  13
ATOM     13  N   UNL     1      -0.356  -6.859  -1.184  0.00  0.00    -0.356 N 
ATOM     14  H   UNL     1       0.491  -6.412  -1.031  0.00  0.00    +0.142 HD
ATOM     15  H   UNL     1      -0.376  -7.811  -1.366  0.00  0.00    +0.142 HD
ENDBRANCH   7  13
ENDBRANCH   2   5
BRANCH   1  16
ATOM     16  C   UNL     1      -1.495  -0.529  -0.083  0.00  0.00    +0.089 C 
BRANCH  16  18
ATOM     17  C   UNL     1      -0.022   1.475   0.157  0.00  0.00    -0.012 C 
ATOM     18  C   UNL     1      -0.045  -0.045  -0.015  0.00  0.00    -0.054 C 
BRANCH  18  19
ATOM     19  N   UNL     1       0.650  -0.408  -1.257  0.00  0.00    +0.382 N 
ATOM     20  C   UNL     1       2.075  -0.076  -1.134  0.00  0.00    -0.078 C 
ATOM     21  C   UNL     1       2.818  -0.526  -2.393  0.00  0.00    -0.019 C 
ATOM     22  C   UNL     1       2.229   0.191  -3.611  0.00  0.00    -0.004 C 
ATOM     23  C   UNL     1       0.728  -0.103  -3.687  0.00  0.00    -0.019 C 
ATOM     24  C   UNL     1       0.062   0.332  -2.380  0.00  0.00    -0.078 C 
ATOM     25  H   UNL     1       0.551  -1.399  -1.420  0.00  0.00    -0.081 HD
ENDBRANCH  18  19
ENDBRANCH  16  18
ENDBRANCH   1  16
TORSDOF 5
