REMARK  Name = ZINC61803989
REMARK  6 active torsions:
REMARK  status: ('A' for Active; 'I' for Inactive)
REMARK    1  A    between atoms: C_1  and  C_2
REMARK    2  A    between atoms: C_2  and  C_21
REMARK    3  A    between atoms: N_5  and  S_8
REMARK    4  A    between atoms: S_8  and  C_11
REMARK    5  A    between atoms: C_15  and  S_17
REMARK    6  A    between atoms: S_17  and  N_20
REMARK                            x       y       z     vdW  Elec       q    Type
REMARK                         _______ _______ _______ _____ _____    ______ ____
ROOT
ATOM      1  C   UNL     1       5.529   0.154  -0.053  0.00  0.00    +0.107 A 
ATOM      2  C   UNL     1       6.005   0.650  -1.253  0.00  0.00    +0.028 A 
ATOM      3  C   UNL     1       6.990   1.619  -1.258  0.00  0.00    +0.004 A 
ATOM      4  C   UNL     1       7.499   2.095  -0.064  0.00  0.00    +0.028 A 
ATOM      5  C   UNL     1       7.022   1.600   1.136  0.00  0.00    +0.107 A 
ATOM      6  C   UNL     1       6.034   0.633   1.141  0.00  0.00    +0.057 A 
ENDROOT
BRANCH   1   7
ATOM      7  S   UNL     1       4.274  -1.082  -0.047  0.00  0.00    +0.061 S 
ATOM      8  O   UNL     1       4.384  -1.766   1.194  0.00  0.00    -0.153 OA
ATOM      9  O   UNL     1       4.358  -1.753  -1.297  0.00  0.00    -0.153 OA
BRANCH   7  14
ATOM     10  C   UNL     1      -0.019   1.526   0.010  0.00  0.00    +0.011 C 
ATOM     11  C   UNL     1       0.002  -0.004   0.002  0.00  0.00    -0.032 C 
ATOM     12  C   UNL     1       0.717  -0.497  -1.258  0.00  0.00    +0.023 C 
ATOM     13  C   UNL     1       2.143   0.062  -1.284  0.00  0.00    +0.110 C 
ATOM     14  N   UNL     1       2.815  -0.298  -0.028  0.00  0.00    -0.177 NA
ATOM     15  C   UNL     1       2.168   0.049   1.245  0.00  0.00    +0.110 C 
ATOM     16  C   UNL     1       0.742  -0.511   1.242  0.00  0.00    +0.023 C 
ATOM     17  C   UNL     1      -1.433  -0.533   0.014  0.00  0.00    +0.011 C 
ENDBRANCH   7  14
ENDBRANCH   1   7
BRANCH   5  18
ATOM     18  S   UNL     1       7.670   2.205   2.658  0.00  0.00    +0.056 S 
ATOM     19  O   UNL     1       7.445   1.190   3.627  0.00  0.00    -0.153 OA
ATOM     20  O   UNL     1       8.967   2.713   2.374  0.00  0.00    -0.153 OA
BRANCH  18  21
ATOM     21  N   UNL     1       6.742   3.501   3.106  0.00  0.00    -0.204 NA
ATOM     22  H   UNL     1       6.000   3.782   2.547  0.00  0.00    +0.144 HD
ATOM     23  H   UNL     1       6.939   3.979   3.926  0.00  0.00    +0.144 HD
ENDBRANCH  18  21
ENDBRANCH   5  18
TORSDOF 4
