REMARK  Name = ZINC53127757
REMARK  9 active torsions:
REMARK  status: ('A' for Active; 'I' for Inactive)
REMARK    1  A    between atoms: C_1  and  C_2
REMARK    2  A    between atoms: C_7  and  C_9
REMARK    3  A    between atoms: C_7  and  N_11
REMARK    4  A    between atoms: C_9  and  O_10
REMARK    5  A    between atoms: C_12  and  C_14
REMARK    6  A    between atoms: C_14  and  C_16
REMARK    7  A    between atoms: C_14  and  N_19
REMARK    8  A    between atoms: C_16  and  C_17
REMARK    9  A    between atoms: C_16  and  C_18
REMARK                            x       y       z     vdW  Elec       q    Type
REMARK                         _______ _______ _______ _____ _____    ______ ____
ROOT
ATOM      1  N   UNL     1      -0.319  -2.115   1.432  0.00  0.00    -0.309 N 
ATOM      2  C   UNL     1      -1.183  -1.953   2.453  0.00  0.00    +0.199 C 
ATOM      3  O   UNL     1      -0.901  -1.218   3.376  0.00  0.00    -0.278 OA
ATOM      4  H   UNL     1      -0.575  -2.642   0.659  0.00  0.00    +0.149 HD
ENDROOT
BRANCH   1  10
ATOM      5  C   UNL     1      -0.045   2.049   0.405  0.00  0.00    +0.007 C 
ATOM      6  C   UNL     1       0.108   0.529   0.328  0.00  0.00    -0.012 C 
ATOM      7  C   UNL     1       0.899   0.159  -0.929  0.00  0.00    +0.003 C 
ATOM      8  C   UNL     1       1.051  -1.362  -1.006  0.00  0.00    +0.002 C 
ATOM      9  C   UNL     1       1.797  -1.863   0.232  0.00  0.00    +0.028 C 
ATOM     10  C   UNL     1       1.006  -1.493   1.488  0.00  0.00    +0.058 C 
ATOM     11  C   UNL     1       0.854   0.027   1.566  0.00  0.00    +0.031 C 
BRANCH  10  12
ATOM     12  C   UNL     1       1.752  -1.994   2.727  0.00  0.00    +0.181 C 
BRANCH  12  13
ATOM     13  O   UNL     1       1.797  -3.423   2.710  0.00  0.00    -0.393 OA
ATOM     14  H   UNL     1       2.257  -3.811   3.467  0.00  0.00    +0.209 HD
ENDBRANCH  12  13
ENDBRANCH  10  12
ENDBRANCH   1  10
BRANCH   2  15
ATOM     15  C   UNL     1      -2.500  -2.686   2.449  0.00  0.00    +0.015 C 
BRANCH  15  16
ATOM     16  N   UNL     1      -3.487  -1.925   3.227  0.00  0.00    +0.386 N 
ATOM     17  H   UNL     1      -4.368  -2.416   3.224  0.00  0.00    -0.089 HD
ATOM     18  H   UNL     1      -3.161  -1.824   4.177  0.00  0.00    -0.089 HD
ATOM     19  H   UNL     1      -3.608  -1.012   2.814  0.00  0.00    -0.089 HD
ENDBRANCH  15  16
BRANCH  15  20
ATOM     20  C   UNL     1      -2.315  -4.070   3.075  0.00  0.00    -0.023 C 
ATOM     21  C   UNL     1      -3.667  -4.783   3.144  0.00  0.00    +0.006 C 
ATOM     22  C   UNL     1      -1.349  -4.892   2.219  0.00  0.00    +0.006 C 
ENDBRANCH  15  20
ENDBRANCH   2  15
TORSDOF 6
