REMARK  Name = ZINC62552775
REMARK  5 active torsions:
REMARK  status: ('A' for Active; 'I' for Inactive)
REMARK    1  A    between atoms: C_1  and  C_2
REMARK    2  A    between atoms: C_3  and  S_9
REMARK    3  A    between atoms: C_4  and  C_8
REMARK    4  A    between atoms: S_9  and  N_12
REMARK    5  A    between atoms: C_15  and  O_23
REMARK                            x       y       z     vdW  Elec       q    Type
REMARK                         _______ _______ _______ _____ _____    ______ ____
ROOT
ATOM      1  N   UNL     1       1.391   0.009  -2.934  0.00  0.00    -0.202 N 
ATOM      2  C   UNL     1       2.002   1.272  -2.497  0.00  0.00    +0.134 C 
ATOM      3  C   UNL     1       3.352   0.940  -1.847  0.00  0.00    +0.057 C 
ATOM      4  C   UNL     1       4.266   0.316  -2.901  0.00  0.00    +0.148 C 
ATOM      5  C   UNL     1       3.568  -0.821  -3.599  0.00  0.00    +0.004 A 
ATOM      6  C   UNL     1       2.187  -0.936  -3.590  0.00  0.00    +0.057 A 
ATOM      7  C   UNL     1       1.575  -1.999  -4.244  0.00  0.00    +0.025 A 
ATOM      8  C   UNL     1       2.343  -2.944  -4.895  0.00  0.00    +0.002 A 
ATOM      9  C   UNL     1       3.721  -2.832  -4.895  0.00  0.00    +0.000 A 
ATOM     10  C   UNL     1       4.329  -1.771  -4.258  0.00  0.00    +0.008 A 
ENDROOT
BRANCH   1  11
ATOM     11  S   UNL     1      -0.212  -0.293  -2.648  0.00  0.00    +0.078 S 
ATOM     12  O   UNL     1      -0.622   0.615  -1.635  0.00  0.00    -0.150 OA
ATOM     13  O   UNL     1      -0.340  -1.701  -2.506  0.00  0.00    -0.150 OA
BRANCH  11  16
ATOM     14  C   UNL     1      -1.514  -2.215  -4.972  0.00  0.00    +0.067 C 
ATOM     15  C   UNL     1      -1.602  -0.711  -5.021  0.00  0.00    +0.060 A 
ATOM     16  C   UNL     1      -1.094   0.148  -4.108  0.00  0.00    +0.151 A 
ATOM     17  C   UNL     1      -1.393   1.448  -4.527  0.00  0.00    +0.087 A 
ATOM     18  N   UNL     1      -2.057   1.373  -5.652  0.00  0.00    -0.177 NA
ATOM     19  N   UNL     1      -2.197   0.020  -5.987  0.00  0.00    -0.280 N 
ATOM     20  H   UNL     1      -2.644  -0.330  -6.774  0.00  0.00    +0.189 HD
ATOM     21  C   UNL     1      -1.016   2.718  -3.807  0.00  0.00    +0.069 C 
ENDBRANCH  11  16
ENDBRANCH   1  11
BRANCH   4  22
ATOM     22  O   UNL     1       5.448  -0.179  -2.267  0.00  0.00    -0.387 OA
ATOM     23  H   UNL     1       6.077  -0.590  -2.875  0.00  0.00    +0.210 HD
ENDBRANCH   4  22
TORSDOF 3
