REMARK  Name = ZINC58667728
REMARK  8 active torsions:
REMARK  status: ('A' for Active; 'I' for Inactive)
REMARK    1  A    between atoms: C_1  and  C_2
REMARK    2  A    between atoms: C_3  and  C_8
REMARK    3  A    between atoms: C_4  and  C_7
REMARK    4  A    between atoms: C_8  and  C_9
REMARK    5  A    between atoms: N_11  and  C_12
REMARK    6  A    between atoms: C_13  and  C_24
REMARK    7  A    between atoms: C_14  and  C_18
REMARK    8  A    between atoms: C_15  and  C_17
REMARK                            x       y       z     vdW  Elec       q    Type
REMARK                         _______ _______ _______ _____ _____    ______ ____
ROOT
ATOM      1  C   UNL     1       2.948   0.416  -4.757  0.00  0.00    +0.085 A 
ATOM      2  C   UNL     1       3.372   0.843  -6.005  0.00  0.00    +0.073 A 
ATOM      3  C   UNL     1       4.806   0.928  -6.210  0.00  0.00    +0.006 A 
ATOM      4  C   UNL     1       5.570   0.575  -5.143  0.00  0.00    -0.003 A 
ATOM      5  S   UNL     1       4.367   0.150  -3.903  0.00  0.00    -0.077 S 
ATOM      6  C   UNL     1       7.072   0.555  -5.034  0.00  0.00    +0.052 C 
ENDROOT
BRANCH   3   7
ATOM      7  C   UNL     1       5.398   1.369  -7.496  0.00  0.00    -0.016 A 
ATOM      8  C   UNL     1       5.216   0.605  -8.648  0.00  0.00    +0.008 A 
ATOM      9  C   UNL     1       5.769   1.020  -9.842  0.00  0.00    +0.001 A 
ATOM     10  C   UNL     1       6.502   2.192  -9.897  0.00  0.00    +0.000 A 
ATOM     11  C   UNL     1       6.686   2.954  -8.758  0.00  0.00    +0.001 A 
ATOM     12  C   UNL     1       6.133   2.552  -7.559  0.00  0.00    +0.008 A 
ENDBRANCH   3   7
BRANCH   2  13
ATOM     13  C   UNL     1       2.421   1.190  -7.063  0.00  0.00    +0.244 C 
ATOM     14  O   UNL     1       2.014   2.333  -7.166  0.00  0.00    -0.270 OA
ATOM     15  N   UNL     1       1.995   0.244  -7.924  0.00  0.00    -0.325 N 
ATOM     16  H   UNL     1       2.318  -0.667  -7.842  0.00  0.00    +0.145 HD
ATOM     17  H   UNL     1       1.365   0.474  -8.625  0.00  0.00    +0.145 HD
ENDBRANCH   2  13
BRANCH   1  20
ATOM     18  C   UNL     1       1.411  -0.170  -3.054  0.00  0.00    +0.222 C 
ATOM     19  O   UNL     1       2.340  -0.406  -2.311  0.00  0.00    -0.275 OA
ATOM     20  N   UNL     1       1.645   0.252  -4.312  0.00  0.00    -0.279 N 
ATOM     21  H   UNL     1       0.903   0.441  -4.907  0.00  0.00    +0.155 HD
BRANCH  18  22
ATOM     22  C   UNL     1      -0.005  -0.348  -2.571  0.00  0.00    +0.136 C 
BRANCH  22  25
ATOM     23  C   UNL     1      -0.018   1.503   0.010  0.00  0.00    +0.069 C 
ATOM     24  C   UNL     1       0.002  -0.004   0.002  0.00  0.00    +0.084 A 
ATOM     25  C   UNL     1       0.008  -0.824  -1.141  0.00  0.00    +0.026 A 
ATOM     26  C   UNL     1       0.027  -2.108  -0.735  0.00  0.00    +0.138 A 
ATOM     27  O   UNL     1       0.034  -2.119   0.606  0.00  0.00    -0.359 OA
ATOM     28  N   UNL     1       0.023  -0.775   1.052  0.00  0.00    -0.083 NA
ATOM     29  C   UNL     1       0.039  -3.320  -1.631  0.00  0.00    +0.089 C 
ENDBRANCH  22  25
ENDBRANCH  18  22
ENDBRANCH   1  20
TORSDOF 5
