REMARK  Name = ZINC48837530
REMARK  4 active torsions:
REMARK  status: ('A' for Active; 'I' for Inactive)
REMARK    1  A    between atoms: C_1  and  O_2
REMARK    2  A    between atoms: O_2  and  C_3
REMARK    3  A    between atoms: C_6  and  C_20
REMARK    4  A    between atoms: C_16  and  N_19
REMARK                            x       y       z     vdW  Elec       q    Type
REMARK                         _______ _______ _______ _____ _____    ______ ____
ROOT
ATOM      1  C   UNL     1      -1.205  -2.112  -0.611  0.00  0.00    +0.137 C 
ATOM      2  C   UNL     1      -1.224  -0.645  -0.106  0.00  0.00    +0.067 C 
ATOM      3  C   UNL     1      -1.326  -0.808   1.425  0.00  0.00    +0.193 C 
ATOM      4  N   UNL     1      -0.829  -2.151   1.755  0.00  0.00    -0.269 N 
ATOM      5  C   UNL     1      -0.402  -2.817   0.510  0.00  0.00    +0.141 C 
ATOM      6  C   UNL     1      -0.772  -2.686   2.991  0.00  0.00    +0.305 C 
ATOM      7  O   UNL     1      -0.513  -3.866   3.132  0.00  0.00    -0.252 OA
ATOM      8  N   UNL     1      -1.002  -1.913   4.071  0.00  0.00    -0.287 N 
ATOM      9  C   UNL     1      -1.679  -0.616   3.933  0.00  0.00    +0.109 C 
ATOM     10  C   UNL     1      -2.875  -0.580   4.889  0.00  0.00    +0.017 C 
ATOM     11  C   UNL     1      -2.397  -0.891   6.309  0.00  0.00    -0.013 C 
ATOM     12  C   UNL     1      -1.790  -2.296   6.349  0.00  0.00    -0.057 C 
ATOM     13  C   UNL     1      -0.587  -2.354   5.410  0.00  0.00    +0.093 C 
ENDROOT
BRANCH  12  14
ATOM     14  N   UNL     1      -1.361  -2.606   7.719  0.00  0.00    +0.381 N 
ATOM     15  H   UNL     1      -2.157  -2.567   8.338  0.00  0.00    -0.090 HD
ATOM     16  H   UNL     1      -0.961  -3.532   7.744  0.00  0.00    -0.090 HD
ATOM     17  H   UNL     1      -0.670  -1.933   8.016  0.00  0.00    -0.090 HD
ENDBRANCH  12  14
BRANCH   3  18
ATOM     18  C   UNL     1      -0.482   0.237   2.108  0.00  0.00    +0.376 C 
ATOM     19  O   UNL     1      -0.966   1.317   2.400  0.00  0.00    -0.244 OA
ATOM     20  O   UNL     1       0.686   0.002   2.370  0.00  0.00    -0.244 OA
ENDBRANCH   3  18
BRANCH   1  22
ATOM     21  C   UNL     1      -2.677  -3.679  -1.672  0.00  0.00    +0.194 C 
ATOM     22  O   UNL     1      -2.530  -2.640  -0.701  0.00  0.00    -0.378 OA
ENDBRANCH   1  22
TORSDOF 3
