REMARK  Name = ZINC07456038
REMARK  7 active torsions:
REMARK  status: ('A' for Active; 'I' for Inactive)
REMARK    1  A    between atoms: C_4  and  S_8
REMARK    2  A    between atoms: C_5  and  N_7
REMARK    3  A    between atoms: S_8  and  C_9
REMARK    4  A    between atoms: C_9  and  C_10
REMARK    5  A    between atoms: N_12  and  C_13
REMARK    6  A    between atoms: C_15  and  C_25
REMARK    7  A    between atoms: C_18  and  N_19
REMARK                            x       y       z     vdW  Elec       q    Type
REMARK                         _______ _______ _______ _____ _____    ______ ____
ROOT
ATOM      1  C   UNL     1       7.722  -0.575  -0.166  0.00  0.00    +0.055 A 
ATOM      2  C   UNL     1       7.794   0.810  -0.157  0.00  0.00    +0.037 A 
ATOM      3  C   UNL     1       9.022   1.438  -0.252  0.00  0.00    +0.057 A 
ATOM      4  C   UNL     1      10.179   0.690  -0.367  0.00  0.00    +0.014 A 
ATOM      5  C   UNL     1      10.116  -0.691  -0.382  0.00  0.00    +0.025 A 
ATOM      6  C   UNL     1       8.889  -1.330  -0.282  0.00  0.00    +0.051 A 
ENDROOT
BRANCH   6   7
ATOM      7  N   UNL     1       8.822  -2.727  -0.296  0.00  0.00    -0.324 N 
ATOM      8  C   UNL     1       9.513  -3.300   0.868  0.00  0.00    +0.133 C 
ATOM      9  C   UNL     1       9.365  -4.823   0.844  0.00  0.00    +0.178 C 
ATOM     10  O   UNL     1       9.878  -5.328  -0.392  0.00  0.00    -0.377 OA
ATOM     11  C   UNL     1       9.227  -4.792  -1.547  0.00  0.00    +0.178 C 
ATOM     12  C   UNL     1       9.374  -3.268  -1.547  0.00  0.00    +0.133 C 
ENDBRANCH   6   7
BRANCH   1  15
ATOM     13  C   UNL     1       5.443  -0.584   0.523  0.00  0.00    +0.227 C 
ATOM     14  O   UNL     1       5.611   0.493   1.054  0.00  0.00    -0.275 OA
ATOM     15  N   UNL     1       6.479  -1.214  -0.065  0.00  0.00    -0.283 N 
ATOM     16  H   UNL     1       6.364  -2.110  -0.419  0.00  0.00    +0.155 HD
BRANCH  13  17
ATOM     17  C   UNL     1       4.076  -1.218   0.521  0.00  0.00    +0.170 C 
BRANCH  17  18
ATOM     18  S   UNL     1       2.905  -0.134   1.384  0.00  0.00    -0.114 S 
BRANCH  18  22
ATOM     19  C   UNL     1      -1.031  -2.373   1.162  0.00  0.00    +0.002 A 
ATOM     20  C   UNL     1       0.108  -2.915   0.594  0.00  0.00    +0.001 A 
ATOM     21  C   UNL     1       1.309  -2.235   0.661  0.00  0.00    +0.016 A 
ATOM     22  C   UNL     1       1.375  -1.004   1.298  0.00  0.00    +0.029 A 
ATOM     23  C   UNL     1       0.226  -0.457   1.870  0.00  0.00    +0.038 A 
ATOM     24  C   UNL     1      -0.973  -1.150   1.803  0.00  0.00    +0.024 A 
BRANCH  23  25
ATOM     25  N   UNL     1       0.285   0.784   2.514  0.00  0.00    -0.357 N 
ATOM     26  H   UNL     1       1.125   1.266   2.563  0.00  0.00    +0.142 HD
ATOM     27  H   UNL     1      -0.516   1.165   2.908  0.00  0.00    +0.142 HD
ENDBRANCH  23  25
ENDBRANCH  18  22
ENDBRANCH  17  18
ENDBRANCH  13  17
ENDBRANCH   1  15
BRANCH   3  28
ATOM     28  C   UNL     1       9.099   2.943  -0.237  0.00  0.00    +0.417 C 
ATOM     29  F   UNL     1      10.435   3.343  -0.350  0.00  0.00    -0.166 F 
ATOM     30  F   UNL     1       8.365   3.459  -1.310  0.00  0.00    -0.166 F 
ATOM     31  F   UNL     1       8.568   3.425   0.965  0.00  0.00    -0.166 F 
ENDBRANCH   3  28
TORSDOF 7
