REMARK  Name = ZINC50138070
REMARK  10 active torsions:
REMARK  status: ('A' for Active; 'I' for Inactive)
REMARK    1  A    between atoms: C_1  and  C_2
REMARK    2  A    between atoms: C_2  and  C_4
REMARK    3  A    between atoms: C_2  and  N_16
REMARK    4  A    between atoms: C_6  and  C_9
REMARK    5  A    between atoms: N_19  and  C_20
REMARK    6  A    between atoms: C_20  and  C_21
REMARK    7  A    between atoms: C_26  and  C_27
REMARK    8  A    between atoms: C_27  and  N_28
REMARK    9  A    between atoms: N_28  and  C_29
REMARK   10  A    between atoms: N_28  and  C_30
REMARK                            x       y       z     vdW  Elec       q    Type
REMARK                         _______ _______ _______ _____ _____    ______ ____
ROOT
ATOM      1  N   UNL     1       0.711  -0.489   1.189  0.00  0.00    -0.288 N 
ATOM      2  C   UNL     1       0.051  -0.633   2.355  0.00  0.00    +0.300 C 
ATOM      3  O   UNL     1      -1.132  -0.361   2.423  0.00  0.00    -0.253 OA
ATOM      4  N   UNL     1       0.703  -1.080   3.447  0.00  0.00    -0.295 N 
ATOM      5  H   UNL     1       1.654  -0.707   1.135  0.00  0.00    +0.151 HD
ATOM      6  H   UNL     1       1.647  -1.298   3.394  0.00  0.00    +0.151 HD
ENDROOT
BRANCH   1   8
ATOM      7  C   UNL     1      -0.019   1.526   0.010  0.00  0.00    +0.038 C 
ATOM      8  C   UNL     1       0.002  -0.004   0.002  0.00  0.00    +0.160 C 
BRANCH   8   9
ATOM      9  C   UNL     1       0.707  -0.490  -1.238  0.00  0.00    +0.248 A 
ATOM     10  N   UNL     1       0.133  -0.999  -2.290  0.00  0.00    -0.190 NA
ATOM     11  C   UNL     1       1.060  -1.326  -3.208  0.00  0.00    +0.202 A 
ATOM     12  N   UNL     1       2.243  -1.021  -2.735  0.00  0.00    -0.056 NA
ATOM     13  O   UNL     1       2.030  -0.466  -1.446  0.00  0.00    -0.336 OA
BRANCH  11  14
ATOM     14  C   UNL     1       0.788  -1.930  -4.536  0.00  0.00    +0.023 A 
ATOM     15  C   UNL     1      -0.522  -2.202  -4.925  0.00  0.00    +0.014 A 
ATOM     16  C   UNL     1      -0.770  -2.764  -6.160  0.00  0.00    +0.039 A 
ATOM     17  C   UNL     1       0.281  -3.058  -7.014  0.00  0.00    +0.123 A 
ATOM     18  C   UNL     1       1.585  -2.790  -6.631  0.00  0.00    +0.039 A 
ATOM     19  C   UNL     1       1.842  -2.223  -5.400  0.00  0.00    +0.014 A 
ATOM     20  F   UNL     1       0.033  -3.608  -8.222  0.00  0.00    -0.205 F 
ENDBRANCH  11  14
ENDBRANCH   8   9
ENDBRANCH   1   8
BRANCH   4  21
ATOM     21  C   UNL     1      -0.014  -1.237   4.715  0.00  0.00    +0.141 C 
BRANCH  21  22
ATOM     22  C   UNL     1       0.935  -1.746   5.769  0.00  0.00    -0.029 A 
ATOM     23  C   UNL     1       0.948  -3.089   6.097  0.00  0.00    +0.005 A 
ATOM     24  C   UNL     1       1.818  -3.556   7.064  0.00  0.00    +0.000 A 
ATOM     25  C   UNL     1       2.677  -2.681   7.702  0.00  0.00    +0.000 A 
ATOM     26  C   UNL     1       2.665  -1.338   7.374  0.00  0.00    +0.002 A 
ATOM     27  C   UNL     1       1.797  -0.872   6.404  0.00  0.00    -0.059 A 
BRANCH  27  28
ATOM     28  C   UNL     1       1.788   0.591   6.042  0.00  0.00    -0.043 C 
BRANCH  28  29
ATOM     29  N   UNL     1       0.669   1.257   6.723  0.00  0.00    +0.379 N 
ATOM     30  C   UNL     1       0.887   1.217   8.176  0.00  0.00    -0.096 C 
ATOM     31  C   UNL     1       0.587   2.655   6.279  0.00  0.00    -0.096 C 
ATOM     32  H   UNL     1      -0.192   0.781   6.499  0.00  0.00    -0.082 HD
ENDBRANCH  28  29
ENDBRANCH  27  28
ENDBRANCH  21  22
ENDBRANCH   4  21
TORSDOF 7
