REMARK  Name = ZINC19736494
REMARK  8 active torsions:
REMARK  status: ('A' for Active; 'I' for Inactive)
REMARK    1  A    between atoms: C_1  and  C_2
REMARK    2  A    between atoms: C_5  and  C_23
REMARK    3  A    between atoms: C_6  and  O_8
REMARK    4  A    between atoms: O_8  and  C_9
REMARK    5  A    between atoms: C_9  and  C_11
REMARK    6  A    between atoms: C_9  and  C_12
REMARK    7  A    between atoms: N_14  and  C_15
REMARK    8  A    between atoms: C_19  and  N_21
REMARK                            x       y       z     vdW  Elec       q    Type
REMARK                         _______ _______ _______ _____ _____    ______ ____
ROOT
ATOM      1  C   UNL     1      -5.977   3.182   1.058  0.00  0.00    +0.258 C 
ATOM      2  O   UNL     1      -6.296   3.852   2.018  0.00  0.00    -0.271 OA
ATOM      3  N   UNL     1      -6.631   3.326  -0.111  0.00  0.00    -0.282 N 
ATOM      4  H   UNL     1      -6.399   2.662  -0.957  0.00  0.00    +0.155 HD
ENDROOT
BRANCH   3   5
ATOM      5  C   UNL     1      -7.606   4.321  -0.250  0.00  0.00    +0.035 A 
ATOM      6  C   UNL     1      -8.708   4.105  -1.067  0.00  0.00    +0.025 A 
ATOM      7  C   UNL     1      -9.674   5.084  -1.201  0.00  0.00    +0.023 A 
ATOM      8  C   UNL     1      -9.540   6.286  -0.532  0.00  0.00    +0.062 A 
ATOM      9  C   UNL     1      -8.437   6.511   0.283  0.00  0.00    +0.045 A 
ATOM     10  C   UNL     1      -7.469   5.526   0.423  0.00  0.00    +0.047 A 
ATOM     11 CL   UNL     1     -10.752   7.517  -0.709  0.00  0.00    -0.082 Cl
BRANCH   9  12
ATOM     12  N   UNL     1      -8.302   7.725   0.960  0.00  0.00    -0.357 N 
ATOM     13  H   UNL     1      -7.429   7.902   1.605  0.00  0.00    +0.142 HD
ATOM     14  H   UNL     1      -9.070   8.505   0.849  0.00  0.00    +0.142 HD
ENDBRANCH   9  12
ENDBRANCH   3   5
BRANCH   1  15
ATOM     15  C   UNL     1      -4.850   2.188   1.174  0.00  0.00    +0.256 C 
ATOM     16  C   UNL     1      -5.375   0.784   0.869  0.00  0.00    +0.062 C 
BRANCH  15  17
ATOM     17  O   UNL     1      -4.321   2.221   2.501  0.00  0.00    -0.480 OA
BRANCH  17  23
ATOM     18  C   UNL     1      -0.258   0.309   0.588  0.00  0.00    +0.044 C 
ATOM     19  C   UNL     1      -1.021   0.884   1.753  0.00  0.00    -0.047 A 
ATOM     20  C   UNL     1      -0.409   1.005   2.987  0.00  0.00    +0.004 A 
ATOM     21  C   UNL     1      -1.106   1.533   4.058  0.00  0.00    +0.007 A 
ATOM     22  C   UNL     1      -2.416   1.941   3.898  0.00  0.00    -0.009 A 
ATOM     23  C   UNL     1      -3.032   1.821   2.661  0.00  0.00    +0.125 A 
ATOM     24  C   UNL     1      -2.329   1.295   1.587  0.00  0.00    +0.049 A 
ATOM     25  C   UNL     1      -3.175   2.517   5.066  0.00  0.00    +0.047 C 
ENDBRANCH  17  23
ENDBRANCH  15  17
ENDBRANCH   1  15
TORSDOF 5
