REMARK  Name = ZINC39188314
REMARK  5 active torsions:
REMARK  status: ('A' for Active; 'I' for Inactive)
REMARK    1  A    between atoms: C_3  and  N_18
REMARK    2  A    between atoms: C_6  and  C_7
REMARK    3  A    between atoms: C_19  and  C_20
REMARK    4  A    between atoms: C_22  and  N_30
REMARK    5  A    between atoms: C_24  and  N_27
REMARK                            x       y       z     vdW  Elec       q    Type
REMARK                         _______ _______ _______ _____ _____    ______ ____
ROOT
ATOM      1  C   UNL     1      -0.017   1.379   0.010  0.00  0.00    +0.009 A 
ATOM      2  C   UNL     1       1.166   2.089   0.002  0.00  0.00    +0.028 A 
ATOM      3  C   UNL     1       2.385   1.407  -0.013  0.00  0.00    +0.064 A 
ATOM      4  C   UNL     1       2.397   0.010  -0.021  0.00  0.00    +0.028 A 
ATOM      5  C   UNL     1       1.206  -0.686  -0.013  0.00  0.00    +0.009 A 
ATOM      6  C   UNL     1       0.002  -0.004   0.002  0.00  0.00    -0.006 A 
ENDROOT
BRANCH   6   7
ATOM      7  C   UNL     1      -1.295  -0.772   0.011  0.00  0.00    +0.218 C 
ATOM      8  N   UNL     1      -1.132  -2.044  -0.703  0.00  0.00    -0.360 N 
ATOM      9  C   UNL     1      -1.960  -2.039  -1.708  0.00  0.00    +0.060 C 
ATOM     10  C   UNL     1      -2.240  -3.030  -2.760  0.00  0.00    +0.029 C 
ATOM     11  C   UNL     1      -3.170  -2.753  -3.694  0.00  0.00    +0.027 C 
ATOM     12  C   UNL     1      -3.904  -1.491  -3.682  0.00  0.00    +0.035 C 
ATOM     13  C   UNL     1      -3.683  -0.545  -2.735  0.00  0.00    +0.052 C 
ATOM     14  C   UNL     1      -2.720  -0.760  -1.716  0.00  0.00    +0.075 C 
ATOM     15  N   UNL     1      -2.330  -0.020  -0.709  0.00  0.00    -0.220 NA
ATOM     16  N   UNL     1      -4.851  -1.253  -4.666  0.00  0.00    -0.398 N 
ATOM     17  H   UNL     1      -5.019  -1.920  -5.349  0.00  0.00    +0.156 HD
ATOM     18  H   UNL     1      -5.346  -0.418  -4.670  0.00  0.00    +0.156 HD
ATOM     19  H   UNL     1      -0.519  -2.758  -0.469  0.00  0.00    +0.162 HD
ENDBRANCH   6   7
BRANCH   3  20
ATOM     20  N   UNL     1       3.563   2.104  -0.021  0.00  0.00    -0.255 NA
ATOM     21  C   UNL     1       4.538   1.745   0.766  0.00  0.00    +0.123 C 
BRANCH  21  22
ATOM     22  C   UNL     1       5.803   2.494   0.758  0.00  0.00    +0.044 A 
ATOM     23  C   UNL     1       6.855   2.109   1.596  0.00  0.00    +0.046 A 
ATOM     24  C   UNL     1       8.037   2.816   1.583  0.00  0.00    +0.129 A 
ATOM     25  C   UNL     1       8.191   3.906   0.742  0.00  0.00    +0.069 A 
ATOM     26  C   UNL     1       7.161   4.298  -0.091  0.00  0.00    +0.175 A 
ATOM     27  C   UNL     1       5.966   3.596  -0.096  0.00  0.00    +0.218 A 
ATOM     28  O   UNL     1       4.956   3.975  -0.919  0.00  0.00    -0.285 OA
BRANCH  26  29
ATOM     29  N   UNL     1       7.336   5.465  -0.984  0.00  0.00    +0.060 N 
ATOM     30  O   UNL     1       8.380   6.075  -0.984  0.00  0.00    -0.126 OA
ATOM     31  O   UNL     1       6.435   5.809  -1.713  0.00  0.00    -0.126 OA
ENDBRANCH  26  29
BRANCH  24  32
ATOM     32  N   UNL     1       9.149   2.408   2.471  0.00  0.00    +0.057 N 
ATOM     33  O   UNL     1       9.018   1.457   3.206  0.00  0.00    -0.126 OA
ATOM     34  O   UNL     1      10.188   3.026   2.461  0.00  0.00    -0.126 OA
ENDBRANCH  24  32
ENDBRANCH  21  22
ENDBRANCH   3  20
TORSDOF 5
