REMARK  Name = ZINC53008424
REMARK  6 active torsions:
REMARK  status: ('A' for Active; 'I' for Inactive)
REMARK    1  A    between atoms: C_1  and  C_2
REMARK    2  A    between atoms: C_5  and  N_20
REMARK    3  A    between atoms: C_6  and  C_8
REMARK    4  A    between atoms: C_12  and  C_19
REMARK    5  A    between atoms: C_16  and  C_18
REMARK    6  A    between atoms: N_20  and  N_21
REMARK                            x       y       z     vdW  Elec       q    Type
REMARK                         _______ _______ _______ _____ _____    ______ ____
ROOT
ATOM      1  C   UNL     1       1.700   0.976  -0.259  0.00  0.00    +0.044 C 
ATOM      2  C   UNL     1       0.842  -0.256  -0.127  0.00  0.00    -0.050 A 
ATOM      3  C   UNL     1      -0.089  -0.556  -1.109  0.00  0.00    +0.005 A 
ATOM      4  C   UNL     1      -0.881  -1.680  -1.001  0.00  0.00    +0.025 A 
ATOM      5  C   UNL     1      -0.749  -2.521   0.097  0.00  0.00    +0.053 A 
ATOM      6  C   UNL     1       0.193  -2.220   1.093  0.00  0.00    +0.059 A 
ATOM      7  C   UNL     1       0.991  -1.081   0.966  0.00  0.00    +0.018 A 
ENDROOT
BRANCH   6   8
ATOM      8  C   UNL     1       0.342  -3.104   2.264  0.00  0.00    +0.249 C 
ATOM      9  O   UNL     1       0.397  -4.310   2.112  0.00  0.00    -0.270 OA
ATOM     10  N   UNL     1       0.419  -2.576   3.502  0.00  0.00    -0.290 N 
ATOM     11  C   UNL     1       0.224  -1.135   3.723  0.00  0.00    +0.139 C 
ATOM     12  C   UNL     1      -0.807  -0.952   4.843  0.00  0.00    +0.133 C 
ATOM     13  O   UNL     1      -0.408  -1.722   5.980  0.00  0.00    -0.373 OA
ATOM     14  C   UNL     1      -0.356  -3.131   5.744  0.00  0.00    +0.182 C 
ATOM     15  C   UNL     1       0.692  -3.425   4.672  0.00  0.00    +0.099 C 
ATOM     16  C   UNL     1       2.086  -3.114   5.220  0.00  0.00    +0.030 C 
ATOM     17  C   UNL     1      -0.887   0.526   5.228  0.00  0.00    +0.039 C 
ENDBRANCH   6   8
BRANCH   5  18
ATOM     18  N   UNL     1      -1.546  -3.653   0.209  0.00  0.00    -0.282 N 
ATOM     19  H   UNL     1      -1.506  -4.197   1.011  0.00  0.00    +0.166 HD
BRANCH  18  20
ATOM     20  N   UNL     1      -2.387  -4.000  -0.810  0.00  0.00    -0.256 NA
ATOM     21  H   UNL     1      -2.899  -4.840  -0.587  0.00  0.00    +0.140 HD
ATOM     22  H   UNL     1      -3.015  -3.242  -1.034  0.00  0.00    +0.140 HD
ENDBRANCH  18  20
ENDBRANCH   5  18
TORSDOF 3
