REMARK  Name = ZINC31163681
REMARK  6 active torsions:
REMARK  status: ('A' for Active; 'I' for Inactive)
REMARK    1  A    between atoms: C_1  and  C_2
REMARK    2  A    between atoms: C_4  and  O_20
REMARK    3  A    between atoms: C_8  and  O_16
REMARK    4  A    between atoms: C_9  and  O_14
REMARK    5  A    between atoms: C_10  and  O_13
REMARK    6  A    between atoms: O_14  and  C_15
REMARK                            x       y       z     vdW  Elec       q    Type
REMARK                         _______ _______ _______ _____ _____    ______ ____
ROOT
ATOM      1  C   UNL     1       2.035   0.031   1.988  0.00  0.00    +0.055 C 
ATOM      2  C   UNL     1       2.320   0.009   0.485  0.00  0.00    +0.207 C 
ATOM      3  C   UNL     1       2.505   1.440  -0.021  0.00  0.00    +0.187 C 
ATOM      4  C   UNL     1       1.191   2.176   0.002  0.00  0.00    +0.024 A 
ATOM      5  C   UNL     1      -0.018   1.471   0.010  0.00  0.00    +0.111 A 
ATOM      6  C   UNL     1      -1.236   2.162   0.031  0.00  0.00    +0.177 A 
ATOM      7  C   UNL     1      -1.236   3.551   0.036  0.00  0.00    +0.205 A 
ATOM      8  C   UNL     1      -0.032   4.243   0.031  0.00  0.00    +0.181 A 
ATOM      9  C   UNL     1       1.177   3.554   0.014  0.00  0.00    +0.093 A 
ATOM     10 CL   UNL     1       2.674   4.433   0.009  0.00  0.00    -0.079 Cl
ATOM     11  C   UNL     1       0.002  -0.004   0.002  0.00  0.00    +0.344 C 
ATOM     12  O   UNL     1      -1.010  -0.652   0.182  0.00  0.00    -0.245 OA
ATOM     13  O   UNL     1       1.200  -0.607  -0.214  0.00  0.00    -0.455 OA
ENDROOT
BRANCH   8  14
ATOM     14  O   UNL     1      -0.034   5.602   0.043  0.00  0.00    -0.502 OA
ATOM     15  H   UNL     1       0.918   6.153   0.039  0.00  0.00    +0.292 HD
ENDBRANCH   8  14
BRANCH   7  16
ATOM     16  O   UNL     1      -2.415   4.232   0.051  0.00  0.00    -0.488 OA
ATOM     17  C   UNL     1      -2.987   4.566  -1.215  0.00  0.00    +0.277 C 
ENDBRANCH   7  16
BRANCH   6  18
ATOM     18  O   UNL     1      -2.409   1.478   0.041  0.00  0.00    -0.503 OA
ATOM     19  H   UNL     1      -3.364   2.024   0.058  0.00  0.00    +0.292 HD
ENDBRANCH   6  18
BRANCH   3  20
ATOM     20  O   UNL     1       3.002   1.409  -1.360  0.00  0.00    -0.383 OA
ATOM     21  H   UNL     1       3.200   2.349  -1.896  0.00  0.00    +0.210 HD
ENDBRANCH   3  20
TORSDOF 4
