REMARK  Name = ZINC39943731
REMARK  6 active torsions:
REMARK  status: ('A' for Active; 'I' for Inactive)
REMARK    1  A    between atoms: C_4  and  C_8
REMARK    2  A    between atoms: C_5  and  O_7
REMARK    3  A    between atoms: N_9  and  N_10
REMARK    4  A    between atoms: N_13  and  N_14
REMARK    5  A    between atoms: C_15  and  C_16
REMARK    6  A    between atoms: C_17  and  O_23
REMARK                            x       y       z     vdW  Elec       q    Type
REMARK                         _______ _______ _______ _____ _____    ______ ____
ROOT
ATOM      1  N   UNL     1       4.953  -2.650  -0.062  0.00  0.00    -0.247 N 
ATOM      2  C   UNL     1       4.979  -4.026  -0.069  0.00  0.00    +0.210 C 
ATOM      3  N   UNL     1       3.862  -4.699  -0.061  0.00  0.00    -0.369 N 
ATOM      4  N   UNL     1       6.184  -4.691  -0.085  0.00  0.00    -0.247 N 
ATOM      5  H   UNL     1       5.784  -2.148  -0.068  0.00  0.00    +0.192 HD
ATOM      6  H   UNL     1       3.881  -5.669  -0.067  0.00  0.00    +0.159 HD
ATOM      7  H   UNL     1       7.015  -4.190  -0.091  0.00  0.00    +0.192 HD
ATOM      8  H   UNL     1       3.013  -4.231  -0.050  0.00  0.00    +0.159 HD
ENDROOT
BRANCH   1  10
ATOM      9  C   UNL     1       3.702  -0.675  -0.038  0.00  0.00    +0.144 C 
ATOM     10  N   UNL     1       3.727  -1.972  -0.045  0.00  0.00    -0.179 NA
BRANCH   9  14
ATOM     11  C   UNL     1      -0.017   1.378   0.010  0.00  0.00    +0.023 A 
ATOM     12  C   UNL     1       1.169   2.095   0.002  0.00  0.00    +0.042 A 
ATOM     13  C   UNL     1       2.381   1.434  -0.013  0.00  0.00    +0.033 A 
ATOM     14  C   UNL     1       2.412   0.038  -0.021  0.00  0.00    +0.038 A 
ATOM     15  C   UNL     1       1.209  -0.682  -0.013  0.00  0.00    +0.126 A 
ATOM     16  C   UNL     1       0.002  -0.004   0.002  0.00  0.00    +0.047 A 
ATOM     17 CL   UNL     1       1.131   3.830   0.012  0.00  0.00    -0.084 Cl
BRANCH  15  18
ATOM     18  O   UNL     1       1.228  -2.041  -0.021  0.00  0.00    -0.506 OA
ATOM     19  H   UNL     1       1.242  -2.439   0.860  0.00  0.00    +0.292 HD
ENDBRANCH  15  18
ENDBRANCH   9  14
ENDBRANCH   1  10
BRANCH   4  20
ATOM     20  N   UNL     1       6.211  -6.092  -0.093  0.00  0.00    -0.179 NA
ATOM     21  C   UNL     1       7.347  -6.719  -0.108  0.00  0.00    +0.144 C 
BRANCH  21  22
ATOM     22  C   UNL     1       7.375  -8.193  -0.116  0.00  0.00    +0.038 A 
ATOM     23  C   UNL     1       6.178  -8.920  -0.113  0.00  0.00    +0.126 A 
ATOM     24  C   UNL     1       6.214 -10.305  -0.121  0.00  0.00    +0.047 A 
ATOM     25  C   UNL     1       7.428 -10.966  -0.131  0.00  0.00    +0.023 A 
ATOM     26  C   UNL     1       8.615 -10.252  -0.133  0.00  0.00    +0.042 A 
ATOM     27  C   UNL     1       8.596  -8.872  -0.132  0.00  0.00    +0.033 A 
ATOM     28 CL   UNL     1      10.132 -11.095  -0.145  0.00  0.00    -0.084 Cl
BRANCH  23  29
ATOM     29  O   UNL     1       4.985  -8.270  -0.103  0.00  0.00    -0.506 OA
ATOM     30  H   UNL     1       4.635  -8.077  -0.983  0.00  0.00    +0.292 HD
ENDBRANCH  23  29
ENDBRANCH  21  22
ENDBRANCH   4  20
TORSDOF 6
