REMARK  Name = ZINC00301889
REMARK  5 active torsions:
REMARK  status: ('A' for Active; 'I' for Inactive)
REMARK    1  A    between atoms: C_1  and  C_2
REMARK    2  A    between atoms: C_5  and  C_7
REMARK    3  A    between atoms: C_5  and  O_13
REMARK    4  A    between atoms: C_14  and  C_16
REMARK    5  A    between atoms: C_21  and  N_22
REMARK                            x       y       z     vdW  Elec       q    Type
REMARK                         _______ _______ _______ _____ _____    ______ ____
ROOT
ATOM      1  C   UNL     1       2.029   4.840   1.885  0.00  0.00    +0.062 C 
ATOM      2  C   UNL     1       1.854   3.440   1.355  0.00  0.00    +0.039 C 
ATOM      3  N   UNL     1       2.289   2.387   1.917  0.00  0.00    -0.183 NA
ATOM      4  N   UNL     1       2.004   1.204   1.232  0.00  0.00    -0.153 N 
ATOM      5  C   UNL     1       1.250   1.540   0.012  0.00  0.00    +0.187 C 
ATOM      6  C   UNL     1       1.136   3.077   0.075  0.00  0.00    +0.114 C 
ATOM      7  C   UNL     1       2.356  -0.038   1.619  0.00  0.00    +0.270 C 
ATOM      8  O   UNL     1       1.978  -1.004   0.985  0.00  0.00    -0.268 OA
ENDROOT
BRANCH   5   9
ATOM      9  C   UNL     1       2.010   1.113  -1.217  0.00  0.00    +0.004 A 
ATOM     10  C   UNL     1       1.340   0.915  -2.410  0.00  0.00    +0.008 A 
ATOM     11  C   UNL     1       2.038   0.528  -3.539  0.00  0.00    +0.000 A 
ATOM     12  C   UNL     1       3.404   0.329  -3.473  0.00  0.00    +0.000 A 
ATOM     13  C   UNL     1       4.073   0.522  -2.278  0.00  0.00    +0.000 A 
ATOM     14  C   UNL     1       3.376   0.914  -1.151  0.00  0.00    +0.008 A 
ENDBRANCH   5   9
BRANCH   7  15
ATOM     15  C   UNL     1       3.201  -0.225   2.813  0.00  0.00    +0.059 A 
ATOM     16  C   UNL     1       3.063   0.626   3.913  0.00  0.00    +0.015 A 
ATOM     17  C   UNL     1       3.851   0.443   5.027  0.00  0.00    +0.001 A 
ATOM     18  C   UNL     1       4.790  -0.577   5.061  0.00  0.00    +0.002 A 
ATOM     19  C   UNL     1       4.942  -1.422   3.981  0.00  0.00    +0.023 A 
ATOM     20  C   UNL     1       4.152  -1.256   2.850  0.00  0.00    +0.037 A 
BRANCH  20  21
ATOM     21  N   UNL     1       4.304  -2.106   1.762  0.00  0.00    -0.357 N 
ATOM     22  H   UNL     1       3.808  -1.941   0.945  0.00  0.00    +0.142 HD
ATOM     23  H   UNL     1       4.905  -2.865   1.820  0.00  0.00    +0.142 HD
ENDBRANCH  20  21
ENDBRANCH   7  15
BRANCH   5  24
ATOM     24  O   UNL     1      -0.045   0.937   0.037  0.00  0.00    -0.366 OA
ATOM     25  H   UNL     1      -0.029  -0.030   0.035  0.00  0.00    +0.212 HD
ENDBRANCH   5  24
TORSDOF 4
