REMARK  Name = ZINC38740797
REMARK  6 active torsions:
REMARK  status: ('A' for Active; 'I' for Inactive)
REMARK    1  A    between atoms: C_1  and  C_2
REMARK    2  A    between atoms: C_9  and  C_10
REMARK    3  A    between atoms: C_9  and  C_11
REMARK    4  A    between atoms: C_13  and  N_15
REMARK    5  A    between atoms: C_16  and  C_18
REMARK    6  A    between atoms: C_24  and  C_26
REMARK                            x       y       z     vdW  Elec       q    Type
REMARK                         _______ _______ _______ _____ _____    ______ ____
ROOT
ATOM      1  C   UNL     1      -0.741  -1.147   4.112  0.00  0.00    +0.091 C 
ATOM      2  C   UNL     1      -1.914  -0.181   3.935  0.00  0.00    +0.040 C 
ATOM      3  C   UNL     1      -1.478   1.222   4.238  0.00  0.00    -0.030 C 
ATOM      4  C   UNL     1      -0.401   1.522   4.891  0.00  0.00    -0.030 C 
ATOM      5  C   UNL     1       0.568   0.509   5.426  0.00  0.00    +0.040 C 
ATOM      6  C   UNL     1      -0.086  -0.878   5.473  0.00  0.00    +0.091 C 
ENDROOT
BRANCH   6   7
ATOM      7  C   UNL     1       0.958  -1.929   5.750  0.00  0.00    +0.220 C 
ATOM      8  O   UNL     1       2.122  -1.711   5.490  0.00  0.00    -0.275 OA
ATOM      9  N   UNL     1       0.597  -3.112   6.287  0.00  0.00    -0.298 N 
ATOM     10  C   UNL     1      -0.794  -3.356   6.692  0.00  0.00    +0.126 C 
ATOM     11  C   UNL     1      -1.295  -4.622   5.985  0.00  0.00    +0.125 C 
ATOM     12  N   UNL     1      -0.304  -5.690   6.175  0.00  0.00    -0.314 N 
ATOM     13  C   UNL     1       1.087  -5.446   5.770  0.00  0.00    +0.125 C 
ATOM     14  C   UNL     1       1.587  -4.182   6.472  0.00  0.00    +0.126 C 
ATOM     15  C   UNL     1      -0.676  -6.910   6.729  0.00  0.00    +0.099 A 
ATOM     16  C   UNL     1      -2.020  -7.174   6.975  0.00  0.00    +0.042 A 
ATOM     17  C   UNL     1      -2.375  -8.391   7.527  0.00  0.00    +0.005 A 
ATOM     18  C   UNL     1      -1.372  -9.307   7.814  0.00  0.00    +0.018 A 
ATOM     19  C   UNL     1      -0.059  -8.979   7.544  0.00  0.00    +0.084 A 
ATOM     20  N   UNL     1       0.251  -7.811   7.013  0.00  0.00    -0.350 N 
ATOM     21  H   UNL     1       1.181  -7.607   6.829  0.00  0.00    +0.166 HD
ENDBRANCH   6   7
BRANCH   1  23
ATOM     22  N   UNL     1       0.975  -1.968   2.530  0.00  0.00    -0.312 N 
ATOM     23  C   UNL     1       0.267  -0.928   3.013  0.00  0.00    +0.217 C 
ATOM     24  O   UNL     1       0.441   0.185   2.563  0.00  0.00    -0.275 OA
ATOM     25  H   UNL     1       0.836  -2.858   2.890  0.00  0.00    +0.149 HD
BRANCH  22  35
ATOM     26  C   UNL     1       1.176  -3.131  -0.494  0.00  0.00    +0.009 C 
ATOM     27  C   UNL     1       2.145  -3.058   0.689  0.00  0.00    +0.010 C 
ATOM     28  C   UNL     1       3.586  -3.260   0.224  0.00  0.00    -0.000 C 
ATOM     29  C   UNL     1       4.514  -3.359   1.461  0.00  0.00    +0.008 C 
ATOM     30  C   UNL     1       4.503  -1.817   1.399  0.00  0.00    -0.003 C 
ATOM     31  C   UNL     1       4.363  -1.988  -0.120  0.00  0.00    -0.029 C 
ATOM     32  C   UNL     1       5.708  -2.268  -0.819  0.00  0.00    +0.011 C 
ATOM     33  C   UNL     1       3.599  -0.878  -0.836  0.00  0.00    +0.011 C 
ATOM     34  C   UNL     1       3.258  -1.242   2.074  0.00  0.00    +0.026 C 
ATOM     35  C   UNL     1       1.962  -1.753   1.454  0.00  0.00    +0.076 C 
ENDBRANCH  22  35
ENDBRANCH   1  23
TORSDOF 3
