REMARK  Name = ZINC63699704
REMARK  6 active torsions:
REMARK  status: ('A' for Active; 'I' for Inactive)
REMARK    1  A    between atoms: C_6  and  C_10
REMARK    2  A    between atoms: N_13  and  S_16
REMARK    3  A    between atoms: S_16  and  C_19
REMARK    4  A    between atoms: C_22  and  N_25
REMARK    5  A    between atoms: C_26  and  C_28
REMARK    6  A    between atoms: C_28  and  C_29
REMARK                            x       y       z     vdW  Elec       q    Type
REMARK                         _______ _______ _______ _____ _____    ______ ____
ROOT
ATOM      1  S   UNL     1       5.818  -6.172  -2.902  0.00  0.00    +0.061 S 
ATOM      2  O   UNL     1       7.117  -5.851  -2.425  0.00  0.00    -0.153 OA
ATOM      3  O   UNL     1       5.062  -7.258  -2.384  0.00  0.00    -0.153 OA
ENDROOT
BRANCH   1   7
ATOM      4  C   UNL     1       3.514  -2.763  -1.326  0.00  0.00    +0.034 C 
ATOM      5  C   UNL     1       2.982  -4.198  -1.315  0.00  0.00    +0.024 C 
ATOM      6  C   UNL     1       3.430  -4.914  -2.594  0.00  0.00    +0.110 C 
ATOM      7  N   UNL     1       4.891  -4.814  -2.704  0.00  0.00    -0.177 NA
ATOM      8  C   UNL     1       5.516  -3.486  -2.634  0.00  0.00    +0.110 C 
ATOM      9  C   UNL     1       5.044  -2.785  -1.355  0.00  0.00    +0.024 C 
BRANCH   4  15
ATOM     10  C   UNL     1      -0.034   1.384  -0.043  0.00  0.00    +0.002 A 
ATOM     11  C   UNL     1       1.143   2.153  -0.044  0.00  0.00    +0.002 A 
ATOM     12  C   UNL     1       2.372   1.600  -0.051  0.00  0.00    +0.027 A 
ATOM     13  C   UNL     1       2.509   0.137  -0.057  0.00  0.00    +0.060 A 
ATOM     14  N   UNL     1       3.542  -0.655  -0.064  0.00  0.00    -0.363 N 
ATOM     15  C   UNL     1       3.040  -2.034  -0.067  0.00  0.00    +0.177 C 
ATOM     16  N   UNL     1       1.574  -1.941  -0.061  0.00  0.00    -0.363 N 
ATOM     17  C   UNL     1       1.264  -0.677  -0.055  0.00  0.00    +0.060 A 
ATOM     18  C   UNL     1      -0.021   0.036  -0.048  0.00  0.00    +0.027 A 
ATOM     19  H   UNL     1       4.474  -0.383  -0.067  0.00  0.00    +0.162 HD
ATOM     20  H   UNL     1       0.952  -2.685  -0.062  0.00  0.00    +0.162 HD
ENDBRANCH   4  15
ENDBRANCH   1   7
BRANCH   1  21
ATOM     21  C   UNL     1       5.973  -6.448  -4.636  0.00  0.00    +0.106 A 
ATOM     22  C   UNL     1       5.041  -7.228  -5.296  0.00  0.00    +0.030 A 
ATOM     23  C   UNL     1       5.160  -7.446  -6.655  0.00  0.00    +0.025 A 
ATOM     24  C   UNL     1       6.216  -6.881  -7.358  0.00  0.00    +0.033 A 
ATOM     25  C   UNL     1       7.149  -6.097  -6.692  0.00  0.00    +0.025 A 
ATOM     26  C   UNL     1       7.022  -5.879  -5.334  0.00  0.00    +0.030 A 
BRANCH  24  27
ATOM     27  N   UNL     1       6.339  -7.100  -8.734  0.00  0.00    -0.285 N 
ATOM     28  C   UNL     1       5.980  -8.287  -9.262  0.00  0.00    +0.217 C 
ATOM     29  O   UNL     1       5.473  -9.135  -8.559  0.00  0.00    -0.275 OA
ATOM     30  H   UNL     1       6.683  -6.398  -9.308  0.00  0.00    +0.155 HD
BRANCH  28  31
ATOM     31  C   UNL     1       6.210  -8.561 -10.726  0.00  0.00    +0.099 C 
BRANCH  31  32
ATOM     32  C   UNL     1       5.717  -9.970 -11.065  0.00  0.00    -0.002 C 
ATOM     33  C   UNL     1       6.612 -11.022 -10.378  0.00  0.00    +0.004 C 
ATOM     34  C   UNL     1       6.710 -12.171 -11.413  0.00  0.00    +0.000 C 
ATOM     35  C   UNL     1       6.790 -11.412 -12.760  0.00  0.00    +0.000 C 
ATOM     36  C   UNL     1       5.830 -10.217 -12.579  0.00  0.00    +0.004 C 
ENDBRANCH  31  32
ENDBRANCH  28  31
ENDBRANCH  24  27
ENDBRANCH   1  21
TORSDOF 6
