REMARK  Name = ZINC12797678
REMARK  5 active torsions:
REMARK  status: ('A' for Active; 'I' for Inactive)
REMARK    1  A    between atoms: C_1  and  C_2
REMARK    2  A    between atoms: C_6  and  C_15
REMARK    3  A    between atoms: N_10  and  S_11
REMARK    4  A    between atoms: S_11  and  C_14
REMARK    5  A    between atoms: N_21  and  C_22
REMARK                            x       y       z     vdW  Elec       q    Type
REMARK                         _______ _______ _______ _____ _____    ______ ____
ROOT
ATOM      1  C   UNL     1       5.029  -3.194  -1.142  0.00  0.00    +0.077 C 
ATOM      2  N   UNL     1       5.055  -3.393  -2.398  0.00  0.00    -0.184 NA
ATOM      3  N   UNL     1       5.986  -4.114  -3.141  0.00  0.00    -0.215 N 
ATOM      4  C   UNL     1       7.139  -4.581  -2.524  0.00  0.00    +0.174 C 
ATOM      5  S   UNL     1       6.928  -5.104  -0.839  0.00  0.00    -0.083 S 
ATOM      6  C   UNL     1       6.041  -3.672  -0.139  0.00  0.00    +0.134 C 
ATOM      7  N   UNL     1       8.299  -4.632  -3.140  0.00  0.00    -0.225 NA
ATOM      8  H   UNL     1       5.830  -4.289  -4.082  0.00  0.00    +0.176 HD
ENDROOT
BRANCH   1  14
ATOM      9  C   UNL     1      -0.224   1.608  -0.805  0.00  0.00    +0.030 C 
ATOM     10  C   UNL     1      -0.135   0.099  -0.569  0.00  0.00    +0.099 C 
ATOM     11  C   UNL     1       0.671  -0.570  -1.694  0.00  0.00    +0.061 C 
ATOM     12  C   UNL     1       1.854  -1.198  -0.992  0.00  0.00    -0.022 A 
ATOM     13  C   UNL     1       2.912  -1.930  -1.486  0.00  0.00    +0.015 A 
ATOM     14  C   UNL     1       3.896  -2.411  -0.619  0.00  0.00    -0.001 A 
ATOM     15  C   UNL     1       3.797  -2.144   0.750  0.00  0.00    +0.011 A 
ATOM     16  C   UNL     1       2.738  -1.413   1.234  0.00  0.00    +0.025 A 
ATOM     17  C   UNL     1       1.752  -0.931   0.367  0.00  0.00    +0.054 A 
ATOM     18  N   UNL     1       0.613  -0.181   0.659  0.00  0.00    -0.204 N 
BRANCH  18  19
ATOM     19  S   UNL     1       0.171   0.321   2.174  0.00  0.00    +0.043 S 
ATOM     20  O   UNL     1       1.389   0.390   2.902  0.00  0.00    -0.155 OA
ATOM     21  O   UNL     1      -0.609   1.488   1.955  0.00  0.00    -0.155 OA
ATOM     22  C   UNL     1      -0.871  -1.015   2.822  0.00  0.00    +0.218 C 
ENDBRANCH  18  19
ENDBRANCH   1  14
BRANCH   7  23
ATOM     23  C   UNL     1       8.430  -4.109  -4.399  0.00  0.00    +0.067 A 
ATOM     24  C   UNL     1       8.027  -2.797  -4.658  0.00  0.00    +0.029 A 
ATOM     25  C   UNL     1       8.162  -2.276  -5.928  0.00  0.00    +0.022 A 
ATOM     26  C   UNL     1       8.694  -3.050  -6.944  0.00  0.00    +0.041 A 
ATOM     27  C   UNL     1       9.095  -4.352  -6.694  0.00  0.00    +0.022 A 
ATOM     28  C   UNL     1       8.972  -4.883  -5.427  0.00  0.00    +0.029 A 
ATOM     29 CL   UNL     1       8.860  -2.387  -8.540  0.00  0.00    -0.084 Cl
ENDBRANCH   7  23
TORSDOF 3
