REMARK  Name = ZINC00388834
REMARK  1 active torsions:
REMARK  status: ('A' for Active; 'I' for Inactive)
REMARK    1  A    between atoms: C_4  and  C_7
REMARK                            x       y       z     vdW  Elec       q    Type
REMARK                         _______ _______ _______ _____ _____    ______ ____
ROOT
ATOM      1  C   UNL     1      -2.502   1.008   0.019  0.00  0.00    +0.265 C 
ATOM      2  O   UNL     1      -2.485  -0.207   0.035  0.00  0.00    -0.267 OA
ATOM      3  N   UNL     1      -3.673   1.666   0.130  0.00  0.00    -0.254 N 
ATOM      4  C   UNL     1      -4.933   1.078   0.244  0.00  0.00    +0.075 A 
ATOM      5  C   UNL     1      -5.370  -0.237   0.279  0.00  0.00    +0.028 A 
ATOM      6  C   UNL     1      -6.718  -0.510   0.402  0.00  0.00    +0.002 A 
ATOM      7  C   UNL     1      -7.635   0.523   0.492  0.00  0.00    +0.002 A 
ATOM      8  C   UNL     1      -7.209   1.837   0.458  0.00  0.00    +0.028 A 
ATOM      9  C   UNL     1      -5.858   2.121   0.334  0.00  0.00    +0.065 A 
ATOM     10  N   UNL     1      -5.133   3.309   0.272  0.00  0.00    -0.333 N 
ATOM     11  H   UNL     1      -5.655   4.275   0.320  0.00  0.00    +0.168 HD
ATOM     12  C   UNL     1      -3.826   3.004   0.156  0.00  0.00    +0.166 A 
ATOM     13  S   UNL     1      -2.554   4.144   0.053  0.00  0.00    -0.012 S 
ENDROOT
BRANCH   1  17
ATOM     14  C   UNL     1       1.127   3.176  -0.387  0.00  0.00    +0.000 A 
ATOM     15  C   UNL     1       0.971   2.284   0.660  0.00  0.00    +0.001 A 
ATOM     16  C   UNL     1      -0.207   1.579   0.800  0.00  0.00    +0.013 A 
ATOM     17  C   UNL     1      -1.241   1.764  -0.121  0.00  0.00    +0.040 A 
ATOM     18  C   UNL     1      -1.078   2.668  -1.172  0.00  0.00    +0.013 A 
ATOM     19  C   UNL     1       0.105   3.367  -1.300  0.00  0.00    +0.001 A 
ENDBRANCH   1  17
TORSDOF 1
