REMARK  Name = ZINC40680491
REMARK  4 active torsions:
REMARK  status: ('A' for Active; 'I' for Inactive)
REMARK    1  A    between atoms: C_5  and  N_7
REMARK    2  A    between atoms: N_10  and  S_13
REMARK    3  A    between atoms: S_13  and  C_16
REMARK    4  A    between atoms: C_19  and  N_22
REMARK                            x       y       z     vdW  Elec       q    Type
REMARK                         _______ _______ _______ _____ _____    ______ ____
ROOT
ATOM      1  N   UNL     1       1.236  -2.079  -0.021  0.00  0.00    -0.325 N 
ATOM      2  C   UNL     1       1.254  -2.834   1.239  0.00  0.00    +0.122 C 
ATOM      3  C   UNL     1       0.076  -3.815   1.240  0.00  0.00    +0.128 C 
ATOM      4  N   UNL     1       0.081  -4.556  -0.030  0.00  0.00    -0.172 NA
ATOM      5  C   UNL     1       0.063  -3.801  -1.290  0.00  0.00    +0.128 C 
ATOM      6  C   UNL     1       1.236  -2.820  -1.291  0.00  0.00    +0.122 C 
ENDROOT
BRANCH   1  11
ATOM      7  C   UNL     1      -0.017   1.377   0.010  0.00  0.00    +0.002 A 
ATOM      8  C   UNL     1       1.170   2.087   0.002  0.00  0.00    +0.003 A 
ATOM      9  C   UNL     1       2.380   1.418  -0.013  0.00  0.00    +0.040 A 
ATOM     10  C   UNL     1       2.406   0.035  -0.021  0.00  0.00    +0.144 A 
ATOM     11  C   UNL     1       1.214  -0.681  -0.013  0.00  0.00    +0.065 A 
ATOM     12  C   UNL     1       0.002  -0.004   0.002  0.00  0.00    +0.026 A 
ATOM     13  F   UNL     1       3.588  -0.619  -0.036  0.00  0.00    -0.204 F 
ENDBRANCH   1  11
BRANCH   4  14
ATOM     14  S   UNL     1       0.107  -6.212  -0.039  0.00  0.00    +0.078 S 
ATOM     15  O   UNL     1       0.658  -6.602  -1.290  0.00  0.00    -0.151 OA
ATOM     16  O   UNL     1       0.671  -6.616   1.201  0.00  0.00    -0.151 OA
BRANCH  14  17
ATOM     17  C   UNL     1      -1.568  -6.759  -0.034  0.00  0.00    +0.194 A 
ATOM     18  C   UNL     1      -2.211  -6.973   1.172  0.00  0.00    +0.051 A 
ATOM     19  C   UNL     1      -3.527  -7.403   1.169  0.00  0.00    +0.028 A 
ATOM     20  C   UNL     1      -4.155  -7.605  -0.058  0.00  0.00    +0.043 A 
ATOM     21  C   UNL     1      -3.442  -7.369  -1.227  0.00  0.00    +0.135 A 
ATOM     22  N   UNL     1      -2.192  -6.955  -1.179  0.00  0.00    -0.234 NA
BRANCH  20  23
ATOM     23  N   UNL     1      -5.482  -8.039  -0.113  0.00  0.00    -0.357 N 
ATOM     24  H   UNL     1      -5.973  -8.202   0.707  0.00  0.00    +0.142 HD
ATOM     25  H   UNL     1      -5.912  -8.178  -0.971  0.00  0.00    +0.142 HD
ENDBRANCH  20  23
ENDBRANCH  14  17
ENDBRANCH   4  14
TORSDOF 4
