REMARK  Name = ZINC32605116
REMARK  4 active torsions:
REMARK  status: ('A' for Active; 'I' for Inactive)
REMARK    1  A    between atoms: C_1  and  C_2
REMARK    2  A    between atoms: C_8  and  N_13
REMARK    3  A    between atoms: C_10  and  C_12
REMARK    4  A    between atoms: C_14  and  C_16
REMARK                            x       y       z     vdW  Elec       q    Type
REMARK                         _______ _______ _______ _____ _____    ______ ____
ROOT
ATOM      1  N   UNL     1      -0.176  -2.211   3.607  0.00  0.00    -0.281 N 
ATOM      2  C   UNL     1      -0.035  -2.915   4.748  0.00  0.00    +0.253 C 
ATOM      3  O   UNL     1       0.186  -4.110   4.703  0.00  0.00    -0.270 OA
ATOM      4  H   UNL     1      -0.288  -1.248   3.642  0.00  0.00    +0.155 HD
ENDROOT
BRANCH   2   5
ATOM      5  C   UNL     1      -0.148  -2.237   6.049  0.00  0.00    +0.100 A 
ATOM      6  C   UNL     1      -0.133  -2.963   7.222  0.00  0.00    +0.100 A 
ATOM      7  N   UNL     1      -0.234  -2.380   8.424  0.00  0.00    -0.360 N 
ATOM      8  C   UNL     1      -0.359  -1.017   8.584  0.00  0.00    +0.050 A 
ATOM      9  C   UNL     1      -0.459  -0.461   9.857  0.00  0.00    +0.028 A 
ATOM     10  C   UNL     1      -0.583   0.902  10.006  0.00  0.00    +0.022 A 
ATOM     11  C   UNL     1      -0.610   1.737   8.896  0.00  0.00    +0.042 A 
ATOM     12  C   UNL     1      -0.512   1.208   7.627  0.00  0.00    +0.033 A 
ATOM     13  C   UNL     1      -0.385  -0.171   7.463  0.00  0.00    +0.047 A 
ATOM     14  C   UNL     1      -0.272  -0.772   6.121  0.00  0.00    +0.202 A 
ATOM     15  O   UNL     1      -0.285  -0.086   5.114  0.00  0.00    -0.286 OA
ATOM     16 CL   UNL     1      -0.767   3.453   9.108  0.00  0.00    -0.084 Cl
ATOM     17  H   UNL     1      -0.219  -2.941   9.215  0.00  0.00    +0.165 HD
ENDBRANCH   2   5
BRANCH   1  25
ATOM     18  C   UNL     1      -2.857   0.711   0.304  0.00  0.00    +0.044 C 
ATOM     19  C   UNL     1      -2.120  -0.601   0.221  0.00  0.00    -0.050 A 
ATOM     20  C   UNL     1      -2.079  -1.292  -0.988  0.00  0.00    +0.005 A 
ATOM     21  C   UNL     1      -1.421  -2.479  -1.096  0.00  0.00    +0.028 A 
ATOM     22  C   UNL     1      -0.772  -3.022   0.026  0.00  0.00    +0.073 A 
ATOM     23  C   UNL     1      -0.816  -2.317   1.253  0.00  0.00    +0.022 A 
ATOM     24  C   UNL     1      -1.498  -1.095   1.329  0.00  0.00    +0.015 A 
ATOM     25  C   UNL     1      -0.162  -2.866   2.381  0.00  0.00    +0.045 A 
ATOM     26  C   UNL     1       0.495  -4.076   2.225  0.00  0.00    +0.047 A 
ATOM     27  C   UNL     1       0.492  -4.705   0.987  0.00  0.00    +0.041 A 
ATOM     28  N   UNL     1      -0.119  -4.186  -0.052  0.00  0.00    -0.252 NA
ATOM     29  C   UNL     1       1.210  -6.021   0.833  0.00  0.00    +0.065 C 
ENDBRANCH   1  25
TORSDOF 2
