REMARK  Name = ZINC01747787
REMARK  6 active torsions:
REMARK  status: ('A' for Active; 'I' for Inactive)
REMARK    1  A    between atoms: C_1  and  C_2
REMARK    2  A    between atoms: C_8  and  C_9
REMARK    3  A    between atoms: C_8  and  N_52
REMARK    4  A    between atoms: C_10  and  O_32
REMARK    5  A    between atoms: C_16  and  C_28
REMARK    6  A    between atoms: C_17  and  C_20
REMARK                            x       y       z     vdW  Elec       q    Type
REMARK                         _______ _______ _______ _____ _____    ______ ____
ROOT
ATOM      1  C   UNL     1      -2.225   5.428   1.403  0.00  0.00    +0.020 A 
ATOM      2  C   UNL     1      -1.319   5.785   2.388  0.00  0.00    +0.122 A 
ATOM      3  C   UNL     1      -1.762   6.182   3.648  0.00  0.00    +0.046 A 
ATOM      4  C   UNL     1      -3.098   6.224   3.928  0.00  0.00    +0.019 A 
ATOM      5  C   UNL     1      -4.023   5.867   2.946  0.00  0.00    +0.065 A 
ATOM      6  C   UNL     1      -3.587   5.470   1.669  0.00  0.00    +0.144 A 
ATOM      7  O   UNL     1      -4.482   5.132   0.720  0.00  0.00    -0.450 OA
ATOM      8  C   UNL     1      -5.803   5.154   0.917  0.00  0.00    +0.219 A 
ATOM      9  C   UNL     1      -6.360   5.522   2.099  0.00  0.00    +0.078 A 
ATOM     10  C   UNL     1      -5.472   5.901   3.212  0.00  0.00    +0.201 A 
ATOM     11  O   UNL     1      -5.915   6.240   4.296  0.00  0.00    -0.286 OA
ENDROOT
BRANCH   9  12
ATOM     12  C   UNL     1      -7.833   5.532   2.271  0.00  0.00    +0.008 A 
ATOM     13  C   UNL     1      -8.491   4.391   2.726  0.00  0.00    +0.011 A 
ATOM     14  C   UNL     1      -9.862   4.404   2.884  0.00  0.00    +0.021 A 
ATOM     15  C   UNL     1     -10.584   5.549   2.591  0.00  0.00    +0.042 A 
ATOM     16  C   UNL     1      -9.936   6.685   2.138  0.00  0.00    +0.040 A 
ATOM     17  C   UNL     1      -8.564   6.684   1.983  0.00  0.00    +0.050 A 
ATOM     18 CL   UNL     1      -7.751   8.112   1.422  0.00  0.00    -0.083 Cl
ATOM     19 CL   UNL     1     -12.308   5.558   2.792  0.00  0.00    -0.083 Cl
ENDBRANCH   9  12
BRANCH   8  20
ATOM     20  C   UNL     1      -6.710   4.754  -0.218  0.00  0.00    +0.451 C 
ATOM     21  F   UNL     1      -7.031   5.884  -0.978  0.00  0.00    -0.163 F 
ATOM     22  F   UNL     1      -6.060   3.817  -1.027  0.00  0.00    -0.163 F 
ATOM     23  F   UNL     1      -7.882   4.191   0.299  0.00  0.00    -0.163 F 
ENDBRANCH   8  20
BRANCH   2  24
ATOM     24  O   UNL     1       0.011   5.748   2.123  0.00  0.00    -0.506 OA
ATOM     25  H   UNL     1       0.365   6.576   1.772  0.00  0.00    +0.292 HD
ENDBRANCH   2  24
BRANCH   1  26
ATOM     26  C   UNL     1      -1.734   5.000   0.044  0.00  0.00    -0.035 C 
BRANCH  26  33
ATOM     27  C   UNL     1      -1.586   3.634  -2.411  0.00  0.00    -0.013 C 
ATOM     28  C   UNL     1      -0.826   3.122  -1.185  0.00  0.00    -0.071 C 
ATOM     29  C   UNL     1      -0.756   1.594  -1.230  0.00  0.00    -0.016 C 
ATOM     30  C   UNL     1      -0.013   1.086   0.008  0.00  0.00    -0.003 C 
ATOM     31  C   UNL     1      -0.732   1.581   1.266  0.00  0.00    -0.019 C 
ATOM     32  C   UNL     1      -0.804   3.109   1.238  0.00  0.00    -0.078 C 
ATOM     33  N   UNL     1      -1.552   3.533   0.035  0.00  0.00    +0.384 N 
ATOM     34  H   UNL     1      -2.475   3.083   0.041  0.00  0.00    -0.081 HD
ENDBRANCH  26  33
ENDBRANCH   1  26
TORSDOF 5
