REMARK  Name = ZINC16525012
REMARK  6 active torsions:
REMARK  status: ('A' for Active; 'I' for Inactive)
REMARK    1  A    between atoms: C_10  and  N_15
REMARK    2  A    between atoms: N_15  and  C_16
REMARK    3  A    between atoms: C_16  and  N_18
REMARK    4  A    between atoms: N_18  and  C_19
REMARK    5  A    between atoms: C_22  and  S_25
REMARK    6  A    between atoms: S_25  and  N_28
REMARK                            x       y       z     vdW  Elec       q    Type
REMARK                         _______ _______ _______ _____ _____    ______ ____
ROOT
ATOM      1  N   UNL     1       7.680  -1.727  -2.223  0.00  0.00    -0.297 N 
ATOM      2  H   UNL     1       7.565  -2.624  -1.874  0.00  0.00    +0.154 HD
ENDROOT
BRANCH   1  12
ATOM      3  C   UNL     1       0.031   0.228  -4.562  0.00  0.00    +0.004 A 
ATOM      4  C   UNL     1      -0.050   1.576  -4.269  0.00  0.00    +0.001 A 
ATOM      5  C   UNL     1       0.922   2.168  -3.483  0.00  0.00    +0.019 A 
ATOM      6  C   UNL     1       1.975   1.410  -2.993  0.00  0.00    +0.055 A 
ATOM      7  C   UNL     1       2.060   0.051  -3.281  0.00  0.00    +0.142 A 
ATOM      8  C   UNL     1       1.076  -0.531  -4.073  0.00  0.00    +0.047 A 
ATOM      9  O   UNL     1       3.057  -0.726  -2.813  0.00  0.00    -0.454 OA
ATOM     10  C   UNL     1       4.287  -0.301  -2.466  0.00  0.00    +0.144 A 
ATOM     11  C   UNL     1       5.344  -1.203  -2.524  0.00  0.00    +0.070 A 
ATOM     12  C   UNL     1       6.623  -0.809  -2.160  0.00  0.00    +0.036 A 
ATOM     13  C   UNL     1       6.859   0.490  -1.734  0.00  0.00    +0.024 A 
ATOM     14  C   UNL     1       5.814   1.394  -1.679  0.00  0.00    +0.020 A 
ATOM     15  C   UNL     1       4.537   1.004  -2.049  0.00  0.00    +0.055 A 
ATOM     16  S   UNL     1       3.217   2.174  -2.002  0.00  0.00    -0.082 S 
ENDBRANCH   1  12
BRANCH   1  17
ATOM     17  C   UNL     1       8.857  -1.362  -2.769  0.00  0.00    +0.139 C 
ATOM     18  S   UNL     1       9.097   0.252  -3.286  0.00  0.00    -0.018 S 
BRANCH  17  19
ATOM     19  N   UNL     1       9.845  -2.268  -2.907  0.00  0.00    -0.297 N 
ATOM     20  H   UNL     1       9.689  -3.196  -2.671  0.00  0.00    +0.154 HD
BRANCH  19  21
ATOM     21  C   UNL     1      11.096  -1.870  -3.390  0.00  0.00    +0.033 A 
ATOM     22  C   UNL     1      11.181  -1.042  -4.502  0.00  0.00    +0.025 A 
ATOM     23  C   UNL     1      12.418  -0.647  -4.974  0.00  0.00    +0.030 A 
ATOM     24  C   UNL     1      13.570  -1.084  -4.347  0.00  0.00    +0.105 A 
ATOM     25  C   UNL     1      13.489  -1.914  -3.244  0.00  0.00    +0.030 A 
ATOM     26  C   UNL     1      12.256  -2.308  -2.764  0.00  0.00    +0.025 A 
BRANCH  24  27
ATOM     27  S   UNL     1      15.146  -0.584  -4.957  0.00  0.00    +0.056 S 
ATOM     28  O   UNL     1      14.940   0.630  -5.666  0.00  0.00    -0.153 OA
ATOM     29  O   UNL     1      16.054  -0.686  -3.868  0.00  0.00    -0.153 OA
BRANCH  27  30
ATOM     30  N   UNL     1      15.619  -1.710  -6.074  0.00  0.00    -0.204 NA
ATOM     31  H   UNL     1      16.187  -1.448  -6.816  0.00  0.00    +0.144 HD
ATOM     32  H   UNL     1      15.329  -2.631  -5.987  0.00  0.00    +0.144 HD
ENDBRANCH  27  30
ENDBRANCH  24  27
ENDBRANCH  19  21
ENDBRANCH  17  19
ENDBRANCH   1  17
TORSDOF 6
