REMARK  Name = ZINC00307637
REMARK  4 active torsions:
REMARK  status: ('A' for Active; 'I' for Inactive)
REMARK    1  A    between atoms: C_1  and  C_2
REMARK    2  A    between atoms: C_2  and  C_3
REMARK    3  A    between atoms: C_2  and  C_4
REMARK    4  A    between atoms: N_8  and  C_12
REMARK                            x       y       z     vdW  Elec       q    Type
REMARK                         _______ _______ _______ _____ _____    ______ ____
ROOT
ATOM      1  C   UNL     1      -1.433  -0.534   0.013  0.00  0.00    +0.161 C 
ATOM      2  C   UNL     1      -1.442  -2.049   0.058  0.00  0.00    +0.242 C 
ATOM      3  O   UNL     1      -0.982  -2.808  -0.768  0.00  0.00    -0.273 OA
ATOM      4  N   UNL     1      -2.068  -2.376   1.206  0.00  0.00    -0.249 N 
ATOM      5  C   UNL     1      -2.451  -1.289   1.885  0.00  0.00    +0.140 C 
ATOM      6  S   UNL     1      -3.273  -1.346   3.386  0.00  0.00    -0.018 S 
ATOM      7  N   UNL     1      -2.120  -0.143   1.256  0.00  0.00    -0.315 N 
ATOM      8  H   UNL     1      -2.298   0.761   1.561  0.00  0.00    +0.149 HD
ENDROOT
BRANCH   4   9
ATOM      9  C   UNL     1      -2.300  -3.751   1.653  0.00  0.00    +0.083 C 
ATOM     10  C   UNL     1      -3.804  -3.992   1.802  0.00  0.00    +0.023 C 
ATOM     11  C   UNL     1      -4.046  -5.428   2.270  0.00  0.00    +0.002 C 
ATOM     12  C   UNL     1      -3.359  -5.648   3.619  0.00  0.00    +0.000 C 
ATOM     13  C   UNL     1      -1.855  -5.408   3.470  0.00  0.00    +0.002 C 
ATOM     14  C   UNL     1      -1.613  -3.971   3.002  0.00  0.00    +0.023 C 
ENDBRANCH   4   9
BRANCH   1  16
ATOM     15  C   UNL     1      -0.019   1.526   0.010  0.00  0.00    +0.009 C 
ATOM     16  C   UNL     1       0.002  -0.004   0.002  0.00  0.00    +0.012 C 
ATOM     17  C   UNL     1       0.742  -0.511   1.242  0.00  0.00    +0.009 C 
ENDBRANCH   1  16
TORSDOF 2
