REMARK  Name = ZINC36679895
REMARK  7 active torsions:
REMARK  status: ('A' for Active; 'I' for Inactive)
REMARK    1  A    between atoms: C_1  and  C_2
REMARK    2  A    between atoms: C_2  and  C_3
REMARK    3  A    between atoms: C_3  and  C_5
REMARK    4  A    between atoms: C_3  and  O_9
REMARK    5  A    between atoms: C_5  and  C_6
REMARK    6  A    between atoms: O_9  and  C_10
REMARK    7  A    between atoms: C_20  and  C_22
REMARK                            x       y       z     vdW  Elec       q    Type
REMARK                         _______ _______ _______ _____ _____    ______ ____
ROOT
ATOM      1  C   UNL     1       0.175   1.124  -2.909  0.00  0.00    +0.130 A 
ATOM      2  C   UNL     1       1.147   1.915  -2.371  0.00  0.00    +0.063 A 
ATOM      3  C   UNL     1       1.381   3.184  -2.856  0.00  0.00    +0.044 A 
ATOM      4  C   UNL     1       0.639   3.730  -3.926  0.00  0.00    +0.093 A 
ATOM      5  C   UNL     1      -0.360   2.893  -4.467  0.00  0.00    +0.049 A 
ATOM      6  C   UNL     1      -0.615   1.599  -3.997  0.00  0.00    +0.033 A 
ATOM      7  C   UNL     1      -1.685   0.898  -4.697  0.00  0.00    +0.020 A 
ATOM      8  C   UNL     1      -2.322   1.510  -5.705  0.00  0.00    +0.046 A 
ATOM      9  S   UNL     1      -1.530   3.106  -5.784  0.00  0.00    -0.094 S 
ATOM     10  N   UNL     1       0.983   4.984  -4.291  0.00  0.00    -0.243 NA
ATOM     11  C   UNL     1       1.935   5.656  -3.704  0.00  0.00    +0.076 A 
ATOM     12  S   UNL     1       2.504   4.502  -2.463  0.00  0.00    -0.072 S 
ATOM     13  C   UNL     1       2.429   7.050  -3.997  0.00  0.00    +0.073 C 
ENDROOT
BRANCH   1  14
ATOM     14  O   UNL     1      -0.036  -0.123  -2.412  0.00  0.00    -0.488 OA
BRANCH  14  15
ATOM     15  C   UNL     1       0.760  -0.519  -1.293  0.00  0.00    +0.180 C 
BRANCH  15  17
ATOM     16  C   UNL     1      -0.159   1.309   0.142  0.00  0.00    +0.007 C 
ATOM     17  C   UNL     1       0.010  -0.206   0.003  0.00  0.00    +0.041 C 
ENDBRANCH  15  17
BRANCH  15  18
ATOM     18  C   UNL     1       1.038  -2.021  -1.370  0.00  0.00    +0.113 C 
BRANCH  18  19
ATOM     19  C   UNL     1       1.883  -2.314  -2.584  0.00  0.00    +0.066 C 
ATOM     20  N   UNL     1       1.305  -2.585  -3.741  0.00  0.00    -0.391 N 
ATOM     21  N   UNL     1       3.201  -2.299  -2.491  0.00  0.00    -0.348 N 
ATOM     22  H   UNL     1       0.338  -2.596  -3.810  0.00  0.00    +0.157 HD
ATOM     23  H   UNL     1       3.625  -2.100  -1.641  0.00  0.00    +0.143 HD
ATOM     24  H   UNL     1       3.745  -2.487  -3.272  0.00  0.00    +0.143 HD
ATOM     25  H   UNL     1       1.849  -2.773  -4.522  0.00  0.00    +0.157 HD
ENDBRANCH  18  19
ENDBRANCH  15  18
ENDBRANCH  14  15
ENDBRANCH   1  14
TORSDOF 5
