REMARK  Name = ZINC05408939
REMARK  10 active torsions:
REMARK  status: ('A' for Active; 'I' for Inactive)
REMARK    1  A    between atoms: C_1  and  C_2
REMARK    2  A    between atoms: C_4  and  C_33
REMARK    3  A    between atoms: C_5  and  C_18
REMARK    4  A    between atoms: C_6  and  C_17
REMARK    5  A    between atoms: C_7  and  C_8
REMARK    6  A    between atoms: C_8  and  O_9
REMARK    7  A    between atoms: O_9  and  C_10
REMARK    8  A    between atoms: C_21  and  C_32
REMARK    9  A    between atoms: C_27  and  N_31
REMARK   10  A    between atoms: C_28  and  C_29
REMARK                            x       y       z     vdW  Elec       q    Type
REMARK                         _______ _______ _______ _____ _____    ______ ____
ROOT
ATOM      1  C   UNL     1      -1.026   1.305  -0.077  0.00  0.00    +0.044 C 
ATOM      2  C   UNL     1      -0.480  -0.099  -0.040  0.00  0.00    -0.044 A 
ATOM      3  C   UNL     1      -0.004  -0.686  -1.198  0.00  0.00    +0.007 A 
ATOM      4  C   UNL     1       0.497  -1.974  -1.163  0.00  0.00    -0.046 A 
ATOM      5  C   UNL     1       0.522  -2.675   0.028  0.00  0.00    -0.028 A 
ATOM      6  C   UNL     1       0.047  -2.087   1.186  0.00  0.00    -0.039 A 
ATOM      7  C   UNL     1      -0.450  -0.797   1.152  0.00  0.00    -0.004 A 
ATOM      8  C   UNL     1       0.075  -2.850   2.485  0.00  0.00    +0.044 C 
ATOM      9  C   UNL     1       1.014  -2.615  -2.425  0.00  0.00    +0.044 C 
ENDROOT
BRANCH   5  10
ATOM     10  C   UNL     1       1.067  -4.079   0.066  0.00  0.00    +0.102 C 
ATOM     11  C   UNL     1       2.425  -4.115  -0.588  0.00  0.00    +0.049 A 
ATOM     12  C   UNL     1       3.637  -3.622  -0.124  0.00  0.00    +0.068 A 
ATOM     13  N   UNL     1       4.553  -3.877  -1.027  0.00  0.00    -0.176 NA
ATOM     14  N   UNL     1       3.943  -4.545  -2.101  0.00  0.00    -0.246 N 
ATOM     15  H   UNL     1       4.386  -4.853  -2.907  0.00  0.00    +0.192 HD
ATOM     16  C   UNL     1       2.639  -4.683  -1.813  0.00  0.00    +0.222 A 
ATOM     17  O   UNL     1       1.648  -5.261  -2.535  0.00  0.00    -0.423 OA
ATOM     18  C   UNL     1       0.482  -5.514  -1.906  0.00  0.00    +0.200 C 
ATOM     19  C   UNL     1       0.151  -5.001  -0.700  0.00  0.00    +0.098 C 
ATOM     20  C   UNL     1       3.861  -2.917   1.189  0.00  0.00    +0.068 C 
BRANCH  18  21
ATOM     21  N   UNL     1      -0.421  -6.340  -2.527  0.00  0.00    -0.328 N 
ATOM     22  H   UNL     1      -0.212  -6.723  -3.393  0.00  0.00    +0.145 HD
ATOM     23  H   UNL     1      -1.268  -6.541  -2.099  0.00  0.00    +0.145 HD
ENDBRANCH  18  21
BRANCH  19  24
ATOM     24  C   UNL     1      -1.116  -5.345  -0.127  0.00  0.00    +0.101 C 
ATOM     25  N   UNL     1      -2.120  -5.618   0.327  0.00  0.00    -0.191 NA
ENDBRANCH  19  24
ENDBRANCH   5  10
BRANCH   7  26
ATOM     26  C   UNL     1      -0.962  -0.154   2.415  0.00  0.00    +0.265 C 
BRANCH  26  27
ATOM     27  O   UNL     1      -2.356  -0.436   2.561  0.00  0.00    -0.487 OA
BRANCH  27  28
ATOM     28  C   UNL     1      -2.977   0.074   3.657  0.00  0.00    +0.121 A 
ATOM     29  C   UNL     1      -2.261   0.836   4.569  0.00  0.00    +0.048 A 
ATOM     30  C   UNL     1      -2.894   1.354   5.683  0.00  0.00    +0.042 A 
ATOM     31  C   UNL     1      -4.242   1.114   5.889  0.00  0.00    +0.124 A 
ATOM     32  C   UNL     1      -4.957   0.353   4.979  0.00  0.00    +0.042 A 
ATOM     33  C   UNL     1      -4.329  -0.161   3.862  0.00  0.00    +0.048 A 
ATOM     34  F   UNL     1      -4.859   1.621   6.978  0.00  0.00    -0.205 F 
ENDBRANCH  27  28
ENDBRANCH  26  27
ENDBRANCH   7  26
TORSDOF 6
