REMARK  Name = ZINC04747303
REMARK  9 active torsions:
REMARK  status: ('A' for Active; 'I' for Inactive)
REMARK    1  A    between atoms: C_1  and  C_2
REMARK    2  A    between atoms: C_2  and  C_3
REMARK    3  A    between atoms: C_2  and  C_4
REMARK    4  A    between atoms: N_6  and  C_7
REMARK    5  A    between atoms: C_9  and  O_22
REMARK    6  A    between atoms: C_11  and  O_21
REMARK    7  A    between atoms: C_13  and  C_19
REMARK    8  A    between atoms: C_16  and  O_18
REMARK    9  A    between atoms: C_19  and  O_20
REMARK                            x       y       z     vdW  Elec       q    Type
REMARK                         _______ _______ _______ _____ _____    ______ ____
ROOT
ATOM      1  C   UNL     1      -1.352   5.211   2.303  0.00  0.00    +0.160 C 
ATOM      2  C   UNL     1      -2.529   5.703   3.152  0.00  0.00    +0.171 C 
ATOM      3  C   UNL     1      -2.494   7.233   3.217  0.00  0.00    +0.176 C 
ATOM      4  C   UNL     1      -1.143   7.681   3.781  0.00  0.00    +0.178 C 
ATOM      5  O   UNL     1      -0.091   7.165   2.963  0.00  0.00    -0.341 OA
ATOM      6  C   UNL     1      -0.046   5.737   2.903  0.00  0.00    +0.270 C 
ENDROOT
BRANCH   1   9
ATOM      7  C   UNL     1      -0.749   3.086   1.275  0.00  0.00    +0.216 C 
ATOM      8  O   UNL     1      -0.241   3.704   0.364  0.00  0.00    -0.276 OA
ATOM      9  N   UNL     1      -1.332   3.747   2.295  0.00  0.00    -0.305 N 
ATOM     10  H   UNL     1      -1.739   3.252   3.024  0.00  0.00    +0.149 HD
BRANCH   7  12
ATOM     11  C   UNL     1      -0.013   1.086   0.008  0.00  0.00    +0.017 C 
ATOM     12  C   UNL     1      -0.729   1.579   1.267  0.00  0.00    +0.069 C 
ATOM     13  C   UNL     1       0.011   1.072   2.506  0.00  0.00    +0.017 C 
ENDBRANCH   7  12
ENDBRANCH   1   9
BRANCH   6  14
ATOM     14  O   UNL     1       1.053   5.330   2.085  0.00  0.00    -0.365 OA
ATOM     15  H   UNL     1       1.915   5.628   2.406  0.00  0.00    +0.213 HD
ENDBRANCH   6  14
BRANCH   3  16
ATOM     16  O   UNL     1      -2.664   7.770   1.904  0.00  0.00    -0.387 OA
ATOM     17  H   UNL     1      -2.647   8.737   1.869  0.00  0.00    +0.210 HD
ENDBRANCH   3  16
BRANCH   2  18
ATOM     18  O   UNL     1      -3.757   5.278   2.557  0.00  0.00    -0.387 OA
ATOM     19  H   UNL     1      -4.546   5.555   3.043  0.00  0.00    +0.210 HD
ENDBRANCH   2  18
BRANCH   4  20
ATOM     20  C   UNL     1      -1.077   9.209   3.794  0.00  0.00    +0.190 C 
BRANCH  20  21
ATOM     21  O   UNL     1       0.134   9.628   4.426  0.00  0.00    -0.392 OA
ATOM     22  H   UNL     1       0.243  10.588   4.469  0.00  0.00    +0.210 HD
ENDBRANCH  20  21
ENDBRANCH   4  20
TORSDOF 7
