REMARK  Name = ZINC02193884
REMARK  5 active torsions:
REMARK  status: ('A' for Active; 'I' for Inactive)
REMARK    1  A    between atoms: C_1  and  C_2
REMARK    2  A    between atoms: C_11  and  C_13
REMARK    3  A    between atoms: C_15  and  N_27
REMARK    4  A    between atoms: C_16  and  C_25
REMARK    5  A    between atoms: C_17  and  C_19
REMARK                            x       y       z     vdW  Elec       q    Type
REMARK                         _______ _______ _______ _____ _____    ______ ____
ROOT
ATOM      1  C   UNL     1      -0.018   1.503   0.010  0.00  0.00    +0.087 C 
ATOM      2  C   UNL     1       0.002  -0.004   0.002  0.00  0.00    +0.114 A 
ATOM      3  C   UNL     1      -1.086  -0.810   0.003  0.00  0.00    +0.073 A 
ATOM      4  C   UNL     1      -2.494  -0.383   0.011  0.00  0.00    +0.190 A 
ATOM      5  O   UNL     1      -2.711   0.818   0.021  0.00  0.00    -0.287 OA
ATOM      6  C   UNL     1      -3.616  -1.241   0.007  0.00  0.00    +0.052 A 
ATOM      7  C   UNL     1      -3.670  -2.594  -0.001  0.00  0.00    +0.012 A 
ATOM      8  C   UNL     1      -2.691  -3.595  -0.009  0.00  0.00    +0.008 A 
ATOM      9  C   UNL     1      -1.322  -3.453  -0.009  0.00  0.00    +0.145 A 
ATOM     10  C   UNL     1      -0.567  -2.191  -0.007  0.00  0.00    +0.069 A 
ATOM     11  C   UNL     1       0.787  -2.075  -0.013  0.00  0.00    +0.114 A 
ATOM     12  O   UNL     1       1.101  -0.772  -0.013  0.00  0.00    -0.464 OA
ATOM     13  C   UNL     1       1.769  -3.218  -0.023  0.00  0.00    +0.087 C 
ATOM     14  O   UNL     1      -0.541  -4.548  -0.008  0.00  0.00    -0.440 OA
ATOM     15  C   UNL     1      -0.960  -5.712  -0.529  0.00  0.00    +0.199 C 
ATOM     16  C   UNL     1      -2.290  -5.986  -0.562  0.00  0.00    +0.098 C 
ATOM     17  C   UNL     1      -3.267  -4.985  -0.019  0.00  0.00    +0.098 C 
ENDROOT
BRANCH  17  18
ATOM     18  C   UNL     1      -3.638  -5.374   1.389  0.00  0.00    -0.035 A 
ATOM     19  C   UNL     1      -2.669  -5.409   2.374  0.00  0.00    +0.004 A 
ATOM     20  C   UNL     1      -3.010  -5.765   3.666  0.00  0.00    +0.000 A 
ATOM     21  C   UNL     1      -4.319  -6.087   3.972  0.00  0.00    +0.000 A 
ATOM     22  C   UNL     1      -5.288  -6.051   2.986  0.00  0.00    +0.000 A 
ATOM     23  C   UNL     1      -4.948  -5.690   1.696  0.00  0.00    +0.004 A 
ENDBRANCH  17  18
BRANCH  15  24
ATOM     24  N   UNL     1      -0.053  -6.616  -1.024  0.00  0.00    -0.328 N 
ATOM     25  H   UNL     1       0.895  -6.415  -0.997  0.00  0.00    +0.145 HD
ATOM     26  H   UNL     1      -0.361  -7.456  -1.399  0.00  0.00    +0.145 HD
ENDBRANCH  15  24
BRANCH  16  27
ATOM     27  C   UNL     1      -2.757  -7.223  -1.111  0.00  0.00    +0.101 C 
ATOM     28  N   UNL     1      -3.128  -8.205  -1.547  0.00  0.00    -0.191 NA
ENDBRANCH  16  27
TORSDOF 3
