REMARK  Name = ZINC38666748
REMARK  9 active torsions:
REMARK  status: ('A' for Active; 'I' for Inactive)
REMARK    1  A    between atoms: C_1  and  C_2
REMARK    2  A    between atoms: C_7  and  N_8
REMARK    3  A    between atoms: N_11  and  C_12
REMARK    4  A    between atoms: C_12  and  C_13
REMARK    5  A    between atoms: C_13  and  C_15
REMARK    6  A    between atoms: C_13  and  N_24
REMARK    7  A    between atoms: C_18  and  N_21
REMARK    8  A    between atoms: N_21  and  C_22
REMARK    9  A    between atoms: N_21  and  C_23
REMARK                            x       y       z     vdW  Elec       q    Type
REMARK                         _______ _______ _______ _____ _____    ______ ____
ROOT
ATOM      1  C   UNL     1      -0.301   0.072   7.405  0.00  0.00    +0.121 C 
ENDROOT
BRANCH   1   2
ATOM      2  N   UNL     1       0.906   0.876   7.613  0.00  0.00    -0.321 N 
ATOM      3  C   UNL     1       2.167   0.700   6.888  0.00  0.00    +0.110 C 
ATOM      4  C   UNL     1       3.112   1.769   7.459  0.00  0.00    +0.056 C 
ATOM      5  C   UNL     1       2.285   2.492   8.498  0.00  0.00    -0.025 A 
ATOM      6  C   UNL     1       1.020   1.925   8.527  0.00  0.00    +0.033 A 
ATOM      7  C   UNL     1       0.069   2.434   9.413  0.00  0.00    +0.023 A 
ATOM      8  C   UNL     1       0.386   3.489  10.242  0.00  0.00    +0.002 A 
ATOM      9  C   UNL     1       1.649   4.050  10.203  0.00  0.00    +0.000 A 
ATOM     10  C   UNL     1       2.599   3.545   9.335  0.00  0.00    +0.005 A 
ENDBRANCH   1   2
BRANCH   1  11
ATOM     11  C   UNL     1      -0.583  -0.740   8.643  0.00  0.00    -0.025 A 
ATOM     12  C   UNL     1       0.465  -1.255   9.384  0.00  0.00    +0.007 A 
ATOM     13  C   UNL     1       0.209  -2.000  10.519  0.00  0.00    +0.023 A 
ATOM     14  C   UNL     1      -1.102  -2.232  10.915  0.00  0.00    +0.029 A 
ATOM     15  C   UNL     1      -2.152  -1.713  10.168  0.00  0.00    +0.023 A 
ATOM     16  C   UNL     1      -1.889  -0.965   9.038  0.00  0.00    +0.007 A 
BRANCH  14  17
ATOM     17  N   UNL     1      -1.363  -2.985  12.062  0.00  0.00    -0.336 N 
ATOM     18  C   UNL     1      -0.258  -3.426  12.917  0.00  0.00    +0.129 C 
ATOM     19  C   UNL     1      -2.743  -3.333  12.411  0.00  0.00    +0.129 C 
ENDBRANCH  14  17
ENDBRANCH   1  11
BRANCH   1  20
ATOM     20  C   UNL     1      -0.089  -0.868   6.216  0.00  0.00    +0.133 C 
BRANCH  20  24
ATOM     21  N   UNL     1       0.903   0.012   2.787  0.00  0.00    -0.269 N 
ATOM     22  C   UNL     1       0.543  -0.707   3.869  0.00  0.00    +0.304 C 
ATOM     23  O   UNL     1       0.435  -1.915   3.787  0.00  0.00    -0.253 OA
ATOM     24  N   UNL     1       0.302  -0.086   5.040  0.00  0.00    -0.297 N 
ATOM     25  H   UNL     1       1.055   0.966   2.867  0.00  0.00    +0.156 HD
ATOM     26  H   UNL     1       0.388   0.878   5.105  0.00  0.00    +0.150 HD
BRANCH  21  33
ATOM     27  C   UNL     1       0.190   1.459   0.443  0.00  0.00    +0.045 C 
ATOM     28  C   UNL     1       0.722   0.051   0.379  0.00  0.00    -0.029 A 
ATOM     29  C   UNL     1       0.881  -0.573  -0.844  0.00  0.00    +0.005 A 
ATOM     30  C   UNL     1       1.369  -1.865  -0.904  0.00  0.00    +0.000 A 
ATOM     31  C   UNL     1       1.699  -2.538   0.259  0.00  0.00    +0.002 A 
ATOM     32  C   UNL     1       1.542  -1.920   1.484  0.00  0.00    +0.023 A 
ATOM     33  C   UNL     1       1.058  -0.619   1.547  0.00  0.00    +0.038 A 
ENDBRANCH  21  33
ENDBRANCH  20  24
ENDBRANCH   1  20
TORSDOF 6
