REMARK  Name = ZINC13608991
REMARK  3 active torsions:
REMARK  status: ('A' for Active; 'I' for Inactive)
REMARK    1  A    between atoms: C_5  and  C_7
REMARK    2  A    between atoms: N_12  and  C_15
REMARK    3  A    between atoms: C_20  and  N_21
REMARK                            x       y       z     vdW  Elec       q    Type
REMARK                         _______ _______ _______ _____ _____    ______ ____
ROOT
ATOM      1  C   UNL     1       6.487   0.296  -0.127  0.00  0.00    +0.249 C 
ATOM      2  O   UNL     1       6.863   1.006  -1.041  0.00  0.00    -0.270 OA
ATOM      3  N   UNL     1       5.357  -0.426  -0.256  0.00  0.00    -0.294 N 
ATOM      4  C   UNL     1       4.948  -1.380   0.786  0.00  0.00    +0.127 C 
ATOM      5  C   UNL     1       4.656  -2.730   0.123  0.00  0.00    +0.124 C 
ATOM      6  N   UNL     1       3.684  -2.540  -0.961  0.00  0.00    -0.325 N 
ATOM      7  C   UNL     1       4.226  -1.676  -2.018  0.00  0.00    +0.124 C 
ATOM      8  C   UNL     1       4.500  -0.282  -1.442  0.00  0.00    +0.127 C 
ENDROOT
BRANCH   1  13
ATOM      9  C   UNL     1       7.362   0.239   3.523  0.00  0.00    +0.001 A 
ATOM     10  C   UNL     1       8.738   0.096   3.470  0.00  0.00    +0.003 A 
ATOM     11  C   UNL     1       9.385   0.017   2.251  0.00  0.00    +0.039 A 
ATOM     12  C   UNL     1       8.660   0.082   1.075  0.00  0.00    +0.135 A 
ATOM     13  C   UNL     1       7.270   0.227   1.123  0.00  0.00    +0.072 A 
ATOM     14  C   UNL     1       6.626   0.310   2.360  0.00  0.00    +0.016 A 
ATOM     15  F   UNL     1       9.293   0.006  -0.116  0.00  0.00    -0.205 F 
ENDBRANCH   1  13
BRANCH   6  16
ATOM     16  C   UNL     1       3.268  -3.771  -1.483  0.00  0.00    +0.051 A 
ATOM     17  C   UNL     1       4.194  -4.637  -2.045  0.00  0.00    +0.025 A 
ATOM     18  C   UNL     1       3.781  -5.852  -2.560  0.00  0.00    +0.002 A 
ATOM     19  C   UNL     1       2.446  -6.207  -2.517  0.00  0.00    +0.002 A 
ATOM     20  C   UNL     1       1.516  -5.352  -1.955  0.00  0.00    +0.024 A 
ATOM     21  C   UNL     1       1.921  -4.130  -1.441  0.00  0.00    +0.046 A 
BRANCH  21  22
ATOM     22  N   UNL     1       0.980  -3.260  -0.875  0.00  0.00    -0.357 N 
ATOM     23  H   UNL     1       1.265  -2.407  -0.512  0.00  0.00    +0.142 HD
ATOM     24  H   UNL     1       0.043  -3.509  -0.849  0.00  0.00    +0.142 HD
ENDBRANCH  21  22
ENDBRANCH   6  16
TORSDOF 3
