REMARK  Name = ZINC04773507
REMARK  5 active torsions:
REMARK  status: ('A' for Active; 'I' for Inactive)
REMARK    1  A    between atoms: N_13  and  C1*_14
REMARK    2  A    between atoms: C2*_16  and  O2*_26
REMARK    3  A    between atoms: C3*_18  and  O3*_25
REMARK    4  A    between atoms: C4*_20  and  C5*_23
REMARK    5  A    between atoms: C5*_23  and  O5*_24
REMARK                            x       y       z     vdW  Elec       q    Type
REMARK                         _______ _______ _______ _____ _____    ______ ____
ROOT
ATOM      1  C   UNL     1       1.170   1.783   0.001  0.00  0.00    +0.001 A 
ATOM      2  C   UNL     1       1.154   3.170   0.008  0.00  0.00    +0.002 A 
ATOM      3  C   UNL     1      -0.040   3.857   0.022  0.00  0.00    +0.026 A 
ATOM      4  C   UNL     1      -1.245   3.161   0.031  0.00  0.00    +0.052 A 
ATOM      5  C   UNL     1      -1.227   1.758   0.017  0.00  0.00    +0.008 A 
ATOM      6  C   UNL     1      -0.013   1.076   0.008  0.00  0.00    +0.010 A 
ATOM      7  C   UNL     1      -2.635   1.322   0.021  0.00  0.00    +0.008 A 
ATOM      8  C   UNL     1      -3.251   0.072   0.017  0.00  0.00    +0.010 A 
ATOM      9  C   UNL     1      -4.626  -0.013   0.022  0.00  0.00    +0.001 A 
ATOM     10  C   UNL     1      -5.397   1.139   0.033  0.00  0.00    +0.002 A 
ATOM     11  C   UNL     1      -4.801   2.382   0.037  0.00  0.00    +0.026 A 
ATOM     12  C   UNL     1      -3.413   2.489   0.031  0.00  0.00    +0.052 A 
ATOM     13  N   UNL     1      -2.563   3.580   0.045  0.00  0.00    -0.311 N 
ENDROOT
BRANCH  13  14
ATOM     14  C1* UNL     1      -2.997   4.979   0.056  0.00  0.00    +0.251 C 
ATOM     15  C2* UNL     1      -3.537   5.364   1.451  0.00  0.00    +0.195 C 
ATOM     16  C3* UNL     1      -4.722   6.308   1.148  0.00  0.00    +0.178 C 
ATOM     17  C4* UNL     1      -4.758   6.381  -0.395  0.00  0.00    +0.177 C 
ATOM     18  O4* UNL     1      -4.115   5.166  -0.839  0.00  0.00    -0.346 OA
BRANCH  16  19
ATOM     19  O3* UNL     1      -5.941   5.758   1.652  0.00  0.00    -0.386 OA
ATOM     20  H3* UNL     1      -6.718   6.310   1.489  0.00  0.00    +0.210 HD
ENDBRANCH  16  19
BRANCH  15  21
ATOM     21  O2* UNL     1      -2.533   6.047   2.206  0.00  0.00    -0.385 OA
ATOM     22  H2* UNL     1      -2.819   6.312   3.091  0.00  0.00    +0.210 HD
ENDBRANCH  15  21
BRANCH  17  23
ATOM     23  C5* UNL     1      -6.204   6.432  -0.892  0.00  0.00    +0.190 C 
BRANCH  23  24
ATOM     24  O5* UNL     1      -6.214   6.617  -2.309  0.00  0.00    -0.392 OA
ATOM     25  H5* UNL     1      -7.100   6.658  -2.693  0.00  0.00    +0.210 HD
ENDBRANCH  23  24
ENDBRANCH  17  23
ENDBRANCH  13  14
TORSDOF 5
