REMARK  Name = ZINC39593192
REMARK  4 active torsions:
REMARK  status: ('A' for Active; 'I' for Inactive)
REMARK    1  A    between atoms: C_3  and  O_26
REMARK    2  A    between atoms: C_4  and  C_8
REMARK    3  A    between atoms: N_9  and  N_10
REMARK    4  A    between atoms: C_11  and  C_17
REMARK                            x       y       z     vdW  Elec       q    Type
REMARK                         _______ _______ _______ _____ _____    ______ ____
ROOT
ATOM      1  N   UNL     1       6.029  -0.704   0.045  0.00  0.00    -0.175 N 
ATOM      2  C   UNL     1       7.366  -0.098   0.159  0.00  0.00    +0.230 C 
ATOM      3  N   UNL     1       8.275  -1.256   0.218  0.00  0.00    -0.242 N 
ATOM      4  N   UNL     1       7.462  -2.394   0.141  0.00  0.00    -0.160 NA
ATOM      5  C   UNL     1       6.214  -2.077   0.051  0.00  0.00    +0.206 C 
ATOM      6  S   UNL     1       4.904  -3.250  -0.058  0.00  0.00    -0.011 SA
ATOM      7  H   UNL     1       9.242  -1.235   0.295  0.00  0.00    +0.170 HD
ENDROOT
BRANCH   2   8
ATOM      8  C   UNL     1       7.671   0.764  -1.068  0.00  0.00    +0.197 C 
ATOM      9  C   UNL     1       9.069   1.341  -0.985  0.00  0.00    -0.017 C 
ATOM     10  C   UNL     1       8.892   2.661  -0.964  0.00  0.00    +0.065 C 
ATOM     11  C   UNL     1      10.237   3.360  -0.882  0.00  0.00    +0.057 C 
ATOM     12  C   UNL     1      11.230   2.269  -0.423  0.00  0.00    +0.011 C 
ATOM     13  C   UNL     1      10.531   0.982  -0.918  0.00  0.00    +0.035 C 
ATOM     14  N   UNL     1       7.563   2.950  -1.023  0.00  0.00    -0.158 NA
ATOM     15  N   UNL     1       6.819   1.966  -1.085  0.00  0.00    -0.176 NA
ENDBRANCH   2   8
BRANCH   1  17
ATOM     16  C   UNL     1       3.709  -0.687  -0.252  0.00  0.00    +0.142 C 
ATOM     17  N   UNL     1       4.807  -0.024  -0.045  0.00  0.00    -0.184 NA
BRANCH  16  21
ATOM     18  C   UNL     1      -0.029   1.329  -0.207  0.00  0.00    +0.019 A 
ATOM     19  C   UNL     1       1.136   2.041   0.015  0.00  0.00    +0.047 A 
ATOM     20  C   UNL     1       2.359   1.393   0.002  0.00  0.00    +0.126 A 
ATOM     21  C   UNL     1       2.412   0.013  -0.236  0.00  0.00    +0.037 A 
ATOM     22  C   UNL     1       1.230  -0.696  -0.459  0.00  0.00    +0.028 A 
ATOM     23  C   UNL     1       0.018  -0.034  -0.443  0.00  0.00    +0.019 A 
ATOM     24 BR   UNL     1      -1.583  -0.994  -0.744  0.00  0.00    -0.050 Br
BRANCH  20  25
ATOM     25  O   UNL     1       3.503   2.092   0.220  0.00  0.00    -0.506 OA
ATOM     26  H   UNL     1       3.763   2.143   1.150  0.00  0.00    +0.292 HD
ENDBRANCH  20  25
ENDBRANCH  16  21
ENDBRANCH   1  17
TORSDOF 4
