REMARK  Name = ZINC50594293
REMARK  7 active torsions:
REMARK  status: ('A' for Active; 'I' for Inactive)
REMARK    1  A    between atoms: C_1  and  C_2
REMARK    2  A    between atoms: C_2  and  N_3
REMARK    3  A    between atoms: C_7  and  C_9
REMARK    4  A    between atoms: C_9  and  C_11
REMARK    5  A    between atoms: C_9  and  N_12
REMARK    6  A    between atoms: C_13  and  C_19
REMARK    7  A    between atoms: C_15  and  C_17
REMARK                            x       y       z     vdW  Elec       q    Type
REMARK                         _______ _______ _______ _____ _____    ______ ____
ROOT
ATOM      1  N   UNL     1       0.711  -0.489   1.189  0.00  0.00    -0.299 N 
ATOM      2  C   UNL     1       0.854  -1.814   1.394  0.00  0.00    +0.306 C 
ATOM      3  O   UNL     1       0.395  -2.606   0.594  0.00  0.00    -0.252 OA
ATOM      4  N   UNL     1       1.506  -2.260   2.486  0.00  0.00    -0.238 N 
ATOM      5  C   UNL     1       1.649  -3.585   2.690  0.00  0.00    +0.245 C 
ATOM      6  O   UNL     1       1.191  -4.374   1.893  0.00  0.00    -0.273 OA
ATOM      7  H   UNL     1       1.077   0.142   1.827  0.00  0.00    +0.150 HD
ATOM      8  H   UNL     1       1.872  -1.628   3.124  0.00  0.00    +0.159 HD
ENDROOT
BRANCH   1  10
ATOM      9  C   UNL     1      -0.019   1.526   0.010  0.00  0.00    +0.024 C 
ATOM     10  C   UNL     1       0.002  -0.004   0.002  0.00  0.00    +0.102 C 
ENDBRANCH   1  10
BRANCH   5  11
ATOM     11  C   UNL     1       2.378  -4.084   3.911  0.00  0.00    +0.190 C 
ATOM     12  C   UNL     1       1.661  -3.590   5.170  0.00  0.00    +0.042 C 
BRANCH  11  13
ATOM     13  N   UNL     1       2.397  -5.549   3.903  0.00  0.00    -0.256 N 
ATOM     14  C   UNL     1       3.500  -6.328   3.894  0.00  0.00    +0.051 A 
ATOM     15  C   UNL     1       3.092  -7.619   3.890  0.00  0.00    +0.061 A 
ATOM     16  C   UNL     1       1.693  -7.628   3.897  0.00  0.00    +0.074 A 
ATOM     17  N   UNL     1       1.276  -6.388   3.910  0.00  0.00    -0.174 NA
ATOM     18  C   UNL     1       0.818  -8.855   3.894  0.00  0.00    +0.068 C 
ATOM     19 BR   UNL     1       4.215  -9.140   3.876  0.00  0.00    -0.047 Br
ATOM     20  C   UNL     1       4.928  -5.847   3.889  0.00  0.00    +0.066 C 
ENDBRANCH  11  13
ENDBRANCH   5  11
TORSDOF 3
