REMARK  Name = ZINC67266869
REMARK  7 active torsions:
REMARK  status: ('A' for Active; 'I' for Inactive)
REMARK    1  A    between atoms: C_1  and  S_2
REMARK    2  A    between atoms: S_2  and  N_5
REMARK    3  A    between atoms: N_5  and  C_6
REMARK    4  A    between atoms: C_6  and  C_7
REMARK    5  A    between atoms: C_7  and  C_8
REMARK    6  A    between atoms: C_8  and  N_9
REMARK    7  A    between atoms: C_10  and  C_12
REMARK                            x       y       z     vdW  Elec       q    Type
REMARK                         _______ _______ _______ _____ _____    ______ ____
ROOT
ATOM      1  C   UNL     1       6.698  -1.867  -5.527  0.00  0.00    +0.075 C 
ATOM      2  C   UNL     1       6.574  -3.365  -5.241  0.00  0.00    +0.015 C 
ATOM      3  C   UNL     1       7.148  -4.157  -6.418  0.00  0.00    +0.036 C 
ATOM      4  C   UNL     1       8.612  -3.781  -6.622  0.00  0.00    +0.112 C 
ATOM      5  C   UNL     1       8.754  -2.285  -6.882  0.00  0.00    +0.036 C 
ATOM      6  C   UNL     1       8.173  -1.501  -5.703  0.00  0.00    +0.015 C 
ATOM      7  C   UNL     1       9.434  -4.188  -5.420  0.00  0.00    +0.244 C 
ATOM      8  O   UNL     1       9.308  -3.798  -4.279  0.00  0.00    -0.273 OA
ATOM      9  N   UNL     1      10.335  -5.077  -5.885  0.00  0.00    -0.238 N 
ATOM     10  C   UNL     1      10.194  -5.282  -7.200  0.00  0.00    +0.307 C 
ATOM     11  O   UNL     1      10.891  -6.040  -7.845  0.00  0.00    -0.252 OA
ATOM     12  N   UNL     1       9.192  -4.553  -7.728  0.00  0.00    -0.285 N 
ATOM     13  H   UNL     1      11.004  -5.514  -5.334  0.00  0.00    +0.159 HD
ATOM     14  H   UNL     1       8.909  -4.541  -8.656  0.00  0.00    +0.151 HD
ENDROOT
BRANCH   1  16
ATOM     15  N   UNL     1       4.828  -1.247  -4.031  0.00  0.00    -0.315 N 
ATOM     16  C   UNL     1       6.122  -1.086  -4.374  0.00  0.00    +0.216 C 
ATOM     17  O   UNL     1       6.822  -0.314  -3.754  0.00  0.00    -0.276 OA
ATOM     18  H   UNL     1       4.268  -1.865  -4.526  0.00  0.00    +0.149 HD
BRANCH  15  19
ATOM     19  C   UNL     1       4.268  -0.488  -2.910  0.00  0.00    +0.105 C 
BRANCH  19  20
ATOM     20  C   UNL     1       2.792  -0.854  -2.733  0.00  0.00    +0.035 C 
BRANCH  20  21
ATOM     21  C   UNL     1       2.207  -0.061  -1.563  0.00  0.00    +0.107 C 
BRANCH  21  22
ATOM     22  N   UNL     1       0.795  -0.411  -1.394  0.00  0.00    -0.195 NA
ATOM     23  H   UNL     1       0.324  -0.881  -2.099  0.00  0.00    +0.148 HD
BRANCH  22  25
ATOM     24  C   UNL     1      -0.022   1.810   0.012  0.00  0.00    +0.214 C 
ATOM     25  S   UNL     1       0.002  -0.004   0.002  0.00  0.00    +0.027 S 
ATOM     26  O   UNL     1       0.835  -0.488   1.046  0.00  0.00    -0.158 OA
ATOM     27  O   UNL     1      -1.315  -0.510  -0.168  0.00  0.00    -0.158 OA
ENDBRANCH  22  25
ENDBRANCH  21  22
ENDBRANCH  20  21
ENDBRANCH  19  20
ENDBRANCH  15  19
ENDBRANCH   1  16
TORSDOF 6
