REMARK  Name = ZINC43172652
REMARK  6 active torsions:
REMARK  status: ('A' for Active; 'I' for Inactive)
REMARK    1  A    between atoms: C_1  and  C_2
REMARK    2  A    between atoms: C_7  and  N_8
REMARK    3  A    between atoms: N_11  and  C_12
REMARK    4  A    between atoms: C_12  and  C_13
REMARK    5  A    between atoms: C_16  and  S_19
REMARK    6  A    between atoms: S_19  and  N_22
REMARK                            x       y       z     vdW  Elec       q    Type
REMARK                         _______ _______ _______ _____ _____    ______ ____
ROOT
ATOM      1  N   UNL     1       0.026  -0.014   2.417  0.00  0.00    -0.269 N 
ATOM      2  C   UNL     1      -0.056  -0.693   3.579  0.00  0.00    +0.304 C 
ATOM      3  O   UNL     1      -0.040  -1.909   3.574  0.00  0.00    -0.252 OA
ATOM      4  N   UNL     1      -0.155  -0.025   4.745  0.00  0.00    -0.295 N 
ATOM      5  H   UNL     1       0.079   0.955   2.425  0.00  0.00    +0.156 HD
ATOM      6  H   UNL     1      -0.168   0.945   4.748  0.00  0.00    +0.151 HD
ENDROOT
BRANCH   1  13
ATOM      7  C   UNL     1      -1.266   1.183   0.182  0.00  0.00    +0.046 C 
ATOM      8  C   UNL     1      -0.585  -0.158   0.085  0.00  0.00    -0.028 A 
ATOM      9  C   UNL     1      -0.570  -0.840  -1.116  0.00  0.00    +0.025 A 
ATOM     10  C   UNL     1       0.055  -2.071  -1.206  0.00  0.00    +0.041 A 
ATOM     11  C   UNL     1       0.667  -2.623  -0.094  0.00  0.00    +0.022 A 
ATOM     12  C   UNL     1       0.655  -1.944   1.109  0.00  0.00    +0.025 A 
ATOM     13  C   UNL     1       0.034  -0.706   1.200  0.00  0.00    +0.038 A 
ATOM     14 CL   UNL     1       0.071  -2.926  -2.717  0.00  0.00    -0.084 Cl
ENDBRANCH   1  13
BRANCH   4  15
ATOM     15  C   UNL     1      -0.244  -0.763   6.007  0.00  0.00    +0.141 C 
BRANCH  15  16
ATOM     16  C   UNL     1      -0.345   0.211   7.152  0.00  0.00    -0.030 A 
ATOM     17  C   UNL     1       0.802   0.677   7.767  0.00  0.00    +0.007 A 
ATOM     18  C   UNL     1       0.709   1.570   8.818  0.00  0.00    +0.029 A 
ATOM     19  C   UNL     1      -0.531   1.998   9.254  0.00  0.00    +0.105 A 
ATOM     20  C   UNL     1      -1.678   1.532   8.639  0.00  0.00    +0.029 A 
ATOM     21  C   UNL     1      -1.585   0.642   7.585  0.00  0.00    +0.007 A 
BRANCH  19  22
ATOM     22  S   UNL     1      -0.650   3.135  10.594  0.00  0.00    +0.056 S 
ATOM     23  O   UNL     1      -1.939   2.958  11.165  0.00  0.00    -0.153 OA
ATOM     24  O   UNL     1       0.545   2.997  11.351  0.00  0.00    -0.153 OA
BRANCH  22  25
ATOM     25  N   UNL     1      -0.625   4.659   9.946  0.00  0.00    -0.204 NA
ATOM     26  H   UNL     1      -0.555   4.777   8.986  0.00  0.00    +0.144 HD
ATOM     27  H   UNL     1      -0.681   5.434  10.527  0.00  0.00    +0.144 HD
ENDBRANCH  22  25
ENDBRANCH  19  22
ENDBRANCH  15  16
ENDBRANCH   4  15
TORSDOF 5
