REMARK  Name = ZINC39678343
REMARK  10 active torsions:
REMARK  status: ('A' for Active; 'I' for Inactive)
REMARK    1  A    between atoms: C_1  and  C_2
REMARK    2  A    between atoms: C_4  and  C_11
REMARK    3  A    between atoms: N_5  and  C_7
REMARK    4  A    between atoms: C_7  and  C_8
REMARK    5  A    between atoms: C_7  and  C_9
REMARK    6  A    between atoms: C_7  and  C_10
REMARK    7  A    between atoms: C_15  and  C_24
REMARK    8  A    between atoms: N_26  and  C_27
REMARK    9  A    between atoms: C_27  and  C_28
REMARK   10  A    between atoms: C_33  and  N_34
REMARK                            x       y       z     vdW  Elec       q    Type
REMARK                         _______ _______ _______ _____ _____    ______ ____
ROOT
ATOM      1  C   UNL     1      -0.519  -3.616  -2.910  0.00  0.00    +0.265 C 
ATOM      2  O   UNL     1      -0.644  -3.672  -4.118  0.00  0.00    -0.268 OA
ATOM      3  N   UNL     1      -0.548  -4.746  -2.176  0.00  0.00    -0.295 N 
ATOM      4  C   UNL     1      -0.559  -4.870  -0.699  0.00  0.00    +0.121 C 
ATOM      5  C   UNL     1      -1.534  -6.035  -0.413  0.00  0.00    +0.100 C 
ATOM      6  C   UNL     1      -1.540  -6.869  -1.705  0.00  0.00    -0.004 C 
ATOM      7  C   UNL     1      -0.583  -6.146  -2.664  0.00  0.00    +0.115 C 
ATOM      8  C   UNL     1      -1.039  -8.282  -1.423  0.00  0.00    -0.010 C 
ATOM      9  C   UNL     1      -1.108  -9.109  -2.710  0.00  0.00    -0.082 C 
ATOM     10  N   UNL     1      -2.493  -9.147  -3.196  0.00  0.00    +0.379 N 
ATOM     11  C   UNL     1      -2.935  -7.793  -3.552  0.00  0.00    -0.082 C 
ATOM     12  C   UNL     1      -2.943  -6.911  -2.301  0.00  0.00    -0.010 C 
ATOM     13  H   UNL     1      -2.547  -9.742  -4.009  0.00  0.00    -0.086 HD
ATOM     14  H   UNL     1      -3.092  -9.515  -2.472  0.00  0.00    -0.086 HD
ENDROOT
BRANCH   1  18
ATOM     15  C   UNL     1       0.345   0.043   0.494  0.00  0.00    +0.067 C 
ATOM     16  C   UNL     1       0.038  -0.706  -0.777  0.00  0.00    +0.061 A 
ATOM     17  C   UNL     1      -0.029  -2.094  -0.917  0.00  0.00    +0.057 A 
ATOM     18  C   UNL     1      -0.337  -2.314  -2.249  0.00  0.00    +0.124 A 
ATOM     19  N   UNL     1      -0.436  -1.080  -2.826  0.00  0.00    -0.254 N 
ATOM     20  N   UNL     1      -0.218  -0.172  -1.944  0.00  0.00    -0.175 NA
BRANCH  19  21
ATOM     21  C   UNL     1      -0.749  -0.831  -4.235  0.00  0.00    +0.056 C 
ATOM     22  C   UNL     1      -2.082  -1.493  -4.587  0.00  0.00    +0.036 C 
ATOM     23  C   UNL     1      -0.850   0.677  -4.476  0.00  0.00    +0.036 C 
ATOM     24  C   UNL     1       0.358  -1.414  -5.115  0.00  0.00    +0.036 C 
ENDBRANCH  19  21
ENDBRANCH   1  18
BRANCH   5  25
ATOM     25  C   UNL     1      -2.914  -5.504  -0.123  0.00  0.00    +0.218 C 
ATOM     26  O   UNL     1      -3.230  -4.396  -0.502  0.00  0.00    -0.275 OA
ATOM     27  N   UNL     1      -3.798  -6.260   0.559  0.00  0.00    -0.311 N 
ATOM     28  H   UNL     1      -3.525  -7.119   0.918  0.00  0.00    +0.149 HD
BRANCH  27  29
ATOM     29  C   UNL     1      -5.170  -5.785   0.755  0.00  0.00    +0.141 C 
BRANCH  29  30
ATOM     30  C   UNL     1      -5.912  -6.750   1.643  0.00  0.00    -0.009 A 
ATOM     31  C   UNL     1      -6.821  -7.635   1.096  0.00  0.00    +0.007 A 
ATOM     32  C   UNL     1      -7.503  -8.520   1.910  0.00  0.00    +0.000 A 
ATOM     33  C   UNL     1      -7.278  -8.524   3.274  0.00  0.00    +0.002 A 
ATOM     34  C   UNL     1      -6.371  -7.643   3.828  0.00  0.00    +0.023 A 
ATOM     35  C   UNL     1      -5.680  -6.755   3.013  0.00  0.00    +0.034 A 
BRANCH  35  36
ATOM     36  N   UNL     1      -4.758  -5.866   3.569  0.00  0.00    -0.330 N 
ATOM     37  C   UNL     1      -5.168  -4.513   3.967  0.00  0.00    +0.105 C 
ATOM     38  C   UNL     1      -4.767  -4.285   5.428  0.00  0.00    +0.019 C 
ATOM     39  C   UNL     1      -3.271  -4.561   5.591  0.00  0.00    +0.003 C 
ATOM     40  C   UNL     1      -2.977  -6.019   5.231  0.00  0.00    +0.019 C 
ATOM     41  C   UNL     1      -3.359  -6.269   3.773  0.00  0.00    +0.105 C 
ENDBRANCH  35  36
ENDBRANCH  29  30
ENDBRANCH  27  29
ENDBRANCH   5  25
TORSDOF 6
