REMARK  Name = ZINC48547056
REMARK  6 active torsions:
REMARK  status: ('A' for Active; 'I' for Inactive)
REMARK    1  A    between atoms: C_1  and  C_2
REMARK    2  A    between atoms: C_2  and  O_4
REMARK    3  A    between atoms: O_4  and  C_5
REMARK    4  A    between atoms: C_9  and  C_34
REMARK    5  A    between atoms: C_14  and  C_33
REMARK    6  A    between atoms: C_26  and  O_32
REMARK                            x       y       z     vdW  Elec       q    Type
REMARK                         _______ _______ _______ _____ _____    ______ ____
ROOT
ATOM      1  C   UNL     1       0.020  -2.094  -1.097  0.00  0.00    +0.180 C 
ATOM      2  C   UNL     1       0.741  -2.658  -2.322  0.00  0.00    +0.046 C 
ATOM      3  C   UNL     1       0.050  -2.175  -3.597  0.00  0.00    +0.015 C 
ATOM      4  C   UNL     1      -1.393  -2.666  -3.657  0.00  0.00    -0.008 C 
ATOM      5  C   UNL     1      -2.102  -2.193  -4.905  0.00  0.00    +0.003 C 
ATOM      6  C   UNL     1      -1.151  -1.821  -6.034  0.00  0.00    +0.005 C 
ATOM      7  C   UNL     1      -0.493  -0.471  -5.852  0.00  0.00    +0.010 C 
ATOM      8  C   UNL     1      -1.395   0.673  -5.459  0.00  0.00    +0.009 C 
ATOM      9  C   UNL     1      -2.642   0.281  -4.672  0.00  0.00    +0.004 C 
ATOM     10  C   UNL     1      -3.135  -1.112  -4.704  0.00  0.00    +0.000 C 
ATOM     11  C   UNL     1      -4.076  -1.455  -3.552  0.00  0.00    +0.031 C 
ATOM     12  C   UNL     1      -3.278  -1.771  -2.324  0.00  0.00    -0.027 C 
ATOM     13  C   UNL     1      -2.096  -2.317  -2.377  0.00  0.00    -0.064 C 
ATOM     14  C   UNL     1      -1.412  -2.630  -1.058  0.00  0.00    +0.075 C 
ATOM     15  C   UNL     1      -2.542   0.932  -3.278  0.00  0.00    +0.039 C 
ATOM     16  C   UNL     1      -1.780   2.216  -3.629  0.00  0.00    +0.158 C 
ATOM     17  C   UNL     1      -0.660   1.667  -4.566  0.00  0.00    +0.155 C 
ATOM     18  C   UNL     1      -0.006   2.877  -5.158  0.00  0.00    +0.170 C 
ATOM     19  O   UNL     1       0.163   3.082  -6.337  0.00  0.00    -0.294 OA
ATOM     20  C   UNL     1       0.504   3.882  -4.122  0.00  0.00    +0.105 C 
ATOM     21  C   UNL     1      -0.561   4.147  -3.062  0.00  0.00    +0.168 C 
ATOM     22  O   UNL     1      -1.158   2.927  -2.587  0.00  0.00    -0.373 OA
ATOM     23  C   UNL     1      -1.889   1.358  -6.743  0.00  0.00    +0.015 C 
ATOM     24  C   UNL     1      -1.358  -4.201  -3.740  0.00  0.00    +0.016 C 
ENDROOT
BRANCH  17  25
ATOM     25  O   UNL     1       0.315   0.997  -3.749  0.00  0.00    -0.378 OA
ATOM     26  H   UNL     1       0.809   1.586  -3.163  0.00  0.00    +0.211 HD
ENDBRANCH  17  25
BRANCH   1  27
ATOM     27  O   UNL     1       0.000  -0.669  -1.164  0.00  0.00    -0.461 OA
BRANCH  27  29
ATOM     28  C   UNL     1      -0.018   1.503   0.010  0.00  0.00    +0.136 C 
ATOM     29  C   UNL     1       0.002  -0.004   0.002  0.00  0.00    +0.304 C 
ATOM     30  O   UNL     1       0.020  -0.614   1.045  0.00  0.00    -0.251 OA
ENDBRANCH  27  29
ENDBRANCH   1  27
TORSDOF 3
