REMARK  Name = ZINC61888037
REMARK  5 active torsions:
REMARK  status: ('A' for Active; 'I' for Inactive)
REMARK    1  A    between atoms: C_3  and  C_20
REMARK    2  A    between atoms: C_5  and  N_8
REMARK    3  A    between atoms: N_8  and  S_9
REMARK    4  A    between atoms: S_9  and  C_12
REMARK    5  A    between atoms: N_21  and  O_22
REMARK                            x       y       z     vdW  Elec       q    Type
REMARK                         _______ _______ _______ _____ _____    ______ ____
ROOT
ATOM      1  N   UNL     1       2.709  -1.250   0.394  0.00  0.00    -0.191 NA
ATOM      2  H   UNL     1       3.245  -0.861  -0.315  0.00  0.00    +0.148 HD
ENDROOT
BRANCH   1   6
ATOM      3  C   UNL     1      -0.208   0.946   0.384  0.00  0.00    +0.002 C 
ATOM      4  C   UNL     1       1.060   1.834   0.337  0.00  0.00    +0.013 C 
ATOM      5  C   UNL     1       2.116   1.027   1.119  0.00  0.00    +0.074 C 
ATOM      6  C   UNL     1       1.678  -0.447   1.057  0.00  0.00    +0.086 C 
ATOM      7  C   UNL     1       0.371  -0.484   0.239  0.00  0.00    +0.021 C 
BRANCH   5   8
ATOM      8  C   UNL     1       3.470   1.191   0.478  0.00  0.00    +0.136 C 
ATOM      9  N   UNL     1       4.529   1.265   1.215  0.00  0.00    -0.076 NA
ATOM     10  N   UNL     1       3.579   1.262  -0.893  0.00  0.00    -0.344 N 
ATOM     11  H   UNL     1       2.784   1.207  -1.446  0.00  0.00    +0.144 HD
ATOM     12  H   UNL     1       4.451   1.368  -1.305  0.00  0.00    +0.144 HD
BRANCH   9  13
ATOM     13  O   UNL     1       4.418   1.180   2.624  0.00  0.00    -0.408 OA
ATOM     14  H   UNL     1       5.252   1.322   3.093  0.00  0.00    +0.328 HD
ENDBRANCH   9  13
ENDBRANCH   5   8
ENDBRANCH   1   6
BRANCH   1  15
ATOM     15  S   UNL     1       2.958  -2.821   0.854  0.00  0.00    +0.033 S 
ATOM     16  O   UNL     1       1.666  -3.411   0.844  0.00  0.00    -0.158 OA
ATOM     17  O   UNL     1       3.978  -3.295  -0.014  0.00  0.00    -0.158 OA
BRANCH  15  18
ATOM     18  C   UNL     1       3.583  -2.715   2.554  0.00  0.00    +0.151 C 
ATOM     19  C   UNL     1       4.910  -1.962   2.555  0.00  0.00    +0.050 C 
ATOM     20  C   UNL     1       5.319  -1.627   3.992  0.00  0.00    +0.168 C 
ATOM     21  S   UNL     1       5.589  -3.176   4.903  0.00  0.00    -0.031 S 
ATOM     22  O   UNL     1       5.692  -2.873   6.288  0.00  0.00    -0.174 OA
ATOM     23  O   UNL     1       6.640  -3.895   4.271  0.00  0.00    -0.174 OA
ATOM     24  C   UNL     1       4.027  -4.059   4.618  0.00  0.00    +0.168 C 
ATOM     25  C   UNL     1       3.762  -4.124   3.112  0.00  0.00    +0.050 C 
ENDBRANCH  15  18
ENDBRANCH   1  15
TORSDOF 5
