REMARK  Name = ZINC05702596
REMARK  7 active torsions:
REMARK  status: ('A' for Active; 'I' for Inactive)
REMARK    1  A    between atoms: C_1  and  C_2
REMARK    2  A    between atoms: C_2  and  C_4
REMARK    3  A    between atoms: C_2  and  S_11
REMARK    4  A    between atoms: N_9  and  C_10
REMARK    5  A    between atoms: S_11  and  C_12
REMARK    6  A    between atoms: C_15  and  S_18
REMARK    7  A    between atoms: S_18  and  N_21
REMARK                            x       y       z     vdW  Elec       q    Type
REMARK                         _______ _______ _______ _____ _____    ______ ____
ROOT
ATOM      1  C   UNL     1       0.002  -0.004   0.002  0.00  0.00    +0.098 A 
ATOM      2  C   UNL     1      -0.017   1.388   0.010  0.00  0.00    +0.037 A 
ATOM      3  C   UNL     1       1.182   2.076   0.002  0.00  0.00    +0.032 A 
ATOM      4  C   UNL     1       2.365   1.348  -0.013  0.00  0.00    +0.124 A 
ATOM      5  C   UNL     1       2.310  -0.031  -0.020  0.00  0.00    +0.140 A 
ATOM      6  N   UNL     1       1.151  -0.662  -0.013  0.00  0.00    -0.247 NA
ENDROOT
BRANCH   4   7
ATOM      7  S   UNL     1       3.920   2.177  -0.023  0.00  0.00    +0.062 S 
ATOM      8  O   UNL     1       3.698   3.464   0.537  0.00  0.00    -0.153 OA
ATOM      9  O   UNL     1       4.869   1.266   0.514  0.00  0.00    -0.153 OA
BRANCH   7  10
ATOM     10  N   UNL     1       4.338   2.416  -1.608  0.00  0.00    -0.177 NA
ATOM     11  C   UNL     1       5.114   1.399  -2.281  0.00  0.00    +0.109 C 
ATOM     12  C   UNL     1       6.620   1.673  -2.086  0.00  0.00    +0.017 C 
ATOM     13  C   UNL     1       7.030   2.849  -2.868  0.00  0.00    +0.001 C 
ATOM     14  C   UNL     1       6.351   4.149  -2.450  0.00  0.00    +0.001 C 
ATOM     15  C   UNL     1       5.019   4.265  -3.150  0.00  0.00    +0.017 C 
ATOM     16  C   UNL     1       3.907   3.661  -2.273  0.00  0.00    +0.109 C 
ENDBRANCH   7  10
ENDBRANCH   4   7
BRANCH   1  17
ATOM     17  S   UNL     1      -1.516  -0.898   0.011  0.00  0.00    -0.093 S 
BRANCH  17  19
ATOM     18  C   UNL     1      -0.260  -2.960   1.296  0.00  0.00    +0.029 C 
ATOM     19  C   UNL     1      -1.001  -2.638  -0.003  0.00  0.00    +0.136 C 
BRANCH  19  20
ATOM     20  C   UNL     1      -2.217  -3.520  -0.120  0.00  0.00    +0.233 C 
ATOM     21  O   UNL     1      -3.311  -3.087   0.171  0.00  0.00    -0.274 OA
ATOM     22  N   UNL     1      -2.088  -4.791  -0.550  0.00  0.00    -0.239 N 
ATOM     23  C   UNL     1      -3.175  -5.581  -0.655  0.00  0.00    +0.306 C 
ATOM     24  O   UNL     1      -4.272  -5.146  -0.362  0.00  0.00    -0.252 OA
ATOM     25  N   UNL     1      -3.046  -6.852  -1.084  0.00  0.00    -0.302 N 
ATOM     26  C   UNL     1      -4.228  -7.710  -1.198  0.00  0.00    +0.129 C 
ATOM     27  H   UNL     1      -1.213  -5.138  -0.783  0.00  0.00    +0.159 HD
ATOM     28  H   UNL     1      -2.171  -7.198  -1.317  0.00  0.00    +0.150 HD
ENDBRANCH  19  20
ENDBRANCH  17  19
ENDBRANCH   1  17
TORSDOF 5
