REMARK  Name = ZINC16937531
REMARK  9 active torsions:
REMARK  status: ('A' for Active; 'I' for Inactive)
REMARK    1  A    between atoms: C_1  and  C_2
REMARK    2  A    between atoms: C_2  and  C_3
REMARK    3  A    between atoms: C_3  and  C_5
REMARK    4  A    between atoms: C_3  and  N_7
REMARK    5  A    between atoms: C_11  and  C_12
REMARK    6  A    between atoms: C_16  and  O_18
REMARK    7  A    between atoms: O_18  and  C_19
REMARK    8  A    between atoms: C_19  and  C_21
REMARK    9  A    between atoms: C_19  and  C_22
REMARK                            x       y       z     vdW  Elec       q    Type
REMARK                         _______ _______ _______ _____ _____    ______ ____
ROOT
ATOM      1  N   UNL     1       1.540   1.495   0.571  0.00  0.00    -0.241 N 
ATOM      2  C   UNL     1       1.836   2.655   1.132  0.00  0.00    +0.259 C 
ATOM      3  O   UNL     1       1.025   3.267   1.802  0.00  0.00    -0.269 OA
ATOM      4  C   UNL     1       3.203   3.171   0.903  0.00  0.00    +0.077 C 
ATOM      5  C   UNL     1       3.780   4.315   1.346  0.00  0.00    +0.028 C 
ATOM      6  S   UNL     1       3.884   1.871  -0.118  0.00  0.00    -0.061 S 
ATOM      7  C   UNL     1       2.443   0.818  -0.167  0.00  0.00    +0.121 C 
ATOM      8  S   UNL     1       2.253  -0.687  -0.961  0.00  0.00    -0.027 S 
ENDROOT
BRANCH   5   9
ATOM      9  C   UNL     1       5.213   4.551   1.118  0.00  0.00    -0.020 A 
ATOM     10  C   UNL     1       5.774   5.801   1.403  0.00  0.00    +0.008 A 
ATOM     11  C   UNL     1       7.119   6.017   1.188  0.00  0.00    +0.004 A 
ATOM     12  C   UNL     1       7.917   5.002   0.691  0.00  0.00    +0.046 A 
ATOM     13  C   UNL     1       7.371   3.758   0.404  0.00  0.00    +0.122 A 
ATOM     14  C   UNL     1       6.024   3.526   0.620  0.00  0.00    +0.053 A 
BRANCH  13  15
ATOM     15  O   UNL     1       8.161   2.766  -0.085  0.00  0.00    -0.478 OA
BRANCH  15  16
ATOM     16  C   UNL     1       9.562   3.034  -0.167  0.00  0.00    +0.282 C 
ATOM     17  C   UNL     1       9.859   3.806  -1.454  0.00  0.00    +0.064 C 
BRANCH  16  18
ATOM     18  C   UNL     1      10.322   1.733  -0.175  0.00  0.00    +0.395 C 
ATOM     19  O   UNL     1       9.724   0.683  -0.208  0.00  0.00    -0.242 OA
ATOM     20  O   UNL     1      11.664   1.739  -0.146  0.00  0.00    -0.242 OA
ENDBRANCH  16  18
ENDBRANCH  15  16
ENDBRANCH  13  15
ENDBRANCH   5   9
BRANCH   1  21
ATOM     21  C   UNL     1       0.201   0.930   0.759  0.00  0.00    +0.195 C 
BRANCH  21  22
ATOM     22  C   UNL     1       0.314  -0.412   1.435  0.00  0.00    +0.376 C 
ATOM     23  O   UNL     1       1.400  -0.851   1.730  0.00  0.00    -0.244 OA
ATOM     24  O   UNL     1      -0.793  -1.120   1.711  0.00  0.00    -0.244 OA
ENDBRANCH  21  22
BRANCH  21  26
ATOM     25  C   UNL     1      -0.704   2.135  -1.234  0.00  0.00    +0.006 C 
ATOM     26  C   UNL     1      -0.477   0.760  -0.602  0.00  0.00    +0.031 C 
ENDBRANCH  21  26
ENDBRANCH   1  21
TORSDOF 7
