REMARK  Name = ZINC66602057
REMARK  5 active torsions:
REMARK  status: ('A' for Active; 'I' for Inactive)
REMARK    1  A    between atoms: C_1  and  N_2
REMARK    2  A    between atoms: C_3  and  C_20
REMARK    3  A    between atoms: C_4  and  C_7
REMARK    4  A    between atoms: N_9  and  N_10
REMARK    5  A    between atoms: C_11  and  C_13
REMARK                            x       y       z     vdW  Elec       q    Type
REMARK                         _______ _______ _______ _____ _____    ______ ____
ROOT
ATOM      1  C   UNL     1       0.039  -3.294  -1.522  0.00  0.00    +0.264 C 
ATOM      2  O   UNL     1       0.032  -3.176  -2.732  0.00  0.00    -0.269 OA
ATOM      3  N   UNL     1       0.059  -4.521  -0.965  0.00  0.00    -0.230 N 
ATOM      4  H   UNL     1       0.065  -4.615   0.001  0.00  0.00    +0.173 HD
ENDROOT
BRANCH   1   8
ATOM      5  C   UNL     1      -0.018   1.461   0.010  0.00  0.00    +0.173 C 
ATOM      6  N   UNL     1       0.002  -0.004   0.002  0.00  0.00    -0.265 N 
ATOM      7  C   UNL     1       0.008  -0.782  -1.092  0.00  0.00    +0.116 A 
ATOM      8  C   UNL     1       0.027  -2.095  -0.665  0.00  0.00    +0.084 A 
ATOM      9  C   UNL     1       0.034  -2.074   0.748  0.00  0.00    +0.148 A 
ATOM     10  N   UNL     1       0.025  -0.828   1.133  0.00  0.00    -0.179 NA
BRANCH   7  11
ATOM     11  C   UNL     1      -0.005  -0.310  -2.523  0.00  0.00    +0.390 C 
ATOM     12  F   UNL     1       0.638   0.929  -2.611  0.00  0.00    -0.202 F 
ATOM     13  F   UNL     1       0.663  -1.240  -3.327  0.00  0.00    -0.202 F 
ENDBRANCH   7  11
ENDBRANCH   1   8
BRANCH   3  14
ATOM     14  N   UNL     1       0.070  -5.661  -1.780  0.00  0.00    -0.229 N 
ATOM     15  C   UNL     1       0.089  -6.888  -1.222  0.00  0.00    +0.276 C 
ATOM     16  O   UNL     1       0.097  -7.006  -0.011  0.00  0.00    -0.267 OA
ATOM     17  H   UNL     1       0.064  -5.567  -2.745  0.00  0.00    +0.173 HD
BRANCH  15  18
ATOM     18  C   UNL     1       0.101  -8.081  -2.075  0.00  0.00    +0.104 A 
ATOM     19  C   UNL     1       0.115  -9.390  -1.644  0.00  0.00    +0.047 A 
ATOM     20  C   UNL     1       0.123 -10.199  -2.786  0.00  0.00    +0.036 A 
ATOM     21  C   UNL     1       0.114  -9.386  -3.870  0.00  0.00    +0.098 A 
ATOM     22  N   UNL     1       0.095  -8.097  -3.451  0.00  0.00    -0.356 N 
ATOM     23  H   UNL     1       0.081  -7.316  -4.026  0.00  0.00    +0.166 HD
ATOM     24 BR   UNL     1       0.143 -12.090  -2.811  0.00  0.00    -0.049 Br
ENDBRANCH  15  18
ENDBRANCH   3  14
TORSDOF 4
