REMARK  Name = ZINC37552908
REMARK  6 active torsions:
REMARK  status: ('A' for Active; 'I' for Inactive)
REMARK    1  A    between atoms: C_3  and  S_8
REMARK    2  A    between atoms: S_8  and  N_11
REMARK    3  A    between atoms: N_11  and  C_12
REMARK    4  A    between atoms: C_15  and  C_17
REMARK    5  A    between atoms: C_18  and  C_19
REMARK    6  A    between atoms: C_19  and  N_20
REMARK                            x       y       z     vdW  Elec       q    Type
REMARK                         _______ _______ _______ _____ _____    ______ ____
ROOT
ATOM      1  C   UNL     1       5.488   3.246   1.856  0.00  0.00    +0.202 A 
ATOM      2  N   UNL     1       6.358   3.781   1.023  0.00  0.00    -0.229 NA
ATOM      3  C   UNL     1       7.426   4.412   1.462  0.00  0.00    +0.137 A 
ATOM      4  C   UNL     1       7.583   4.483   2.824  0.00  0.00    +0.083 A 
ATOM      5  S   UNL     1       6.125   3.609   3.371  0.00  0.00    -0.041 S 
ENDROOT
BRANCH   4   6
ATOM      6  C   UNL     1       8.625   5.093   3.593  0.00  0.00    -0.059 C 
ATOM      7  C   UNL     1       9.480   5.593   4.224  0.00  0.00    -0.116 C 
BRANCH   7   8
ATOM      8  C   UNL     1      10.551   6.220   5.015  0.00  0.00    +0.005 C 
BRANCH   8   9
ATOM      9  N   UNL     1      10.277   6.032   6.446  0.00  0.00    +0.385 N 
ATOM     10  H   UNL     1      11.012   6.462   6.988  0.00  0.00    -0.089 HD
ATOM     11  H   UNL     1       9.393   6.460   6.678  0.00  0.00    -0.089 HD
ATOM     12  H   UNL     1      10.239   5.046   6.654  0.00  0.00    -0.089 HD
ENDBRANCH   8   9
ENDBRANCH   7   8
ENDBRANCH   4   6
BRANCH   1  13
ATOM     13  N   UNL     1       4.326   2.557   1.556  0.00  0.00    -0.070 NA
BRANCH  13  14
ATOM     14  S   UNL     1       3.891   2.315  -0.023  0.00  0.00    +0.093 S 
ATOM     15  O   UNL     1       4.872   1.456  -0.588  0.00  0.00    -0.148 OA
ATOM     16  O   UNL     1       3.597   3.595  -0.564  0.00  0.00    -0.148 OA
BRANCH  14  19
ATOM     17  C   UNL     1      -0.017   1.380   0.010  0.00  0.00    +0.040 A 
ATOM     18  C   UNL     1       1.171   2.087   0.002  0.00  0.00    +0.031 A 
ATOM     19  C   UNL     1       2.377   1.412  -0.013  0.00  0.00    +0.111 A 
ATOM     20  C   UNL     1       2.397   0.030  -0.021  0.00  0.00    +0.031 A 
ATOM     21  C   UNL     1       1.211  -0.679  -0.014  0.00  0.00    +0.040 A 
ATOM     22  C   UNL     1       0.002  -0.004   0.002  0.00  0.00    +0.124 A 
ATOM     23  F   UNL     1      -1.158  -0.696   0.009  0.00  0.00    -0.205 F 
ENDBRANCH  14  19
ENDBRANCH  13  14
ENDBRANCH   1  13
TORSDOF 6
