REMARK  Name = ZINC37578641
REMARK  10 active torsions:
REMARK  status: ('A' for Active; 'I' for Inactive)
REMARK    1  A    between atoms: C_1  and  C_2
REMARK    2  A    between atoms: C_5  and  S_12
REMARK    3  A    between atoms: C_6  and  C_8
REMARK    4  A    between atoms: C_9  and  C_10
REMARK    5  A    between atoms: C_10  and  O_11
REMARK    6  A    between atoms: S_12  and  N_15
REMARK    7  A    between atoms: N_15  and  C_16
REMARK    8  A    between atoms: N_15  and  C_17
REMARK    9  A    between atoms: C_17  and  C_18
REMARK   10  A    between atoms: N_20  and  C_21
REMARK                            x       y       z     vdW  Elec       q    Type
REMARK                         _______ _______ _______ _____ _____    ______ ____
ROOT
ATOM      1  C   UNL     1      -0.044   1.493  -0.537  0.00  0.00    +0.044 C 
ATOM      2  C   UNL     1      -0.013  -0.008  -0.410  0.00  0.00    -0.049 A 
ATOM      3  C   UNL     1      -0.548  -0.798  -1.412  0.00  0.00    +0.005 A 
ATOM      4  C   UNL     1      -0.523  -2.176  -1.303  0.00  0.00    +0.030 A 
ATOM      5  C   UNL     1       0.036  -2.773  -0.192  0.00  0.00    +0.121 A 
ATOM      6  C   UNL     1       0.578  -1.983   0.822  0.00  0.00    +0.052 A 
ATOM      7  C   UNL     1       0.555  -0.593   0.704  0.00  0.00    +0.022 A 
ENDROOT
BRANCH   5   8
ATOM      8  S   UNL     1       0.066  -4.530  -0.054  0.00  0.00    +0.062 S 
ATOM      9  O   UNL     1      -0.324  -4.839   1.277  0.00  0.00    -0.153 OA
ATOM     10  O   UNL     1      -0.623  -5.038  -1.188  0.00  0.00    -0.153 OA
BRANCH   8  11
ATOM     11  N   UNL     1       1.645  -5.006  -0.207  0.00  0.00    -0.171 NA
ATOM     12  C   UNL     1       2.430  -5.333   0.985  0.00  0.00    +0.132 C 
BRANCH  11  13
ATOM     13  C   UNL     1       2.256  -5.100  -1.535  0.00  0.00    +0.204 C 
BRANCH  13  14
ATOM     14  C   UNL     1       2.989  -3.820  -1.843  0.00  0.00    +0.229 C 
ATOM     15  O   UNL     1       2.999  -2.917  -1.033  0.00  0.00    -0.274 OA
ATOM     16  N   UNL     1       3.632  -3.677  -3.019  0.00  0.00    -0.317 N 
ATOM     17  C   UNL     1       4.344  -2.433  -3.318  0.00  0.00    +0.128 C 
ATOM     18  H   UNL     1       3.624  -4.399  -3.667  0.00  0.00    +0.148 HD
ENDBRANCH  13  14
ENDBRANCH  11  13
ENDBRANCH   8  11
ENDBRANCH   5   8
BRANCH   6  19
ATOM     19  C   UNL     1       1.160  -2.596   1.978  0.00  0.00    -0.062 C 
ATOM     20  C   UNL     1       1.637  -3.099   2.926  0.00  0.00    -0.069 C 
BRANCH  20  21
ATOM     21  C   UNL     1       2.236  -3.729   4.114  0.00  0.00    +0.244 C 
BRANCH  21  22
ATOM     22  O   UNL     1       2.716  -2.716   5.000  0.00  0.00    -0.383 OA
ATOM     23  H   UNL     1       3.124  -3.060   5.806  0.00  0.00    +0.211 HD
ENDBRANCH  21  22
ENDBRANCH  20  21
ENDBRANCH   6  19
TORSDOF 7
