REMARK  Name = ZINC37409648
REMARK  2 active torsions:
REMARK  status: ('A' for Active; 'I' for Inactive)
REMARK    1  A    between atoms: C_4  and  N_21
REMARK    2  A    between atoms: C_5  and  C_7
REMARK                            x       y       z     vdW  Elec       q    Type
REMARK                         _______ _______ _______ _____ _____    ______ ____
ROOT
ATOM      1  C   UNL     1       1.285  -2.158  -0.043  0.00  0.00    +0.249 C 
ATOM      2  O   UNL     1       2.356  -2.733  -0.004  0.00  0.00    -0.270 OA
ATOM      3  N   UNL     1       0.143  -2.866  -0.151  0.00  0.00    -0.294 N 
ATOM      4  C   UNL     1      -1.144  -2.189  -0.366  0.00  0.00    +0.108 C 
ATOM      5  C   UNL     1      -2.135  -2.658   0.703  0.00  0.00    +0.019 C 
ATOM      6  C   UNL     1      -2.214  -4.186   0.692  0.00  0.00    +0.007 C 
ATOM      7  C   UNL     1      -0.834  -4.766   1.025  0.00  0.00    +0.010 C 
ATOM      8  C   UNL     1       0.157  -4.330  -0.062  0.00  0.00    +0.079 C 
ATOM      9  C   UNL     1       1.562  -4.824   0.269  0.00  0.00    +0.023 C 
ATOM     10  C   UNL     1       2.000  -4.275   1.628  0.00  0.00    +0.002 C 
ATOM     11  C   UNL     1       1.021  -4.754   2.704  0.00  0.00    +0.000 C 
ATOM     12  C   UNL     1      -0.394  -4.237   2.392  0.00  0.00    +0.005 C 
ENDROOT
BRANCH   1  17
ATOM     13  C   UNL     1       0.540   1.420  -0.895  0.00  0.00    +0.001 A 
ATOM     14  C   UNL     1       1.143   2.084   0.161  0.00  0.00    +0.002 A 
ATOM     15  C   UNL     1       1.793   1.377   1.152  0.00  0.00    +0.023 A 
ATOM     16  C   UNL     1       1.846  -0.010   1.096  0.00  0.00    +0.037 A 
ATOM     17  C   UNL     1       1.236  -0.686   0.029  0.00  0.00    +0.057 A 
ATOM     18  C   UNL     1       0.582   0.045  -0.967  0.00  0.00    +0.015 A 
BRANCH  16  19
ATOM     19  N   UNL     1       2.501  -0.724   2.092  0.00  0.00    -0.357 N 
ATOM     20  H   UNL     1       2.995  -0.253   2.781  0.00  0.00    +0.142 HD
ATOM     21  H   UNL     1       2.463  -1.693   2.098  0.00  0.00    +0.142 HD
ENDBRANCH  16  19
ENDBRANCH   1  17
TORSDOF 2
