REMARK  Name = ZINC12279415
REMARK  7 active torsions:
REMARK  status: ('A' for Active; 'I' for Inactive)
REMARK    1  A    between atoms: C_3  and  O_25
REMARK    2  A    between atoms: C_4  and  C_16
REMARK    3  A    between atoms: C_6  and  C_7
REMARK    4  A    between atoms: C_16  and  N_50
REMARK    5  A    between atoms: C_17  and  C_18
REMARK    6  A    between atoms: C_17  and  N_50
REMARK    7  A    between atoms: C_18  and  O_24
REMARK                            x       y       z     vdW  Elec       q    Type
REMARK                         _______ _______ _______ _____ _____    ______ ____
ROOT
ATOM      1  C   UNL     1      -2.068   2.526   8.383  0.00  0.00    +0.012 A 
ATOM      2  C   UNL     1      -1.284   3.383   7.639  0.00  0.00    +0.046 A 
ATOM      3  C   UNL     1      -0.607   2.913   6.522  0.00  0.00    +0.118 A 
ATOM      4  C   UNL     1      -0.725   1.582   6.144  0.00  0.00    -0.022 A 
ATOM      5  C   UNL     1      -1.507   0.721   6.884  0.00  0.00    +0.013 A 
ATOM      6  C   UNL     1      -2.184   1.188   8.009  0.00  0.00    -0.017 A 
ENDROOT
BRANCH   6   7
ATOM      7  C   UNL     1      -3.026   0.263   8.807  0.00  0.00    -0.014 A 
ATOM      8  C   UNL     1      -3.142  -1.074   8.434  0.00  0.00    +0.012 A 
ATOM      9  C   UNL     1      -3.925  -1.934   9.177  0.00  0.00    +0.050 A 
ATOM     10  C   UNL     1      -4.599  -1.471  10.297  0.00  0.00    +0.166 A 
ATOM     11  C   UNL     1      -4.487  -0.134  10.675  0.00  0.00    +0.167 A 
ATOM     12  C   UNL     1      -3.698   0.730   9.935  0.00  0.00    +0.058 A 
ATOM     13  O   UNL     1      -5.238   0.066  11.797  0.00  0.00    -0.453 OA
ATOM     14  C   UNL     1      -6.134  -1.059  11.866  0.00  0.00    +0.466 C 
ATOM     15  O   UNL     1      -5.420  -2.106  11.183  0.00  0.00    -0.453 OA
ENDBRANCH   6   7
BRANCH   3  16
ATOM     16  O   UNL     1       0.169   3.758   5.795  0.00  0.00    -0.507 OA
ATOM     17  H   UNL     1      -0.302   4.208   5.080  0.00  0.00    +0.292 HD
ENDBRANCH   3  16
BRANCH   4  18
ATOM     18  C   UNL     1       0.008   1.078   4.928  0.00  0.00    -0.043 C 
BRANCH  18  19
ATOM     19  N   UNL     1      -0.685   1.552   3.715  0.00  0.00    +0.384 N 
ATOM     20  H   UNL     1      -0.699   2.579   3.713  0.00  0.00    -0.085 HD
ATOM     21  H   UNL     1      -1.649   1.197   3.714  0.00  0.00    -0.085 HD
BRANCH  19  22
ATOM     22  C   UNL     1       0.011   1.072   2.506  0.00  0.00    -0.047 C 
BRANCH  22  23
ATOM     23  C   UNL     1      -0.729   1.579   1.267  0.00  0.00    +0.051 C 
ATOM     24  C   UNL     1      -0.013   1.086   0.008  0.00  0.00    +0.033 C 
ATOM     25  C   UNL     1      -0.753   1.593  -1.232  0.00  0.00    +0.003 C 
ATOM     26  C   UNL     1      -0.773   3.123  -1.223  0.00  0.00    +0.000 C 
ATOM     27  C   UNL     1      -1.490   3.616   0.036  0.00  0.00    +0.003 C 
ATOM     28  C   UNL     1      -0.750   3.109   1.275  0.00  0.00    +0.033 C 
BRANCH  23  29
ATOM     29  O   UNL     1      -2.070   1.085   1.277  0.00  0.00    -0.390 OA
ATOM     30  H   UNL     1      -2.584   1.359   2.048  0.00  0.00    +0.210 HD
ENDBRANCH  23  29
ENDBRANCH  22  23
ENDBRANCH  19  22
ENDBRANCH  18  19
ENDBRANCH   4  18
TORSDOF 7
