REMARK  Name = ZINC38050007
REMARK  6 active torsions:
REMARK  status: ('A' for Active; 'I' for Inactive)
REMARK    1  A    between atoms: C_1  and  C_2
REMARK    2  A    between atoms: C_5  and  C_22
REMARK    3  A    between atoms: C_6  and  S_9
REMARK    4  A    between atoms: S_9  and  N_12
REMARK    5  A    between atoms: N_12  and  C_13
REMARK    6  A    between atoms: C_19  and  N_21
REMARK                            x       y       z     vdW  Elec       q    Type
REMARK                         _______ _______ _______ _____ _____    ______ ____
ROOT
ATOM      1  S   UNL     1      -0.528  -2.733   2.604  0.00  0.00    +0.060 S 
ATOM      2  O   UNL     1      -1.290  -1.829   3.393  0.00  0.00    -0.153 OA
ATOM      3  O   UNL     1      -1.051  -3.973   2.149  0.00  0.00    -0.153 OA
ENDROOT
BRANCH   1   9
ATOM      4  C   UNL     1       1.280  -2.577  -2.300  0.00  0.00    +0.045 C 
ATOM      5  C   UNL     1       0.810  -1.831  -1.078  0.00  0.00    -0.029 A 
ATOM      6  C   UNL     1       0.778  -0.449  -1.082  0.00  0.00    +0.025 A 
ATOM      7  C   UNL     1       0.347   0.236   0.040  0.00  0.00    +0.046 A 
ATOM      8  C   UNL     1      -0.053  -0.462   1.166  0.00  0.00    -0.004 A 
ATOM      9  C   UNL     1      -0.021  -1.844   1.170  0.00  0.00    +0.128 A 
ATOM     10  C   UNL     1       0.405  -2.529   0.046  0.00  0.00    +0.070 A 
ATOM     11 CL   UNL     1       0.439  -4.265   0.048  0.00  0.00    -0.081 Cl
ATOM     12  C   UNL     1      -0.522   0.284   2.388  0.00  0.00    +0.047 C 
ATOM     13 CL   UNL     1       0.307   1.971   0.035  0.00  0.00    -0.083 Cl
ENDBRANCH   1   9
BRANCH   1  14
ATOM     14  N   UNL     1       0.838  -3.084   3.471  0.00  0.00    -0.188 NA
ATOM     15  H   UNL     1       1.088  -4.008   3.629  0.00  0.00    +0.148 HD
BRANCH  14  16
ATOM     16  C   UNL     1       1.668  -2.000   4.001  0.00  0.00    +0.062 C 
ATOM     17  C   UNL     1       2.799  -1.696   3.016  0.00  0.00    +0.019 C 
ATOM     18  C   UNL     1       3.666  -0.563   3.569  0.00  0.00    +0.001 C 
ATOM     19  C   UNL     1       4.261  -0.986   4.913  0.00  0.00    -0.001 C 
ATOM     20  C   UNL     1       3.131  -1.291   5.898  0.00  0.00    -0.015 C 
ATOM     21  C   UNL     1       2.263  -2.423   5.345  0.00  0.00    -0.056 C 
BRANCH  21  22
ATOM     22  N   UNL     1       1.178  -2.715   6.291  0.00  0.00    +0.381 N 
ATOM     23  H   UNL     1       0.606  -3.462   5.926  0.00  0.00    -0.090 HD
ATOM     24  H   UNL     1       1.570  -2.994   7.178  0.00  0.00    -0.090 HD
ATOM     25  H   UNL     1       0.612  -1.890   6.419  0.00  0.00    -0.090 HD
ENDBRANCH  21  22
ENDBRANCH  14  16
ENDBRANCH   1  14
TORSDOF 4
