REMARK  Name = ZINC65512752
REMARK  5 active torsions:
REMARK  status: ('A' for Active; 'I' for Inactive)
REMARK    1  A    between atoms: C_6  and  N_7
REMARK    2  A    between atoms: C_8  and  C_10
REMARK    3  A    between atoms: C_10  and  N_11
REMARK    4  A    between atoms: N_14  and  C_15
REMARK    5  A    between atoms: C_15  and  C_16
REMARK                            x       y       z     vdW  Elec       q    Type
REMARK                         _______ _______ _______ _____ _____    ______ ____
ROOT
ATOM      1  N   UNL     1      -2.194  -4.261  -0.311  0.00  0.00    -0.291 N 
ATOM      2  C   UNL     1      -3.207  -5.144  -0.417  0.00  0.00    +0.300 C 
ATOM      3  O   UNL     1      -4.357  -4.750  -0.422  0.00  0.00    -0.253 OA
ATOM      4  N   UNL     1      -2.945  -6.462  -0.516  0.00  0.00    -0.295 N 
ATOM      5  H   UNL     1      -1.276  -4.575  -0.307  0.00  0.00    +0.151 HD
ATOM      6  H   UNL     1      -2.027  -6.776  -0.511  0.00  0.00    +0.151 HD
ENDROOT
BRANCH   1   7
ATOM      7  C   UNL     1      -2.479  -2.828  -0.204  0.00  0.00    +0.202 C 
BRANCH   7   9
ATOM      8  N   UNL     1      -1.200  -0.722   0.010  0.00  0.00    -0.284 N 
ATOM      9  C   UNL     1      -1.183  -2.065  -0.099  0.00  0.00    +0.234 C 
ATOM     10  O   UNL     1      -0.126  -2.659  -0.113  0.00  0.00    -0.274 OA
ATOM     11  H   UNL     1      -2.044  -0.252   0.098  0.00  0.00    +0.155 HD
BRANCH   8  17
ATOM     12  C   UNL     1       1.072  -0.453  -0.766  0.00  0.00    +0.025 A 
ATOM     13  C   UNL     1       2.256   0.257  -0.778  0.00  0.00    +0.022 A 
ATOM     14  C   UNL     1       2.377   1.416  -0.032  0.00  0.00    +0.041 A 
ATOM     15  C   UNL     1       1.312   1.866   0.729  0.00  0.00    +0.022 A 
ATOM     16  C   UNL     1       0.126   1.159   0.745  0.00  0.00    +0.025 A 
ATOM     17  C   UNL     1       0.002  -0.004  -0.004  0.00  0.00    +0.034 A 
ATOM     18 CL   UNL     1       3.867   2.306  -0.048  0.00  0.00    -0.084 Cl
ENDBRANCH   8  17
ENDBRANCH   7   9
ENDBRANCH   1   7
BRANCH   4  19
ATOM     19  C   UNL     1      -4.046  -7.421  -0.630  0.00  0.00    +0.142 C 
BRANCH  19  20
ATOM     20  C   UNL     1      -3.488  -8.818  -0.726  0.00  0.00    -0.012 A 
ATOM     21  C   UNL     1      -3.183  -9.368  -1.963  0.00  0.00    +0.010 A 
ATOM     22  C   UNL     1      -2.673 -10.654  -2.006  0.00  0.00    +0.047 A 
ATOM     23  C   UNL     1      -2.483 -11.346  -0.816  0.00  0.00    +0.139 A 
ATOM     24  N   UNL     1      -2.785 -10.787   0.344  0.00  0.00    -0.237 NA
ATOM     25  C   UNL     1      -3.268  -9.561   0.417  0.00  0.00    +0.118 A 
ATOM     26  N   UNL     1      -1.968 -12.646  -0.845  0.00  0.00    -0.290 N 
ATOM     27  C   UNL     1      -1.820 -13.489   0.227  0.00  0.00    +0.114 A 
ATOM     28  C   UNL     1      -1.292 -14.633  -0.247  0.00  0.00    +0.130 A 
ATOM     29  N   UNL     1      -1.119 -14.498  -1.571  0.00  0.00    -0.244 NA
ATOM     30  C   UNL     1      -1.525 -13.315  -1.942  0.00  0.00    +0.205 A 
ENDBRANCH  19  20
ENDBRANCH   4  19
TORSDOF 5
