REMARK  Name = ZINC40292017
REMARK  6 active torsions:
REMARK  status: ('A' for Active; 'I' for Inactive)
REMARK    1  A    between atoms: C_1  and  C_2
REMARK    2  A    between atoms: C_3  and  C_18
REMARK    3  A    between atoms: C_6  and  S_12
REMARK    4  A    between atoms: C_7  and  C_8
REMARK    5  A    between atoms: N_9  and  O_10
REMARK    6  A    between atoms: S_12  and  C_13
REMARK                            x       y       z     vdW  Elec       q    Type
REMARK                         _______ _______ _______ _____ _____    ______ ____
ROOT
ATOM      1  C   UNL     1      -0.018   1.503   0.010  0.00  0.00    +0.046 C 
ATOM      2  C   UNL     1       0.002  -0.004   0.002  0.00  0.00    -0.015 A 
ATOM      3  C   UNL     1       0.006  -0.712  -1.189  0.00  0.00    +0.064 A 
ATOM      4  N   UNL     1       0.024  -2.031  -1.176  0.00  0.00    -0.153 NA
ATOM      5  N   UNL     1       0.038  -2.712  -0.089  0.00  0.00    -0.142 NA
ATOM      6  C   UNL     1       0.036  -2.136   1.105  0.00  0.00    +0.135 A 
ATOM      7  C   UNL     1       0.023  -0.732   1.196  0.00  0.00    +0.056 A 
ATOM      8  C   UNL     1      -0.010   0.027  -2.502  0.00  0.00    +0.068 C 
ENDROOT
BRANCH   7   9
ATOM      9  C   UNL     1       0.027  -0.050   2.509  0.00  0.00    +0.165 C 
ATOM     10  N   UNL     1      -1.098   0.235   3.097  0.00  0.00    -0.071 NA
ATOM     11  N   UNL     1       1.228   0.285   3.112  0.00  0.00    -0.340 N 
ATOM     12  H   UNL     1       2.067   0.073   2.673  0.00  0.00    +0.144 HD
ATOM     13  H   UNL     1       1.230   0.733   3.973  0.00  0.00    +0.144 HD
BRANCH  10  14
ATOM     14  O   UNL     1      -1.095   0.888   4.354  0.00  0.00    -0.408 OA
ATOM     15  H   UNL     1      -1.977   1.058   4.711  0.00  0.00    +0.328 HD
ENDBRANCH  10  14
ENDBRANCH   7   9
BRANCH   6  16
ATOM     16  S   UNL     1       0.056  -3.122   2.566  0.00  0.00    -0.060 S 
BRANCH  16  17
ATOM     17  C   UNL     1       0.075  -4.777   1.963  0.00  0.00    +0.051 A 
ATOM     18  C   UNL     1       0.088  -5.946   2.664  0.00  0.00    +0.023 A 
ATOM     19  C   UNL     1       0.102  -7.140   1.967  0.00  0.00    +0.009 A 
ATOM     20  C   UNL     1       0.101  -7.113   0.613  0.00  0.00    +0.046 A 
ATOM     21  S   UNL     1       0.074  -5.360   0.276  0.00  0.00    -0.090 S 
ENDBRANCH  16  17
ENDBRANCH   6  16
TORSDOF 4
