REMARK  Name = ZINC39228095
REMARK  3 active torsions:
REMARK  status: ('A' for Active; 'I' for Inactive)
REMARK    1  A    between atoms: C_8  and  C_20
REMARK    2  A    between atoms: N_10  and  C_16
REMARK    3  A    between atoms: C_16  and  C_17
REMARK                            x       y       z     vdW  Elec       q    Type
REMARK                         _______ _______ _______ _____ _____    ______ ____
ROOT
ATOM      1  C   UNL     1      -0.017   1.384   0.010  0.00  0.00    +0.001 A 
ATOM      2  C   UNL     1       0.002  -0.004   0.002  0.00  0.00    +0.002 A 
ATOM      3  C   UNL     1      -1.174  -0.722   0.010  0.00  0.00    +0.026 A 
ATOM      4  C   UNL     1      -2.393  -0.053   0.025  0.00  0.00    +0.047 A 
ATOM      5  N   UNL     1      -3.705  -0.476   0.035  0.00  0.00    -0.356 N 
ATOM      6  C   UNL     1      -4.541   0.601   0.050  0.00  0.00    +0.042 A 
ATOM      7  H   UNL     1      -3.991  -1.403   0.032  0.00  0.00    +0.166 HD
ATOM      8  C   UNL     1      -6.052   0.593   0.067  0.00  0.00    +0.138 C 
ATOM      9  N   UNL     1      -6.519   1.925   0.483  0.00  0.00    -0.281 NA
ATOM     10  C   UNL     1      -5.899   2.989  -0.320  0.00  0.00    +0.090 C 
ATOM     11  C   UNL     1      -4.418   3.119   0.060  0.00  0.00    +0.053 C 
ATOM     12  C   UNL     1      -3.814   1.737   0.049  0.00  0.00    -0.016 A 
ATOM     13  C   UNL     1      -2.408   1.356   0.033  0.00  0.00    +0.003 A 
ATOM     14  C   UNL     1      -1.202   2.062   0.030  0.00  0.00    +0.010 A 
ENDROOT
BRANCH   8  15
ATOM     15  C   UNL     1      -6.543  -0.445   1.043  0.00  0.00    +0.022 A 
ATOM     16  C   UNL     1      -6.964  -0.064   2.303  0.00  0.00    +0.029 A 
ATOM     17  C   UNL     1      -7.416  -1.014   3.201  0.00  0.00    +0.045 A 
ATOM     18  C   UNL     1      -7.447  -2.350   2.841  0.00  0.00    +0.069 A 
ATOM     19  C   UNL     1      -7.026  -2.738   1.580  0.00  0.00    +0.168 A 
ATOM     20  C   UNL     1      -6.577  -1.780   0.674  0.00  0.00    +0.171 A 
ATOM     21  O   UNL     1      -6.228  -2.407  -0.487  0.00  0.00    -0.452 OA
ATOM     22  C   UNL     1      -6.089  -3.799  -0.145  0.00  0.00    +0.466 C 
ATOM     23  O   UNL     1      -6.957  -3.965   0.987  0.00  0.00    -0.453 OA
ATOM     24 CL   UNL     1      -7.944  -0.530   4.782  0.00  0.00    -0.083 Cl
ENDBRANCH   8  15
BRANCH   9  25
ATOM     25  C   UNL     1      -7.985   2.011   0.427  0.00  0.00    +0.181 C 
BRANCH  25  26
ATOM     26  C   UNL     1      -8.439   3.288   1.086  0.00  0.00    +0.225 C 
ATOM     27  O   UNL     1      -7.623   4.051   1.556  0.00  0.00    -0.275 OA
ATOM     28  N   UNL     1      -9.753   3.580   1.153  0.00  0.00    -0.328 N 
ATOM     29  H   UNL     1     -10.406   2.970   0.778  0.00  0.00    +0.145 HD
ATOM     30  H   UNL     1     -10.046   4.402   1.578  0.00  0.00    +0.145 HD
ENDBRANCH  25  26
ENDBRANCH   9  25
TORSDOF 3
