REMARK  Name = ZINC41418297
REMARK  7 active torsions:
REMARK  status: ('A' for Active; 'I' for Inactive)
REMARK    1  A    between atoms: C_1  and  C_2
REMARK    2  A    between atoms: C_3  and  S_9
REMARK    3  A    between atoms: C_4  and  C_8
REMARK    4  A    between atoms: S_9  and  N_12
REMARK    5  A    between atoms: N_12  and  C_13
REMARK    6  A    between atoms: C_13  and  C_14
REMARK    7  A    between atoms: N_17  and  C_22
REMARK                            x       y       z     vdW  Elec       q    Type
REMARK                         _______ _______ _______ _____ _____    ______ ____
ROOT
ATOM      1  C   UNL     1       2.255  -0.847  -4.224  0.00  0.00    +0.139 C 
ENDROOT
BRANCH   1   2
ATOM      2  C   UNL     1       3.734  -0.612  -4.533  0.00  0.00    +0.152 C 
ATOM      3  C   UNL     1       4.423  -1.952  -4.799  0.00  0.00    +0.146 C 
ATOM      4  N   UNL     1       5.872  -1.770  -4.835  0.00  0.00    -0.267 N 
ATOM      5  C   UNL     1       6.475  -0.694  -4.313  0.00  0.00    +0.246 C 
ATOM      6  O   UNL     1       7.685  -0.627  -4.349  0.00  0.00    -0.273 OA
ATOM      7  C   UNL     1       5.705   0.434  -3.685  0.00  0.00    +0.256 C 
ATOM      8  O   UNL     1       4.366   0.017  -3.411  0.00  0.00    -0.364 OA
BRANCH   4   9
ATOM      9  C   UNL     1       6.660  -2.757  -5.436  0.00  0.00    +0.038 A 
ATOM     10  C   UNL     1       7.134  -3.823  -4.683  0.00  0.00    +0.023 A 
ATOM     11  C   UNL     1       7.912  -4.796  -5.279  0.00  0.00    +0.003 A 
ATOM     12  C   UNL     1       8.219  -4.710  -6.625  0.00  0.00    +0.020 A 
ATOM     13  C   UNL     1       7.748  -3.649  -7.378  0.00  0.00    +0.043 A 
ATOM     14  C   UNL     1       6.964  -2.676  -6.788  0.00  0.00    +0.043 A 
ATOM     15 CL   UNL     1       8.137  -3.545  -9.067  0.00  0.00    -0.083 Cl
ENDBRANCH   4   9
ENDBRANCH   1   2
BRANCH   1  16
ATOM     16  N   UNL     1       1.575   0.442  -4.080  0.00  0.00    -0.187 NA
ATOM     17  H   UNL     1       2.093   1.254  -3.965  0.00  0.00    +0.148 HD
BRANCH  16  18
ATOM     18  S   UNL     1      -0.079   0.514  -4.113  0.00  0.00    +0.062 S 
ATOM     19  O   UNL     1      -0.496  -0.228  -5.250  0.00  0.00    -0.153 OA
ATOM     20  O   UNL     1      -0.430   1.879  -3.924  0.00  0.00    -0.153 OA
BRANCH  18  23
ATOM     21  C   UNL     1      -0.712   1.616  -1.083  0.00  0.00    +0.067 C 
ATOM     22  C   UNL     1      -0.904   0.174  -1.477  0.00  0.00    +0.060 A 
ATOM     23  C   UNL     1      -0.667  -0.357  -2.699  0.00  0.00    +0.148 A 
ATOM     24  C   UNL     1      -0.972  -1.721  -2.641  0.00  0.00    +0.086 A 
ATOM     25  N   UNL     1      -1.377  -1.998  -1.429  0.00  0.00    -0.177 NA
ATOM     26  N   UNL     1      -1.338  -0.819  -0.674  0.00  0.00    -0.280 N 
ATOM     27  H   UNL     1      -1.582  -0.731   0.261  0.00  0.00    +0.189 HD
ATOM     28  C   UNL     1      -0.855  -2.702  -3.780  0.00  0.00    +0.069 C 
ENDBRANCH  18  23
ENDBRANCH  16  18
ENDBRANCH   1  16
TORSDOF 5
