REMARK  Name = ZINC58880324
REMARK  7 active torsions:
REMARK  status: ('A' for Active; 'I' for Inactive)
REMARK    1  A    between atoms: N_4  and  C_6
REMARK    2  A    between atoms: C_9  and  C_28
REMARK    3  A    between atoms: C_11  and  N_12
REMARK    4  A    between atoms: N_15  and  C_16
REMARK    5  A    between atoms: C_16  and  C_17
REMARK    6  A    between atoms: C_17  and  C_19
REMARK    7  A    between atoms: C_17  and  O_27
REMARK                            x       y       z     vdW  Elec       q    Type
REMARK                         _______ _______ _______ _____ _____    ______ ____
ROOT
ATOM      1  N   UNL     1       4.112  -1.004  -0.227  0.00  0.00    -0.268 N 
ATOM      2  C   UNL     1       5.408  -1.312  -0.436  0.00  0.00    +0.304 C 
ATOM      3  O   UNL     1       5.735  -2.466  -0.631  0.00  0.00    -0.253 OA
ATOM      4  N   UNL     1       6.341  -0.339  -0.428  0.00  0.00    -0.296 N 
ATOM      5  H   UNL     1       3.840  -0.077  -0.148  0.00  0.00    +0.156 HD
ATOM      6  H   UNL     1       6.080   0.582  -0.272  0.00  0.00    +0.150 HD
ENDROOT
BRANCH   1  12
ATOM      7  C   UNL     1       1.868  -1.828  -0.614  0.00  0.00    +0.087 A 
ATOM      8  C   UNL     1       0.930  -2.844  -0.513  0.00  0.00    +0.030 A 
ATOM      9  C   UNL     1       1.274  -4.046   0.077  0.00  0.00    +0.014 A 
ATOM     10  C   UNL     1       2.552  -4.239   0.568  0.00  0.00    +0.057 A 
ATOM     11  C   UNL     1       3.494  -3.232   0.471  0.00  0.00    +0.037 A 
ATOM     12  C   UNL     1       3.159  -2.025  -0.123  0.00  0.00    +0.061 A 
BRANCH   7  16
ATOM     13  C   UNL     1       0.408   0.956  -2.255  0.00  0.00    +0.041 A 
ATOM     14  C   UNL     1       1.667   1.465  -1.922  0.00  0.00    +0.135 A 
ATOM     15  N   UNL     1       2.336   0.530  -1.297  0.00  0.00    -0.175 NA
ATOM     16  N   UNL     1       1.522  -0.607  -1.212  0.00  0.00    -0.238 N 
ATOM     17  C   UNL     1       0.343  -0.320  -1.808  0.00  0.00    +0.114 A 
ENDBRANCH   7  16
BRANCH  10  18
ATOM     18  C   UNL     1       2.920  -5.552   1.210  0.00  0.00    +0.417 C 
ATOM     19  F   UNL     1       1.812  -6.407   1.192  0.00  0.00    -0.166 F 
ATOM     20  F   UNL     1       3.973  -6.140   0.500  0.00  0.00    -0.166 F 
ATOM     21  F   UNL     1       3.315  -5.330   2.533  0.00  0.00    -0.166 F 
ENDBRANCH  10  18
ENDBRANCH   1  12
BRANCH   4  22
ATOM     22  C   UNL     1       7.749  -0.673  -0.655  0.00  0.00    +0.141 C 
BRANCH  22  23
ATOM     23  C   UNL     1       8.592   0.602  -0.595  0.00  0.00    +0.162 C 
BRANCH  23  24
ATOM     24  C   UNL     1      10.040   0.259  -0.828  0.00  0.00    -0.015 A 
ATOM     25  C   UNL     1      10.528   0.161  -2.118  0.00  0.00    +0.009 A 
ATOM     26  C   UNL     1      11.856  -0.154  -2.335  0.00  0.00    +0.041 A 
ATOM     27  C   UNL     1      12.700  -0.372  -1.260  0.00  0.00    +0.158 A 
ATOM     28  C   UNL     1      12.211  -0.274   0.034  0.00  0.00    +0.159 A 
ATOM     29  C   UNL     1      10.882   0.046   0.248  0.00  0.00    +0.047 A 
ATOM     30  F   UNL     1      13.033  -0.487   1.085  0.00  0.00    -0.202 F 
ATOM     31  F   UNL     1      13.998  -0.680  -1.470  0.00  0.00    -0.202 F 
ENDBRANCH  23  24
BRANCH  23  32
ATOM     32  O   UNL     1       8.150   1.513  -1.604  0.00  0.00    -0.386 OA
ATOM     33  H   UNL     1       8.220   1.167  -2.504  0.00  0.00    +0.210 HD
ENDBRANCH  23  32
ENDBRANCH  22  23
ENDBRANCH   4  22
TORSDOF 7
