REMARK  Name = ZINC00485468
REMARK  8 active torsions:
REMARK  status: ('A' for Active; 'I' for Inactive)
REMARK    1  A    between atoms: C_4  and  O_10
REMARK    2  A    between atoms: C_5  and  N_7
REMARK    3  A    between atoms: O_10  and  C_11
REMARK    4  A    between atoms: C_13  and  O_26
REMARK    5  A    between atoms: C_15  and  O_25
REMARK    6  A    between atoms: C_17  and  O_24
REMARK    7  A    between atoms: C_19  and  C_22
REMARK    8  A    between atoms: C_22  and  O_23
REMARK                            x       y       z     vdW  Elec       q    Type
REMARK                         _______ _______ _______ _____ _____    ______ ____
ROOT
ATOM      1  C   UNL     1       1.248   2.021   0.001  0.00  0.00    +0.339 C 
ATOM      2  C   UNL     1       1.040   3.515   0.260  0.00  0.00    +0.214 C 
ATOM      3  C   UNL     1       0.194   4.109  -0.871  0.00  0.00    +0.180 C 
ATOM      4  C   UNL     1       0.891   3.842  -2.208  0.00  0.00    +0.177 C 
ATOM      5  C   UNL     1       1.105   2.335  -2.372  0.00  0.00    +0.179 C 
ATOM      6  O   UNL     1       1.872   1.842  -1.272  0.00  0.00    -0.331 OA
ENDROOT
BRANCH   4   7
ATOM      7  O   UNL     1       0.076   4.328  -3.277  0.00  0.00    -0.386 OA
ATOM      8  H   UNL     1      -0.101   5.278  -3.236  0.00  0.00    +0.210 HD
ENDBRANCH   4   7
BRANCH   3   9
ATOM      9  O   UNL     1       0.056   5.517  -0.676  0.00  0.00    -0.386 OA
ATOM     10  H   UNL     1      -0.379   5.759   0.154  0.00  0.00    +0.210 HD
ENDBRANCH   3   9
BRANCH   2  11
ATOM     11  O   UNL     1       2.307   4.173   0.305  0.00  0.00    -0.383 OA
ATOM     12  H   UNL     1       2.897   3.844   0.996  0.00  0.00    +0.210 HD
ENDBRANCH   2  11
BRANCH   1  13
ATOM     13  O   UNL     1      -0.016   1.355   0.009  0.00  0.00    -0.459 OA
BRANCH  13  17
ATOM     14  C   UNL     1       0.040  -2.770  -0.012  0.00  0.00    +0.002 A 
ATOM     15  C   UNL     1       1.228  -2.064  -0.020  0.00  0.00    +0.004 A 
ATOM     16  C   UNL     1       1.212  -0.683  -0.013  0.00  0.00    +0.048 A 
ATOM     17  C   UNL     1       0.002  -0.004   0.002  0.00  0.00    +0.154 A 
ATOM     18  C   UNL     1      -1.189  -0.715   0.015  0.00  0.00    +0.168 A 
ATOM     19  C   UNL     1      -1.167  -2.096   0.003  0.00  0.00    +0.036 A 
BRANCH  18  20
ATOM     20  N   UNL     1      -2.482   0.005   0.037  0.00  0.00    +0.060 N 
ATOM     21  O   UNL     1      -3.527  -0.619   0.049  0.00  0.00    -0.126 OA
ATOM     22  O   UNL     1      -2.500   1.223   0.044  0.00  0.00    -0.126 OA
ENDBRANCH  18  20
ENDBRANCH  13  17
ENDBRANCH   1  13
BRANCH   5  23
ATOM     23  C   UNL     1       1.855   2.066  -3.678  0.00  0.00    +0.190 C 
BRANCH  23  24
ATOM     24  O   UNL     1       1.954   0.655  -3.889  0.00  0.00    -0.392 OA
ATOM     25  H   UNL     1       2.419   0.410  -4.700  0.00  0.00    +0.210 HD
ENDBRANCH  23  24
ENDBRANCH   5  23
TORSDOF 8
