REMARK  Name = ZINC44714182
REMARK  10 active torsions:
REMARK  status: ('A' for Active; 'I' for Inactive)
REMARK    1  A    between atoms: C_1  and  C_2
REMARK    2  A    between atoms: C_12  and  O_13
REMARK    3  A    between atoms: O_13  and  C_14
REMARK    4  A    between atoms: C_14  and  C_15
REMARK    5  A    between atoms: C_19  and  C_28
REMARK    6  A    between atoms: N_30  and  C_31
REMARK    7  A    between atoms: C_31  and  C_33
REMARK    8  A    between atoms: C_31  and  C_34
REMARK    9  A    between atoms: C_35  and  C_41
REMARK   10  A    between atoms: C_39  and  C_40
REMARK                            x       y       z     vdW  Elec       q    Type
REMARK                         _______ _______ _______ _____ _____    ______ ____
ROOT
ATOM      1  C   UNL     1       0.224  -6.169   3.551  0.00  0.00    +0.253 C 
ATOM      2  O   UNL     1       0.261  -6.501   2.385  0.00  0.00    -0.272 OA
ATOM      3  N   UNL     1       0.199  -7.107   4.518  0.00  0.00    -0.297 N 
ATOM      4  C   UNL     1       0.148  -6.898   5.984  0.00  0.00    +0.121 C 
ATOM      5  C   UNL     1      -0.808  -7.996   6.502  0.00  0.00    +0.100 C 
ATOM      6  C   UNL     1      -0.757  -9.098   5.430  0.00  0.00    -0.004 C 
ATOM      7  C   UNL     1       0.210  -8.581   4.356  0.00  0.00    +0.115 C 
ATOM      8  C   UNL     1      -2.142  -9.312   4.825  0.00  0.00    -0.010 C 
ATOM      9  C   UNL     1      -2.077 -10.450   3.803  0.00  0.00    -0.082 C 
ATOM     10  N   UNL     1      -1.615 -11.677   4.464  0.00  0.00    +0.379 N 
ATOM     11  C   UNL     1      -0.246 -11.493   4.961  0.00  0.00    -0.082 C 
ATOM     12  C   UNL     1      -0.233 -10.398   6.032  0.00  0.00    -0.010 C 
ATOM     13  H   UNL     1      -2.226 -11.892   5.237  0.00  0.00    -0.086 HD
ATOM     14  H   UNL     1      -1.631 -12.440   3.803  0.00  0.00    -0.086 HD
ENDROOT
BRANCH   5  15
ATOM     15  C   UNL     1      -2.208  -7.454   6.634  0.00  0.00    +0.219 C 
ATOM     16  O   UNL     1      -2.589  -6.573   5.892  0.00  0.00    -0.275 OA
ATOM     17  N   UNL     1      -3.036  -7.947   7.576  0.00  0.00    -0.308 N 
ATOM     18  H   UNL     1      -2.731  -8.651   8.169  0.00  0.00    +0.149 HD
BRANCH  17  19
ATOM     19  C   UNL     1      -4.396  -7.420   7.704  0.00  0.00    +0.104 C 
ATOM     20  C   UNL     1      -5.319  -8.145   6.723  0.00  0.00    +0.033 C 
BRANCH  19  21
ATOM     21  C   UNL     1      -4.889  -7.638   9.111  0.00  0.00    +0.015 A 
ATOM     22  C   UNL     1      -5.541  -6.731   9.876  0.00  0.00    +0.038 A 
ATOM     23  N   UNL     1      -5.808  -7.312  11.065  0.00  0.00    -0.281 N 
ATOM     24  H   UNL     1      -6.268  -6.898  11.812  0.00  0.00    +0.189 HD
ATOM     25  N   UNL     1      -5.304  -8.619  11.029  0.00  0.00    -0.179 NA
ATOM     26  C   UNL     1      -4.759  -8.815   9.856  0.00  0.00    +0.065 A 
ATOM     27  C   UNL     1      -4.101 -10.087   9.389  0.00  0.00    +0.068 C 
ATOM     28  C   UNL     1      -5.903  -5.325   9.473  0.00  0.00    +0.065 C 
ENDBRANCH  19  21
ENDBRANCH  17  19
ENDBRANCH   5  15
BRANCH   1  29
ATOM     29  C   UNL     1       0.207  -4.707   3.918  0.00  0.00    +0.324 C 
BRANCH  29  30
ATOM     30  O   UNL     1       0.239  -3.917   2.727  0.00  0.00    -0.479 OA
BRANCH  30  42
ATOM     31  C   UNL     1       0.268   2.026   0.900  0.00  0.00    +0.045 C 
ATOM     32  C   UNL     1       0.279   0.526   0.760  0.00  0.00    -0.033 A 
ATOM     33  C   UNL     1       0.318  -0.060  -0.464  0.00  0.00    +0.096 A 
ATOM     34  C   UNL     1       0.328  -1.468  -0.567  0.00  0.00    +0.338 A 
ATOM     35  O   UNL     1       0.364  -1.982  -1.671  0.00  0.00    -0.245 OA
ATOM     36  O   UNL     1       0.299  -2.254   0.519  0.00  0.00    -0.418 OA
ATOM     37  C   UNL     1       0.259  -1.735   1.765  0.00  0.00    +0.181 A 
ATOM     38  C   UNL     1       0.253  -0.341   1.942  0.00  0.00    +0.024 A 
ATOM     39  C   UNL     1       0.217   0.200   3.232  0.00  0.00    +0.012 A 
ATOM     40  C   UNL     1       0.193  -0.638   4.323  0.00  0.00    +0.004 A 
ATOM     41  C   UNL     1       0.205  -2.015   4.151  0.00  0.00    +0.049 A 
ATOM     42  C   UNL     1       0.229  -2.566   2.883  0.00  0.00    +0.164 A 
ENDBRANCH  30  42
ENDBRANCH  29  30
ENDBRANCH   1  29
TORSDOF 6
