REMARK  Name = ZINC61691031
REMARK  4 active torsions:
REMARK  status: ('A' for Active; 'I' for Inactive)
REMARK    1  A    between atoms: C_4  and  N_8
REMARK    2  A    between atoms: N_8  and  S_9
REMARK    3  A    between atoms: S_9  and  C_12
REMARK    4  A    between atoms: C_17  and  N_18
REMARK                            x       y       z     vdW  Elec       q    Type
REMARK                         _______ _______ _______ _____ _____    ______ ____
ROOT
ATOM      1  S   UNL     1       3.645  -2.307  -0.045  0.00  0.00    +0.096 S 
ATOM      2  O   UNL     1       3.113  -2.728   1.203  0.00  0.00    -0.148 OA
ATOM      3  O   UNL     1       3.088  -2.714  -1.288  0.00  0.00    -0.148 OA
ENDROOT
BRANCH   1   4
ATOM      4  C   UNL     1       5.336  -2.803  -0.065  0.00  0.00    +0.166 A 
ATOM      5  C   UNL     1       6.002  -3.498   0.948  0.00  0.00    +0.133 A 
ATOM      6  N   UNL     1       7.241  -3.686   0.573  0.00  0.00    -0.304 N 
ATOM      7  H   UNL     1       8.230  -3.107  -1.213  0.00  0.00    +0.188 HD
ATOM      8  N   UNL     1       7.410  -3.115  -0.695  0.00  0.00    -0.286 N 
ATOM      9  C   UNL     1       6.225  -2.582  -1.072  0.00  0.00    +0.137 A 
ATOM     10  H   UNL     1       7.926  -4.142   1.085  0.00  0.00    +0.186 HD
BRANCH   9  11
ATOM     11  N   UNL     1       5.964  -1.923  -2.271  0.00  0.00    -0.342 N 
ATOM     12  H   UNL     1       5.077  -1.572  -2.448  0.00  0.00    +0.144 HD
ATOM     13  H   UNL     1       6.668  -1.816  -2.929  0.00  0.00    +0.144 HD
ENDBRANCH   9  11
ENDBRANCH   1   4
BRANCH   1  14
ATOM     14  N   UNL     1       3.621  -0.651  -0.036  0.00  0.00    -0.096 NA
BRANCH  14  18
ATOM     15  C   UNL     1      -0.017   1.379   0.010  0.00  0.00    +0.017 A 
ATOM     16  C   UNL     1       1.170   2.090   0.002  0.00  0.00    +0.023 A 
ATOM     17  C   UNL     1       2.378   1.420  -0.013  0.00  0.00    +0.065 A 
ATOM     18  C   UNL     1       2.400   0.030  -0.021  0.00  0.00    +0.094 A 
ATOM     19  C   UNL     1       1.208  -0.680  -0.013  0.00  0.00    +0.043 A 
ATOM     20  C   UNL     1       0.002  -0.004   0.002  0.00  0.00    +0.020 A 
ATOM     21 BR   UNL     1      -1.623  -0.971   0.013  0.00  0.00    -0.050 Br
ATOM     22 CL   UNL     1       3.867   2.313  -0.023  0.00  0.00    -0.082 Cl
ENDBRANCH  14  18
ENDBRANCH   1  14
TORSDOF 4
