REMARK  Name = ZINC61817359
REMARK  3 active torsions:
REMARK  status: ('A' for Active; 'I' for Inactive)
REMARK    1  A    between atoms: C_4  and  C_8
REMARK    2  A    between atoms: C_6  and  N_7
REMARK    3  A    between atoms: C_8  and  N_9
REMARK                            x       y       z     vdW  Elec       q    Type
REMARK                         _______ _______ _______ _____ _____    ______ ____
ROOT
ATOM      1  C   UNL     1       3.717  -0.701  -0.038  0.00  0.00    +0.185 C 
ENDROOT
BRANCH   1   2
ATOM      2  N   UNL     1       4.349  -0.511  -1.346  0.00  0.00    -0.208 N 
ATOM      3  C   UNL     1       5.224   0.463  -1.678  0.00  0.00    +0.347 A 
ATOM      4  O   UNL     1       5.617   1.359  -0.951  0.00  0.00    -0.245 OA
ATOM      5  N   UNL     1       5.583   0.262  -2.956  0.00  0.00    -0.279 N 
ATOM      6  C   UNL     1       4.888  -0.831  -3.434  0.00  0.00    +0.134 A 
ATOM      7  N   UNL     1       4.163  -1.311  -2.483  0.00  0.00    -0.153 NA
ATOM      8  C   UNL     1       4.984  -1.328  -4.858  0.00  0.00    +0.076 C 
ATOM      9  C   UNL     1       6.264  -0.750  -5.478  0.00  0.00    +0.009 C 
ATOM     10  C   UNL     1       6.299   0.762  -5.232  0.00  0.00    +0.022 C 
ATOM     11  C   UNL     1       6.553   1.030  -3.744  0.00  0.00    +0.128 C 
ENDBRANCH   1   2
BRANCH   1  15
ATOM     12  C   UNL     1       6.319  -2.972   2.485  0.00  0.00    +0.024 A 
ATOM     13  C   UNL     1       5.562  -3.607   1.520  0.00  0.00    +0.022 A 
ATOM     14  C   UNL     1       4.720  -2.872   0.705  0.00  0.00    +0.046 A 
ATOM     15  C   UNL     1       4.635  -1.499   0.852  0.00  0.00    -0.006 A 
ATOM     16  C   UNL     1       5.390  -0.858   1.815  0.00  0.00    +0.029 A 
ATOM     17  C   UNL     1       6.235  -1.594   2.636  0.00  0.00    +0.025 A 
ATOM     18 CL   UNL     1       3.769  -3.674  -0.507  0.00  0.00    -0.083 Cl
BRANCH  17  19
ATOM     19  N   UNL     1       7.000  -0.949   3.611  0.00  0.00    -0.358 N 
ATOM     20  H   UNL     1       7.590  -1.463   4.184  0.00  0.00    +0.142 HD
ATOM     21  H   UNL     1       6.941   0.014   3.716  0.00  0.00    +0.142 HD
ENDBRANCH  17  19
ENDBRANCH   1  15
TORSDOF 3
