REMARK  Name = ZINC48896110
REMARK  2 active torsions:
REMARK  status: ('A' for Active; 'I' for Inactive)
REMARK    1  A    between atoms: C_2  and  N_19
REMARK    2  A    between atoms: C_3  and  N_12
REMARK                            x       y       z     vdW  Elec       q    Type
REMARK                         _______ _______ _______ _____ _____    ______ ____
ROOT
ATOM      1  C   UNL     1      -0.017   1.380   0.010  0.00  0.00    +0.072 A 
ATOM      2  C   UNL     1       1.176   2.088   0.002  0.00  0.00    +0.049 A 
ATOM      3  C   UNL     1       2.393   1.407  -0.013  0.00  0.00    +0.053 A 
ATOM      4  C   UNL     1       2.410   0.020  -0.020  0.00  0.00    +0.052 A 
ATOM      5  C   UNL     1       1.218  -0.685  -0.012  0.00  0.00    +0.078 A 
ATOM      6  C   UNL     1       0.002  -0.004   0.002  0.00  0.00    +0.144 A 
ATOM      7  O   UNL     1      -1.161  -0.712   0.007  0.00  0.00    -0.481 OA
ATOM      8  C   UNL     1      -1.158  -1.958  -0.695  0.00  0.00    +0.325 C 
ATOM      9  C   UNL     1       0.076  -2.742  -0.328  0.00  0.00    +0.255 C 
ATOM     10  O   UNL     1       0.044  -3.955  -0.311  0.00  0.00    -0.272 OA
ATOM     11  N   UNL     1       1.217  -2.090  -0.018  0.00  0.00    -0.280 N 
ATOM     12  H   UNL     1       2.024  -2.583   0.197  0.00  0.00    +0.155 HD
ENDROOT
BRANCH   3  13
ATOM     13  N   UNL     1       3.598   2.124  -0.022  0.00  0.00    -0.328 N 
ATOM     14  C   UNL     1       4.226   2.477   1.262  0.00  0.00    +0.106 C 
ATOM     15  C   UNL     1       5.760   2.280   1.348  0.00  0.00    +0.029 C 
ATOM     16  C   UNL     1       6.231   0.985   0.763  0.00  0.00    +0.071 C 
ATOM     17  S   UNL     1       6.572   1.191  -1.024  0.00  0.00    -0.159 S 
ATOM     18  C   UNL     1       5.002   1.291  -1.787  0.00  0.00    +0.088 C 
ATOM     19  C   UNL     1       4.179   2.483  -1.277  0.00  0.00    +0.116 C 
ENDBRANCH   3  13
BRANCH   2  20
ATOM     20  N   UNL     1       1.159   3.490   0.009  0.00  0.00    -0.356 N 
ATOM     21  H   UNL     1       0.313   3.965   0.020  0.00  0.00    +0.142 HD
ATOM     22  H   UNL     1       1.993   3.986   0.004  0.00  0.00    +0.142 HD
ENDBRANCH   2  20
TORSDOF 2
