REMARK  Name = ZINC18066460
REMARK  6 active torsions:
REMARK  status: ('A' for Active; 'I' for Inactive)
REMARK    1  A    between atoms: C_3  and  S_25
REMARK    2  A    between atoms: C_6  and  C_7
REMARK    3  A    between atoms: C_7  and  C_8
REMARK    4  A    between atoms: C_8  and  N_9
REMARK    5  A    between atoms: C_10  and  C_12
REMARK    6  A    between atoms: S_25  and  N_28
REMARK                            x       y       z     vdW  Elec       q    Type
REMARK                         _______ _______ _______ _____ _____    ______ ____
ROOT
ATOM      1  N   UNL     1      -3.117   3.063   7.351  0.00  0.00    -0.315 N 
ATOM      2  C   UNL     1      -2.629   2.802   8.580  0.00  0.00    +0.219 C 
ATOM      3  O   UNL     1      -1.564   2.235   8.702  0.00  0.00    -0.275 OA
ATOM      4  H   UNL     1      -4.083   3.577   7.241  0.00  0.00    +0.149 HD
ENDROOT
BRANCH   2   5
ATOM      5  C   UNL     1      -3.406   3.215   9.803  0.00  0.00    +0.049 C 
ATOM      6  C   UNL     1      -3.599   4.733   9.796  0.00  0.00    +0.019 C 
ATOM      7  C   UNL     1      -4.388   5.153  11.038  0.00  0.00    -0.008 C 
ATOM      8  C   UNL     1      -5.755   4.465  11.030  0.00  0.00    +0.007 C 
ATOM      9  C   UNL     1      -5.563   2.947  11.037  0.00  0.00    -0.008 C 
ATOM     10  C   UNL     1      -4.773   2.528   9.795  0.00  0.00    +0.019 C 
ATOM     11  C   UNL     1      -4.793   2.537  12.293  0.00  0.00    +0.021 C 
ATOM     12  C   UNL     1      -3.426   3.224  12.302  0.00  0.00    +0.028 C 
ATOM     13  C   UNL     1      -3.619   4.742  12.295  0.00  0.00    +0.021 C 
ATOM     14  C   UNL     1      -2.637   2.804  11.060  0.00  0.00    +0.034 C 
ATOM     15 BR   UNL     1      -2.437   2.696  13.917  0.00  0.00    -0.084 Br
ENDBRANCH   2   5
BRANCH   1  16
ATOM     16  C   UNL     1      -2.361   2.661   6.163  0.00  0.00    +0.109 C 
BRANCH  16  17
ATOM     17  C   UNL     1      -3.131   3.072   4.906  0.00  0.00    +0.054 C 
BRANCH  17  23
ATOM     18  C   UNL     1      -2.559   1.412   3.121  0.00  0.00    +0.005 A 
ATOM     19  C   UNL     1      -1.846   1.033   2.000  0.00  0.00    +0.029 A 
ATOM     20  C   UNL     1      -0.927   1.900   1.439  0.00  0.00    +0.105 A 
ATOM     21  C   UNL     1      -0.717   3.145   2.004  0.00  0.00    +0.029 A 
ATOM     22  C   UNL     1      -1.434   3.525   3.123  0.00  0.00    +0.005 A 
ATOM     23  C   UNL     1      -2.353   2.659   3.683  0.00  0.00    -0.046 A 
BRANCH  20  24
ATOM     24  S   UNL     1      -0.017   1.417   0.010  0.00  0.00    +0.056 S 
ATOM     25  O   UNL     1       0.002  -0.004   0.002  0.00  0.00    -0.153 OA
ATOM     26  O   UNL     1       1.172   2.195   0.003  0.00  0.00    -0.153 OA
BRANCH  24  27
ATOM     27  N   UNL     1      -0.897   1.885  -1.312  0.00  0.00    -0.204 NA
ATOM     28  H   UNL     1      -0.361   1.601  -2.229  0.00  0.00    +0.144 HD
ATOM     29  H   UNL     1      -1.036   2.977  -1.292  0.00  0.00    +0.144 HD
ENDBRANCH  24  27
ENDBRANCH  20  24
ENDBRANCH  17  23
ENDBRANCH  16  17
ENDBRANCH   1  16
TORSDOF 6
