REMARK  Name = ZINC19278429
REMARK  7 active torsions:
REMARK  status: ('A' for Active; 'I' for Inactive)
REMARK    1  A    between atoms: C_1  and  C_2
REMARK    2  A    between atoms: C_5  and  O_20
REMARK    3  A    between atoms: C_6  and  C_8
REMARK    4  A    between atoms: N_10  and  C_11
REMARK    5  A    between atoms: C_13  and  N_19
REMARK    6  A    between atoms: C_16  and  O_17
REMARK    7  A    between atoms: O_17  and  C_18
REMARK                            x       y       z     vdW  Elec       q    Type
REMARK                         _______ _______ _______ _____ _____    ______ ____
ROOT
ATOM      1  C   UNL     1      -1.184  -2.065  -0.099  0.00  0.00    +0.252 C 
ATOM      2  O   UNL     1      -0.124  -2.661  -0.113  0.00  0.00    -0.270 OA
ATOM      3  N   UNL     1      -1.200  -0.722   0.010  0.00  0.00    -0.278 N 
ATOM      4  H   UNL     1      -2.158  -0.190   0.114  0.00  0.00    +0.155 HD
ENDROOT
BRANCH   1  10
ATOM      5  C   UNL     1      -6.168  -2.099  -0.262  0.00  0.00    +0.044 C 
ATOM      6  C   UNL     1      -4.853  -2.835  -0.280  0.00  0.00    -0.050 A 
ATOM      7  C   UNL     1      -4.836  -4.216  -0.393  0.00  0.00    +0.007 A 
ATOM      8  C   UNL     1      -3.638  -4.901  -0.410  0.00  0.00    +0.046 A 
ATOM      9  C   UNL     1      -2.440  -4.209  -0.315  0.00  0.00    +0.129 A 
ATOM     10  C   UNL     1      -2.452  -2.812  -0.202  0.00  0.00    +0.079 A 
ATOM     11  C   UNL     1      -3.672  -2.132  -0.180  0.00  0.00    +0.020 A 
BRANCH   9  12
ATOM     12  O   UNL     1      -1.262  -4.881  -0.331  0.00  0.00    -0.506 OA
ATOM     13  H   UNL     1      -0.313  -4.330  -0.256  0.00  0.00    +0.292 HD
ENDBRANCH   9  12
ENDBRANCH   1  10
BRANCH   3  14
ATOM     14  C   UNL     1       0.001  -0.003  -0.009  0.00  0.00    +0.078 A 
ATOM     15  C   UNL     1       1.120  -0.537  -0.631  0.00  0.00    +0.049 A 
ATOM     16  C   UNL     1       2.310   0.177  -0.648  0.00  0.00    +0.027 A 
ATOM     17  C   UNL     1       2.379   1.426  -0.044  0.00  0.00    +0.026 A 
ATOM     18  C   UNL     1       1.265   1.959   0.576  0.00  0.00    +0.049 A 
ATOM     19  C   UNL     1       0.075   1.249   0.596  0.00  0.00    +0.141 A 
BRANCH  16  20
ATOM     20  N   UNL     1       3.440  -0.360  -1.274  0.00  0.00    -0.358 N 
ATOM     21  H   UNL     1       4.383   0.206  -1.288  0.00  0.00    +0.142 HD
ATOM     22  H   UNL     1       3.385  -1.349  -1.753  0.00  0.00    +0.142 HD
ENDBRANCH  16  20
BRANCH  19  23
ATOM     23  O   UNL     1      -1.023   1.778   1.202  0.00  0.00    -0.493 OA
ATOM     24  C   UNL     1      -0.875   3.066   1.802  0.00  0.00    +0.277 C 
ENDBRANCH  19  23
ENDBRANCH   3  14
TORSDOF 5
