REMARK  Name = ZINC61712732
REMARK  6 active torsions:
REMARK  status: ('A' for Active; 'I' for Inactive)
REMARK    1  A    between atoms: C_3  and  N_20
REMARK    2  A    between atoms: C_4  and  S_10
REMARK    3  A    between atoms: C_6  and  N_7
REMARK    4  A    between atoms: S_10  and  N_13
REMARK    5  A    between atoms: C_16  and  O_19
REMARK    6  A    between atoms: N_20  and  N_21
REMARK                            x       y       z     vdW  Elec       q    Type
REMARK                         _______ _______ _______ _____ _____    ______ ____
ROOT
ATOM      1  C   UNL     1      -0.074   1.228  -0.013  0.00  0.00    +0.034 A 
ATOM      2  C   UNL     1       1.060   2.008   0.111  0.00  0.00    +0.028 A 
ATOM      3  C   UNL     1       2.315   1.413   0.101  0.00  0.00    +0.068 A 
ATOM      4  C   UNL     1       2.425   0.034  -0.033  0.00  0.00    +0.130 A 
ATOM      5  C   UNL     1       1.288  -0.739  -0.156  0.00  0.00    +0.063 A 
ATOM      6  C   UNL     1       0.040  -0.143  -0.146  0.00  0.00    +0.128 A 
ENDROOT
BRANCH   6   7
ATOM      7  N   UNL     1      -1.177  -0.975  -0.278  0.00  0.00    +0.056 N 
ATOM      8  O   UNL     1      -2.268  -0.456  -0.270  0.00  0.00    -0.126 OA
ATOM      9  O   UNL     1      -1.079  -2.175  -0.394  0.00  0.00    -0.126 OA
ENDBRANCH   6   7
BRANCH   4  10
ATOM     10  S   UNL     1       4.015  -0.726  -0.045  0.00  0.00    +0.063 S 
ATOM     11  O   UNL     1       4.738  -0.173   1.045  0.00  0.00    -0.153 OA
ATOM     12  O   UNL     1       3.796  -2.123  -0.184  0.00  0.00    -0.153 OA
BRANCH  10  13
ATOM     13  N   UNL     1       4.784  -0.228  -1.425  0.00  0.00    -0.174 NA
ATOM     14  C   UNL     1       4.624  -0.828  -2.762  0.00  0.00    +0.112 C 
ATOM     15  C   UNL     1       5.008   0.301  -3.751  0.00  0.00    +0.050 C 
ATOM     16  C   UNL     1       6.172   0.995  -2.996  0.00  0.00    +0.131 C 
ATOM     17  C   UNL     1       5.736   0.889  -1.520  0.00  0.00    +0.140 C 
BRANCH  16  18
ATOM     18  O   UNL     1       6.288   2.362  -3.393  0.00  0.00    -0.390 OA
ATOM     19  H   UNL     1       6.484   2.485  -4.332  0.00  0.00    +0.210 HD
ENDBRANCH  16  18
ENDBRANCH  10  13
ENDBRANCH   4  10
BRANCH   3  20
ATOM     20  N   UNL     1       3.463   2.198   0.226  0.00  0.00    -0.281 N 
ATOM     21  H   UNL     1       4.334   1.777   0.297  0.00  0.00    +0.166 HD
BRANCH  20  22
ATOM     22  N   UNL     1       3.360   3.560   0.247  0.00  0.00    -0.256 NA
ATOM     23  H   UNL     1       4.268   3.990   0.341  0.00  0.00    +0.140 HD
ATOM     24  H   UNL     1       2.882   3.900  -0.575  0.00  0.00    +0.140 HD
ENDBRANCH  20  22
ENDBRANCH   3  20
TORSDOF 6
