REMARK  Name = ZINC20898956
REMARK  5 active torsions:
REMARK  status: ('A' for Active; 'I' for Inactive)
REMARK    1  A    between atoms: C_1  and  C_2
REMARK    2  A    between atoms: C_2  and  O_3
REMARK    3  A    between atoms: O_3  and  C_4
REMARK    4  A    between atoms: C_9  and  C_10
REMARK    5  A    between atoms: N_22  and  C_25
REMARK                            x       y       z     vdW  Elec       q    Type
REMARK                         _______ _______ _______ _____ _____    ______ ____
ROOT
ATOM      1  C   UNL     1       2.055  -1.434   3.442  0.00  0.00    +0.112 C 
ATOM      2  C   UNL     1       3.454  -0.936   3.002  0.00  0.00    +0.078 C 
ATOM      3  C   UNL     1       4.219  -0.927   4.313  0.00  0.00    +0.038 C 
ATOM      4  N   UNL     1       3.512  -1.640   5.211  0.00  0.00    -0.283 N 
ATOM      5  N   UNL     1       2.371  -2.173   4.686  0.00  0.00    -0.235 NA
ATOM      6  C   UNL     1       5.427  -0.297   4.545  0.00  0.00    +0.117 C 
ATOM      7  C   UNL     1       6.113   0.465   3.486  0.00  0.00    +0.256 C 
ATOM      8  N   UNL     1       7.290   1.054   3.785  0.00  0.00    -0.263 N 
ATOM      9  H   UNL     1       7.754   1.560   3.099  0.00  0.00    +0.157 HD
ATOM     10  C   UNL     1       7.832   0.956   5.007  0.00  0.00    +0.146 C 
ATOM     11  S   UNL     1       9.329   1.736   5.294  0.00  0.00    -0.018 S 
ATOM     12  N   UNL     1       7.265   0.280   6.016  0.00  0.00    -0.252 N 
ATOM     13  C   UNL     1       6.084  -0.353   5.864  0.00  0.00    +0.258 C 
ATOM     14  O   UNL     1       5.576  -0.959   6.789  0.00  0.00    -0.269 OA
ATOM     15  C   UNL     1       7.940   0.234   7.315  0.00  0.00    +0.140 C 
ATOM     16  O   UNL     1       5.631   0.561   2.373  0.00  0.00    -0.270 OA
ATOM     17  H   UNL     1       1.609  -2.115   5.345  0.00  0.00    +0.145 HD
ATOM     18  H   UNL     1       3.785  -1.762   6.133  0.00  0.00    +0.166 HD
ENDROOT
BRANCH   1  24
ATOM     19  C   UNL     1       0.802  -1.824   1.306  0.00  0.00    +0.125 A 
ATOM     20  C   UNL     1       0.260  -2.673   0.351  0.00  0.00    +0.046 A 
ATOM     21  C   UNL     1       0.372  -4.041   0.501  0.00  0.00    +0.004 A 
ATOM     22  C   UNL     1       1.024  -4.566   1.602  0.00  0.00    +0.001 A 
ATOM     23  C   UNL     1       1.565  -3.723   2.555  0.00  0.00    +0.009 A 
ATOM     24  C   UNL     1       1.460  -2.353   2.406  0.00  0.00    +0.013 A 
BRANCH  19  25
ATOM     25  O   UNL     1       0.693  -0.477   1.160  0.00  0.00    -0.492 OA
BRANCH  25  27
ATOM     26  C   UNL     1      -0.019   1.526   0.010  0.00  0.00    +0.048 C 
ATOM     27  C   UNL     1       0.002  -0.004   0.002  0.00  0.00    +0.225 C 
ENDBRANCH  25  27
ENDBRANCH  19  25
ENDBRANCH   1  24
TORSDOF 3
