REMARK  Name = ZINC49732593
REMARK  6 active torsions:
REMARK  status: ('A' for Active; 'I' for Inactive)
REMARK    1  A    between atoms: C_1  and  C_2
REMARK    2  A    between atoms: C_2  and  C_3
REMARK    3  A    between atoms: C_2  and  C_4
REMARK    4  A    between atoms: C_2  and  C_5
REMARK    5  A    between atoms: C_8  and  C_10
REMARK    6  A    between atoms: C_10  and  N_18
REMARK                            x       y       z     vdW  Elec       q    Type
REMARK                         _______ _______ _______ _____ _____    ______ ____
ROOT
ATOM      1  C   UNL     1       1.554  -3.606  -3.107  0.00  0.00    +0.069 C 
ATOM      2  C   UNL     1       2.280  -4.424  -2.043  0.00  0.00    +0.051 C 
ATOM      3  C   UNL     1       2.224  -5.912  -2.400  0.00  0.00    +0.168 C 
ATOM      4  S   UNL     1       3.109  -6.175  -3.965  0.00  0.00    -0.031 S 
ATOM      5  O   UNL     1       2.820  -7.485  -4.433  0.00  0.00    -0.174 OA
ATOM      6  O   UNL     1       4.464  -5.785  -3.789  0.00  0.00    -0.174 OA
ATOM      7  C   UNL     1       2.297  -4.977  -5.065  0.00  0.00    +0.168 C 
ATOM      8  C   UNL     1       2.345  -3.593  -4.411  0.00  0.00    +0.051 C 
ENDROOT
BRANCH   1  12
ATOM      9  C   UNL     1       0.707  -0.490  -1.238  0.00  0.00    +0.054 A 
ATOM     10  C   UNL     1       1.307   0.373  -2.098  0.00  0.00    +0.070 A 
ATOM     11  S   UNL     1       1.941  -0.766  -3.318  0.00  0.00    -0.078 S 
ATOM     12  C   UNL     1       1.385  -2.191  -2.615  0.00  0.00    +0.099 A 
ATOM     13  N   UNL     1       0.776  -1.773  -1.534  0.00  0.00    -0.247 NA
BRANCH   9  15
ATOM     14  C   UNL     1      -0.019   1.526   0.010  0.00  0.00    +0.017 C 
ATOM     15  C   UNL     1       0.002  -0.004   0.002  0.00  0.00    +0.005 C 
ATOM     16  C   UNL     1       0.742  -0.511   1.242  0.00  0.00    +0.017 C 
ATOM     17  C   UNL     1      -1.433  -0.534   0.013  0.00  0.00    +0.017 C 
ENDBRANCH   9  15
ENDBRANCH   1  12
BRANCH   1  18
ATOM     18  N   UNL     1       0.230  -4.194  -3.349  0.00  0.00    -0.319 NA
ATOM     19  H   UNL     1      -0.320  -4.207  -2.504  0.00  0.00    +0.119 HD
ATOM     20  H   UNL     1      -0.253  -3.706  -4.088  0.00  0.00    +0.119 HD
ENDBRANCH   1  18
TORSDOF 3
