REMARK  Name = ZINC64890983
REMARK  10 active torsions:
REMARK  status: ('A' for Active; 'I' for Inactive)
REMARK    1  A    between atoms: C_1  and  C_2
REMARK    2  A    between atoms: C_5  and  S_8
REMARK    3  A    between atoms: S_8  and  N_11
REMARK    4  A    between atoms: N_11  and  C_12
REMARK    5  A    between atoms: C_12  and  C_14
REMARK    6  A    between atoms: C_12  and  C_33
REMARK    7  A    between atoms: C_17  and  C_21
REMARK    8  A    between atoms: N_31  and  C_32
REMARK    9  A    between atoms: C_33  and  C_34
REMARK   10  A    between atoms: C_33  and  C_35
REMARK                            x       y       z     vdW  Elec       q    Type
REMARK                         _______ _______ _______ _____ _____    ______ ____
ROOT
ATOM      1  C   UNL     1       3.540  -5.819   0.484  0.00  0.00    +0.230 C 
ATOM      2  N   UNL     1       2.954  -7.169   0.649  0.00  0.00    -0.268 NA
ATOM      3  C   UNL     1       4.096  -8.004   1.108  0.00  0.00    +0.180 C 
ATOM      4  N   UNL     1       4.842  -7.063   1.985  0.00  0.00    -0.178 NA
ATOM      5  O   UNL     1       4.712  -5.756   1.310  0.00  0.00    -0.278 OA
ATOM      6  H   UNL     1       2.213  -7.160   1.334  0.00  0.00    +0.126 HD
ATOM      7  H   UNL     1       4.441  -7.035   2.910  0.00  0.00    +0.156 HD
ENDROOT
BRANCH   3   8
ATOM      8  C   UNL     1       3.608  -9.198   1.888  0.00  0.00    -0.012 A 
ATOM      9  C   UNL     1       2.375  -9.755   1.595  0.00  0.00    +0.009 A 
ATOM     10  C   UNL     1       1.919 -10.849   2.303  0.00  0.00    +0.028 A 
ATOM     11  C   UNL     1       2.699 -11.391   3.314  0.00  0.00    +0.069 A 
ATOM     12  C   UNL     1       3.942 -10.829   3.610  0.00  0.00    +0.067 A 
ATOM     13  C   UNL     1       4.394  -9.734   2.889  0.00  0.00    +0.034 A 
ATOM     14  N   UNL     1       4.484 -11.577   4.652  0.00  0.00    -0.306 N 
ATOM     15  H   UNL     1       5.344 -11.423   5.074  0.00  0.00    +0.170 HD
ATOM     16  C   UNL     1       3.611 -12.549   4.976  0.00  0.00    +0.327 A 
ATOM     17  O   UNL     1       3.779 -13.379   5.849  0.00  0.00    -0.247 OA
ATOM     18  N   UNL     1       2.524 -12.463   4.186  0.00  0.00    -0.295 N 
ATOM     19  C   UNL     1       1.357 -13.347   4.235  0.00  0.00    +0.154 C 
ENDBRANCH   3   8
BRANCH   1  20
ATOM     20  C   UNL     1       2.532  -4.757   0.928  0.00  0.00    +0.125 C 
BRANCH  20  21
ATOM     21  C   UNL     1       3.173  -3.372   0.825  0.00  0.00    +0.005 C 
ATOM     22  C   UNL     1       3.575  -3.102  -0.626  0.00  0.00    +0.009 C 
ATOM     23  C   UNL     1       2.170  -2.311   1.283  0.00  0.00    +0.009 C 
ENDBRANCH  20  21
BRANCH  20  24
ATOM     24  N   UNL     1       1.350  -4.814   0.063  0.00  0.00    -0.183 NA
ATOM     25  H   UNL     1       1.427  -4.591  -0.878  0.00  0.00    +0.148 HD
BRANCH  24  26
ATOM     26  S   UNL     1      -0.116  -5.258   0.693  0.00  0.00    +0.059 S 
ATOM     27  O   UNL     1       0.099  -6.467   1.408  0.00  0.00    -0.153 OA
ATOM     28  O   UNL     1      -1.060  -5.155  -0.364  0.00  0.00    -0.153 OA
BRANCH  26  33
ATOM     29  C   UNL     1      -1.643  -1.088   4.778  0.00  0.00    +0.044 C 
ATOM     30  C   UNL     1      -1.261  -2.129   3.758  0.00  0.00    -0.050 A 
ATOM     31  C   UNL     1      -1.567  -1.934   2.424  0.00  0.00    +0.005 A 
ATOM     32  C   UNL     1      -1.217  -2.890   1.488  0.00  0.00    +0.029 A 
ATOM     33  C   UNL     1      -0.561  -4.040   1.886  0.00  0.00    +0.105 A 
ATOM     34  C   UNL     1      -0.255  -4.234   3.220  0.00  0.00    +0.029 A 
ATOM     35  C   UNL     1      -0.601  -3.277   4.155  0.00  0.00    +0.005 A 
ENDBRANCH  26  33
ENDBRANCH  24  26
ENDBRANCH  20  24
ENDBRANCH   1  20
TORSDOF 6
