REMARK  Name = ZINC09165170
REMARK  9 active torsions:
REMARK  status: ('A' for Active; 'I' for Inactive)
REMARK    1  A    between atoms: C_1  and  N_2
REMARK    2  A    between atoms: C_10  and  C_12
REMARK    3  A    between atoms: C_12  and  C_14
REMARK    4  A    between atoms: C_12  and  N_67
REMARK    5  A    between atoms: C_14  and  N_15
REMARK    6  A    between atoms: C_16  and  C_18
REMARK    7  A    between atoms: N_20  and  C_21
REMARK    8  A    between atoms: C_26  and  O_27
REMARK    9  A    between atoms: O_27  and  C_28
REMARK                            x       y       z     vdW  Elec       q    Type
REMARK                         _______ _______ _______ _____ _____    ______ ____
ROOT
ATOM      1  C   UNL     1      -5.147   1.430  -0.450  0.00  0.00    -0.020 C 
ENDROOT
BRANCH   1  11
ATOM      2  C   UNL     1      -9.508   4.788   2.651  0.00  0.00    +0.129 C 
ATOM      3  N   UNL     1      -9.865   3.654   1.788  0.00  0.00    -0.333 N 
ATOM      4  C   UNL     1     -10.895   4.036   0.820  0.00  0.00    +0.105 C 
ATOM      5  C   UNL     1     -11.206   2.824  -0.068  0.00  0.00    +0.024 C 
ATOM      6  C   UNL     1      -9.977   2.550  -0.938  0.00  0.00    +0.038 C 
ATOM      7  C   UNL     1      -8.736   2.566  -0.082  0.00  0.00    -0.026 A 
ATOM      8  C   UNL     1      -8.731   3.104   1.193  0.00  0.00    +0.033 A 
ATOM      9  C   UNL     1      -7.548   3.099   1.934  0.00  0.00    +0.023 A 
ATOM     10  C   UNL     1      -6.396   2.555   1.406  0.00  0.00    +0.004 A 
ATOM     11  C   UNL     1      -6.406   2.021   0.131  0.00  0.00    -0.059 A 
ATOM     12  C   UNL     1      -7.573   2.026  -0.608  0.00  0.00    +0.007 A 
ENDBRANCH   1  11
BRANCH   1  18
ATOM     13  C   UNL     1      -6.024  -0.587   0.563  0.00  0.00    -0.078 C 
ATOM     14  C   UNL     1      -5.629  -1.933   1.174  0.00  0.00    -0.019 C 
ATOM     15  C   UNL     1      -4.827  -1.691   2.456  0.00  0.00    -0.004 C 
ATOM     16  C   UNL     1      -3.599  -0.838   2.126  0.00  0.00    -0.019 C 
ATOM     17  C   UNL     1      -4.052   0.476   1.487  0.00  0.00    -0.078 C 
ATOM     18  N   UNL     1      -4.797   0.174   0.246  0.00  0.00    +0.385 N 
ATOM     19  H   UNL     1      -4.202  -0.393  -0.369  0.00  0.00    -0.081 HD
ENDBRANCH   1  18
BRANCH   1  20
ATOM     20  C   UNL     1      -3.998   2.429  -0.301  0.00  0.00    +0.094 C 
BRANCH  20  21
ATOM     21  N   UNL     1      -2.795   1.887  -0.937  0.00  0.00    -0.309 N 
ATOM     22  C   UNL     1      -1.627   2.554  -0.846  0.00  0.00    +0.299 C 
ATOM     23  O   UNL     1      -1.573   3.603  -0.238  0.00  0.00    -0.265 OA
ATOM     24  H   UNL     1      -2.838   1.049  -1.423  0.00  0.00    +0.149 HD
BRANCH  22  25
ATOM     25  C   UNL     1      -0.400   2.002  -1.494  0.00  0.00    +0.303 C 
ATOM     26  O   UNL     1      -0.455   0.953  -2.103  0.00  0.00    -0.265 OA
ATOM     27  N   UNL     1       0.766   2.672  -1.409  0.00  0.00    -0.275 N 
ATOM     28  H   UNL     1       0.793   3.548  -0.995  0.00  0.00    +0.155 HD
BRANCH  27  29
ATOM     29  C   UNL     1       1.939   2.102  -1.917  0.00  0.00    +0.077 A 
ATOM     30  C   UNL     1       2.010   0.733  -2.134  0.00  0.00    +0.047 A 
ATOM     31  C   UNL     1       3.168   0.173  -2.641  0.00  0.00    +0.043 A 
ATOM     32  C   UNL     1       4.261   0.974  -2.923  0.00  0.00    +0.024 A 
ATOM     33  C   UNL     1       4.199   2.337  -2.704  0.00  0.00    +0.049 A 
ATOM     34  C   UNL     1       3.041   2.907  -2.201  0.00  0.00    +0.141 A 
ATOM     35 CL   UNL     1       3.253  -1.538  -2.919  0.00  0.00    -0.083 Cl
BRANCH  34  36
ATOM     36  O   UNL     1       2.978   4.248  -1.985  0.00  0.00    -0.493 OA
ATOM     37  C   UNL     1       4.146   5.010  -2.299  0.00  0.00    +0.277 C 
ENDBRANCH  34  36
ENDBRANCH  27  29
ENDBRANCH  22  25
ENDBRANCH  20  21
ENDBRANCH   1  20
TORSDOF 7
