REMARK  Name = ZINC35498308
REMARK  3 active torsions:
REMARK  status: ('A' for Active; 'I' for Inactive)
REMARK    1  A    between atoms: C_5  and  N_7
REMARK    2  A    between atoms: N_20  and  C_23
REMARK    3  A    between atoms: C_23  and  C_24
REMARK                            x       y       z     vdW  Elec       q    Type
REMARK                         _______ _______ _______ _____ _____    ______ ____
ROOT
ATOM      1  N   UNL     1       1.236  -2.081  -0.021  0.00  0.00    -0.267 N 
ATOM      2  C   UNL     1       0.085  -2.774   0.088  0.00  0.00    +0.307 C 
ATOM      3  O   UNL     1      -0.979  -2.186   0.102  0.00  0.00    -0.252 OA
ATOM      4  N   UNL     1       0.114  -4.118   0.181  0.00  0.00    -0.280 N 
ATOM      5  C   UNL     1      -1.125  -4.903   0.295  0.00  0.00    +0.114 C 
ATOM      6  C   UNL     1      -1.283  -5.791  -0.940  0.00  0.00    +0.056 C 
ATOM      7  C   UNL     1       0.028  -6.525  -1.205  0.00  0.00    -0.020 A 
ATOM      8  C   UNL     1       1.195  -6.070  -0.690  0.00  0.00    +0.013 A 
ATOM      9  S   UNL     1       2.431  -7.213  -1.251  0.00  0.00    -0.072 S 
ATOM     10  C   UNL     1       1.386  -8.300  -2.168  0.00  0.00    +0.116 A 
ATOM     11  C   UNL     1       0.102  -7.733  -2.009  0.00  0.00    +0.076 A 
ATOM     12  C   UNL     1      -0.991  -8.404  -2.652  0.00  0.00    +0.263 A 
ATOM     13  O   UNL     1      -2.138  -7.997  -2.577  0.00  0.00    -0.267 OA
ATOM     14  N   UNL     1      -0.667  -9.519  -3.349  0.00  0.00    -0.294 N 
ATOM     15  C   UNL     1       0.600  -9.989  -3.446  0.00  0.00    +0.203 A 
ATOM     16  N   UNL     1       1.627  -9.402  -2.871  0.00  0.00    -0.230 NA
ATOM     17  C   UNL     1       1.389  -4.861   0.167  0.00  0.00    +0.152 C 
ATOM     18  H   UNL     1       2.080  -2.553  -0.097  0.00  0.00    +0.156 HD
ENDROOT
BRANCH   1  23
ATOM     19  C   UNL     1       0.135   1.377  -0.618  0.00  0.00    +0.002 A 
ATOM     20  C   UNL     1       1.167   2.087  -0.033  0.00  0.00    +0.003 A 
ATOM     21  C   UNL     1       2.223   1.418   0.557  0.00  0.00    +0.040 A 
ATOM     22  C   UNL     1       2.250   0.035   0.563  0.00  0.00    +0.145 A 
ATOM     23  C   UNL     1       1.213  -0.681  -0.025  0.00  0.00    +0.070 A 
ATOM     24  C   UNL     1       0.155  -0.004  -0.616  0.00  0.00    +0.026 A 
ATOM     25  F   UNL     1       3.282  -0.620   1.139  0.00  0.00    -0.204 F 
ENDBRANCH   1  23
BRANCH  14  26
ATOM     26  C   UNL     1      -1.737 -10.252  -4.031  0.00  0.00    +0.161 C 
BRANCH  26  27
ATOM     27  C   UNL     1      -1.901  -9.716  -5.430  0.00  0.00    -0.027 A 
ATOM     28  C   UNL     1      -2.773  -8.670  -5.671  0.00  0.00    +0.008 A 
ATOM     29  C   UNL     1      -2.924  -8.178  -6.953  0.00  0.00    +0.038 A 
ATOM     30  C   UNL     1      -2.202  -8.732  -7.997  0.00  0.00    +0.123 A 
ATOM     31  C   UNL     1      -1.330  -9.780  -7.754  0.00  0.00    +0.038 A 
ATOM     32  C   UNL     1      -1.177 -10.267  -6.470  0.00  0.00    +0.008 A 
ATOM     33  F   UNL     1      -2.350  -8.252  -9.251  0.00  0.00    -0.205 F 
ENDBRANCH  26  27
ENDBRANCH  14  26
TORSDOF 3
