REMARK  Name = ZINC66639453
REMARK  6 active torsions:
REMARK  status: ('A' for Active; 'I' for Inactive)
REMARK    1  A    between atoms: C_1  and  C_2
REMARK    2  A    between atoms: C_2  and  C_3
REMARK    3  A    between atoms: C_2  and  N_4
REMARK    4  A    between atoms: C_5  and  C_10
REMARK    5  A    between atoms: C_10  and  N_11
REMARK    6  A    between atoms: C_12  and  C_14
REMARK                            x       y       z     vdW  Elec       q    Type
REMARK                         _______ _______ _______ _____ _____    ______ ____
ROOT
ATOM      1  C   UNL     1      -1.253  -1.813  -2.191  0.00  0.00    +0.181 C 
ENDROOT
BRANCH   1   3
ATOM      2  N   UNL     1      -1.372  -0.511   0.012  0.00  0.00    -0.303 N 
ATOM      3  C   UNL     1      -1.941  -1.311  -0.948  0.00  0.00    +0.149 A 
ATOM      4  N   UNL     1      -3.165  -1.562  -0.611  0.00  0.00    -0.157 NA
ATOM      5  N   UNL     1      -3.425  -0.915   0.605  0.00  0.00    -0.254 N 
ATOM      6  C   UNL     1      -2.293  -0.277   0.969  0.00  0.00    +0.176 A 
ATOM      7  S   UNL     1      -2.068   0.661   2.384  0.00  0.00    -0.011 S 
ATOM      8  H   UNL     1      -4.261  -0.927   1.096  0.00  0.00    +0.191 HD
BRANCH   2  10
ATOM      9  C   UNL     1      -0.019   1.526   0.010  0.00  0.00    +0.030 C 
ATOM     10  C   UNL     1       0.002  -0.004   0.002  0.00  0.00    +0.085 C 
ATOM     11  C   UNL     1       0.742  -0.511   1.242  0.00  0.00    +0.030 C 
ENDBRANCH   2  10
ENDBRANCH   1   3
BRANCH   1  12
ATOM     12  N   UNL     1      -2.185  -2.636  -2.966  0.00  0.00    -0.302 N 
ATOM     13  C   UNL     1      -1.786  -3.195  -4.126  0.00  0.00    +0.280 C 
ATOM     14  O   UNL     1      -0.651  -3.017  -4.529  0.00  0.00    -0.267 OA
ATOM     15  H   UNL     1      -3.089  -2.778  -2.645  0.00  0.00    +0.150 HD
BRANCH  13  16
ATOM     16  C   UNL     1      -2.718  -4.018  -4.901  0.00  0.00    +0.191 A 
ATOM     17  C   UNL     1      -2.443  -4.644  -6.084  0.00  0.00    +0.056 A 
ATOM     18  C   UNL     1      -3.614  -5.315  -6.468  0.00  0.00    +0.063 A 
ATOM     19  C   UNL     1      -4.543  -5.071  -5.514  0.00  0.00    +0.195 A 
ATOM     20  O   UNL     1      -3.997  -4.294  -4.569  0.00  0.00    -0.439 OA
ATOM     21 CL   UNL     1      -6.172  -5.673  -5.512  0.00  0.00    -0.043 Cl
ENDBRANCH  13  16
ENDBRANCH   1  12
TORSDOF 4
