REMARK  Name = ZINC17087190
REMARK  7 active torsions:
REMARK  status: ('A' for Active; 'I' for Inactive)
REMARK    1  A    between atoms: C_1  and  C_2
REMARK    2  A    between atoms: C_2  and  C_3
REMARK    3  A    between atoms: C_2  and  N_4
REMARK    4  A    between atoms: C_5  and  C_7
REMARK    5  A    between atoms: C_10  and  C_17
REMARK    6  A    between atoms: C_10  and  O_21
REMARK    7  A    between atoms: C_12  and  C_14
REMARK                            x       y       z     vdW  Elec       q    Type
REMARK                         _______ _______ _______ _____ _____    ______ ____
ROOT
ATOM      1  C   UNL     1       3.486   1.188  -0.024  0.00  0.00    +0.323 C 
ATOM      2  O   UNL     1       4.256   0.250  -0.036  0.00  0.00    -0.263 OA
ATOM      3  N   UNL     1       2.156   0.969  -0.013  0.00  0.00    -0.144 N 
ATOM      4  C   UNL     1       1.504  -0.352  -0.014  0.00  0.00    +0.257 C 
ATOM      5  C   UNL     1       0.002  -0.004   0.002  0.00  0.00    +0.119 C 
ATOM      6  C   UNL     1      -0.018   1.508   0.010  0.00  0.00    +0.045 C 
ATOM      7  N   UNL     1       1.171   1.953   0.001  0.00  0.00    -0.183 NA
ENDROOT
BRANCH   1   9
ATOM      8  N   UNL     1       5.342   2.805  -0.033  0.00  0.00    -0.305 N 
ATOM      9  C   UNL     1       4.012   2.585  -0.022  0.00  0.00    +0.301 C 
ATOM     10  O   UNL     1       3.242   3.523  -0.010  0.00  0.00    -0.265 OA
ATOM     11  H   UNL     1       5.957   2.055  -0.043  0.00  0.00    +0.149 HD
BRANCH   8  13
ATOM     12  C   UNL     1       5.933   4.690   1.408  0.00  0.00    +0.027 C 
ATOM     13  C   UNL     1       5.858   4.176  -0.031  0.00  0.00    +0.067 C 
ATOM     14  C   UNL     1       7.255   4.196  -0.653  0.00  0.00    +0.027 C 
ENDBRANCH   8  13
ENDBRANCH   1   9
BRANCH   4  15
ATOM     15  C   UNL     1       1.889  -1.144   1.237  0.00  0.00    +0.438 C 
ATOM     16  F   UNL     1       1.150  -2.332   1.282  0.00  0.00    -0.166 F 
ATOM     17  F   UNL     1       3.254  -1.446   1.196  0.00  0.00    -0.166 F 
ATOM     18  F   UNL     1       1.613  -0.380   2.376  0.00  0.00    -0.166 F 
ENDBRANCH   4  15
BRANCH   6  19
ATOM     19  C   UNL     1      -1.263   2.358   0.021  0.00  0.00    +0.035 C 
ATOM     20  C   UNL     1      -1.512   3.261  -1.189  0.00  0.00    +0.010 C 
ATOM     21  C   UNL     1      -1.083   3.872   0.147  0.00  0.00    +0.010 C 
ENDBRANCH   6  19
BRANCH   4  22
ATOM     22  O   UNL     1       1.841  -1.079  -1.197  0.00  0.00    -0.363 OA
ATOM     23  H   UNL     1       2.775  -1.323  -1.257  0.00  0.00    +0.212 HD
ENDBRANCH   4  22
TORSDOF 5
