REMARK  Name = ZINC36290338
REMARK  3 active torsions:
REMARK  status: ('A' for Active; 'I' for Inactive)
REMARK    1  A    between atoms: C_1  and  C_2
REMARK    2  A    between atoms: C_7  and  N_17
REMARK    3  A    between atoms: C_8  and  C_10
REMARK                            x       y       z     vdW  Elec       q    Type
REMARK                         _______ _______ _______ _____ _____    ______ ____
ROOT
ATOM      1  C   UNL     1      -0.018   1.503   0.010  0.00  0.00    +0.064 C 
ATOM      2  C   UNL     1       0.002  -0.004   0.002  0.00  0.00    +0.031 A 
ATOM      3  C   UNL     1       0.005  -0.655  -1.159  0.00  0.00    +0.070 A 
ATOM      4  S   UNL     1       0.032  -2.360  -0.630  0.00  0.00    -0.057 S 
ATOM      5  C   UNL     1       0.036  -2.064   1.123  0.00  0.00    +0.179 A 
ATOM      6  N   UNL     1       0.023  -0.692   1.199  0.00  0.00    -0.279 N 
ATOM      7  C   UNL     1       0.031  -0.401   2.558  0.00  0.00    +0.129 A 
ATOM      8  C   UNL     1       0.053  -1.585   3.231  0.00  0.00    +0.112 A 
ATOM      9  N   UNL     1       0.049  -2.587   2.313  0.00  0.00    -0.219 NA
ENDROOT
BRANCH   8  10
ATOM     10  C   UNL     1       0.069  -1.751   4.703  0.00  0.00    +0.004 A 
ATOM     11  C   UNL     1       0.751  -0.835   5.503  0.00  0.00    +0.011 A 
ATOM     12  C   UNL     1       0.762  -0.994   6.874  0.00  0.00    +0.016 A 
ATOM     13  C   UNL     1       0.099  -2.061   7.454  0.00  0.00    +0.018 A 
ATOM     14  C   UNL     1      -0.580  -2.974   6.665  0.00  0.00    +0.016 A 
ATOM     15  C   UNL     1      -0.603  -2.821   5.294  0.00  0.00    +0.011 A 
ATOM     16 BR   UNL     1       0.119  -2.273   9.333  0.00  0.00    -0.050 Br
ENDBRANCH   8  10
BRANCH   7  17
ATOM     17  N   UNL     1       0.019   0.873   3.130  0.00  0.00    -0.342 N 
ATOM     18  H   UNL     1       0.003   1.659   2.562  0.00  0.00    +0.144 HD
ATOM     19  H   UNL     1       0.026   0.972   4.095  0.00  0.00    +0.144 HD
ENDBRANCH   7  17
TORSDOF 2
