REMARK  Name = ZINC03659518
REMARK  3 active torsions:
REMARK  status: ('A' for Active; 'I' for Inactive)
REMARK    1  A    between atoms: C_2  and  C_10
REMARK    2  A    between atoms: C_5  and  O_8
REMARK    3  A    between atoms: N_11  and  C_12
REMARK                            x       y       z     vdW  Elec       q    Type
REMARK                         _______ _______ _______ _____ _____    ______ ____
ROOT
ATOM      1  C   UNL     1      -0.017   1.373   0.010  0.00  0.00    +0.028 A 
ATOM      2  C   UNL     1       1.188   2.087   0.002  0.00  0.00    -0.005 A 
ATOM      3  C   UNL     1       2.405   1.397  -0.013  0.00  0.00    +0.028 A 
ATOM      4  C   UNL     1       2.413   0.019  -0.021  0.00  0.00    +0.061 A 
ATOM      5  C   UNL     1       1.214  -0.685  -0.013  0.00  0.00    +0.145 A 
ATOM      6  C   UNL     1       0.002  -0.004   0.002  0.00  0.00    +0.061 A 
ATOM      7 BR   UNL     1      -1.623  -0.970   0.013  0.00  0.00    -0.046 Br
ATOM      8 BR   UNL     1       4.057  -0.915  -0.042  0.00  0.00    -0.046 Br
ENDROOT
BRANCH   5   9
ATOM      9  O   UNL     1       1.227  -2.043  -0.021  0.00  0.00    -0.505 OA
ATOM     10  H   UNL     1       1.240  -2.441   0.860  0.00  0.00    +0.292 HD
ENDBRANCH   5   9
BRANCH   2  11
ATOM     11  C   UNL     1       1.173   3.557   0.009  0.00  0.00    +0.121 C 
ATOM     12  N   UNL     1       2.299   4.221   0.002  0.00  0.00    -0.229 NA
BRANCH  12  13
ATOM     13  C   UNL     1       2.286   5.580   0.009  0.00  0.00    +0.205 C 
ATOM     14  N   UNL     1       1.154   6.229   0.029  0.00  0.00    -0.153 NA
ATOM     15  N   UNL     1       1.056   7.611   0.044  0.00  0.00    -0.204 N 
ATOM     16  C   UNL     1       1.995   8.469  -0.359  0.00  0.00    +0.243 C 
ATOM     17  O   UNL     1       1.762   9.659  -0.304  0.00  0.00    -0.273 OA
ATOM     18  C   UNL     1       3.335   8.015  -0.878  0.00  0.00    +0.174 C 
ATOM     19  S   UNL     1       3.801   6.488  -0.000  0.00  0.00    -0.075 S 
ATOM     20  H   UNL     1       0.228   7.990   0.378  0.00  0.00    +0.177 HD
ENDBRANCH  12  13
ENDBRANCH   2  11
TORSDOF 3
