REMARK  Name = ZINC07530510
REMARK  9 active torsions:
REMARK  status: ('A' for Active; 'I' for Inactive)
REMARK    1  A    between atoms: C_1  and  C_2
REMARK    2  A    between atoms: C_4  and  C_31
REMARK    3  A    between atoms: C_10  and  S_13
REMARK    4  A    between atoms: N_11  and  N_12
REMARK    5  A    between atoms: S_13  and  C_14
REMARK    6  A    between atoms: C_14  and  C_15
REMARK    7  A    between atoms: N_17  and  C_18
REMARK    8  A    between atoms: C_18  and  C_20
REMARK    9  A    between atoms: C_18  and  C_21
REMARK                            x       y       z     vdW  Elec       q    Type
REMARK                         _______ _______ _______ _____ _____    ______ ____
ROOT
ATOM      1  C   UNL     1      -0.664   4.022   0.027  0.00  0.00    +0.173 C 
ENDROOT
BRANCH   1   2
ATOM      2  C   UNL     1      -1.727   5.091   0.038  0.00  0.00    +0.224 C 
ATOM      3  O   UNL     1      -2.900   4.779   0.042  0.00  0.00    -0.275 OA
ATOM      4  N   UNL     1      -1.375   6.392   0.044  0.00  0.00    -0.312 N 
ATOM      5  H   UNL     1      -0.438   6.640   0.040  0.00  0.00    +0.149 HD
BRANCH   4   6
ATOM      6  C   UNL     1      -2.409   7.430   0.054  0.00  0.00    +0.076 C 
ATOM      7  C   UNL     1      -2.851   7.695   1.495  0.00  0.00    +0.028 C 
BRANCH   6   8
ATOM      8  C   UNL     1      -1.845   8.717  -0.551  0.00  0.00    -0.010 C 
ATOM      9  C   UNL     1      -1.403   8.452  -1.992  0.00  0.00    +0.012 C 
ATOM     10  C   UNL     1      -0.840   9.739  -2.597  0.00  0.00    -0.010 C 
ATOM     11  C   UNL     1      -1.919  10.823  -2.586  0.00  0.00    +0.007 C 
ATOM     12  C   UNL     1      -2.361  11.088  -1.145  0.00  0.00    -0.010 C 
ATOM     13  C   UNL     1      -2.924   9.801  -0.540  0.00  0.00    +0.012 C 
ATOM     14  C   UNL     1      -1.159  11.556  -0.321  0.00  0.00    +0.007 C 
ATOM     15  C   UNL     1      -0.080  10.472  -0.333  0.00  0.00    -0.010 C 
ATOM     16  C   UNL     1       0.362  10.207  -1.773  0.00  0.00    +0.007 C 
ATOM     17  C   UNL     1      -0.644   9.184   0.273  0.00  0.00    +0.012 C 
ENDBRANCH   6   8
ENDBRANCH   4   6
ENDBRANCH   1   2
BRANCH   1  18
ATOM     18  S   UNL     1      -1.448   2.391   0.022  0.00  0.00    -0.075 S 
BRANCH  18  28
ATOM     19  C   UNL     1       1.534  -5.306  -0.042  0.00  0.00    +0.067 C 
ATOM     20  C   UNL     1       1.919  -3.849  -0.037  0.00  0.00    +0.061 A 
ATOM     21  C   UNL     1       3.225  -3.347  -0.047  0.00  0.00    +0.048 A 
ATOM     22  C   UNL     1       3.154  -1.995  -0.039  0.00  0.00    +0.045 A 
ATOM     23  N   UNL     1       1.839  -1.654  -0.024  0.00  0.00    -0.201 N 
ATOM     24  N   UNL     1       1.089  -2.837  -0.018  0.00  0.00    -0.169 NA
ATOM     25  C   UNL     1       1.327  -0.356  -0.013  0.00  0.00    +0.270 A 
ATOM     26  N   UNL     1       2.021   0.753  -0.013  0.00  0.00    -0.106 NA
ATOM     27  N   UNL     1       1.232   1.767  -0.000  0.00  0.00    -0.119 NA
ATOM     28  C   UNL     1      -0.017   1.364   0.009  0.00  0.00    +0.210 A 
ATOM     29  N   UNL     1       0.002  -0.004   0.002  0.00  0.00    -0.208 N 
ATOM     30  C   UNL     1       4.321  -1.042  -0.045  0.00  0.00    +0.066 C 
BRANCH  29  31
ATOM     31  N   UNL     1      -1.075  -0.844   0.008  0.00  0.00    -0.293 N 
ATOM     32  H   UNL     1      -1.369  -1.062  -0.932  0.00  0.00    +0.163 HD
ATOM     33  H   UNL     1      -0.875  -1.685   0.528  0.00  0.00    +0.163 HD
ENDBRANCH  29  31
ENDBRANCH  18  28
ENDBRANCH   1  18
TORSDOF 6
