REMARK  Name = ZINC25385856
REMARK  9 active torsions:
REMARK  status: ('A' for Active; 'I' for Inactive)
REMARK    1  A    between atoms: C_1  and  C_2
REMARK    2  A    between atoms: C_2  and  C_4
REMARK    3  A    between atoms: C_2  and  N_7
REMARK    4  A    between atoms: C_4  and  O_5
REMARK    5  A    between atoms: O_5  and  C_6
REMARK    6  A    between atoms: C_11  and  C_13
REMARK    7  A    between atoms: C_13  and  C_15
REMARK    8  A    between atoms: C_13  and  S_16
REMARK    9  A    between atoms: S_16  and  C_17
REMARK                            x       y       z     vdW  Elec       q    Type
REMARK                         _______ _______ _______ _____ _____    ______ ____
ROOT
ATOM      1  N   UNL     1      -1.191   1.869   0.018  0.00  0.00    -0.294 N 
ATOM      2  C   UNL     1      -0.014   1.211   0.009  0.00  0.00    +0.306 C 
ATOM      3  O   UNL     1       0.002  -0.004   0.002  0.00  0.00    -0.252 OA
ATOM      4  N   UNL     1       1.143   1.901   0.001  0.00  0.00    -0.239 N 
ATOM      5  C   UNL     1       2.320   1.243  -0.013  0.00  0.00    +0.233 C 
ATOM      6  O   UNL     1       2.336   0.031  -0.020  0.00  0.00    -0.274 OA
ATOM      7  H   UNL     1      -1.206   2.969   0.024  0.00  0.00    +0.151 HD
ATOM      8  H   UNL     1       1.129   3.001   0.007  0.00  0.00    +0.159 HD
ENDROOT
BRANCH   1  10
ATOM      9  C   UNL     1      -2.830   0.758  -1.417  0.00  0.00    +0.030 C 
ATOM     10  C   UNL     1      -2.449   1.119   0.020  0.00  0.00    +0.097 C 
BRANCH  10  11
ATOM     11  C   UNL     1      -3.554   1.978   0.639  0.00  0.00    +0.181 C 
BRANCH  11  12
ATOM     12  O   UNL     1      -3.793   3.117  -0.190  0.00  0.00    -0.381 OA
ATOM     13  C   UNL     1      -4.812   3.990   0.301  0.00  0.00    +0.194 C 
ENDBRANCH  11  12
ENDBRANCH  10  11
ENDBRANCH   1  10
BRANCH   5  14
ATOM     14  C   UNL     1       3.614   2.014  -0.022  0.00  0.00    +0.136 C 
ATOM     15  C   UNL     1       3.911   2.498  -1.442  0.00  0.00    +0.029 C 
BRANCH  14  16
ATOM     16  S   UNL     1       4.962   0.940   0.545  0.00  0.00    -0.084 S 
BRANCH  16  17
ATOM     17  C   UNL     1       6.358   2.011   0.620  0.00  0.00    +0.161 A 
ATOM     18  N   UNL     1       6.443   3.296   0.333  0.00  0.00    -0.133 NA
ATOM     19  N   UNL     1       7.646   3.950   0.468  0.00  0.00    -0.125 NA
ATOM     20  C   UNL     1       8.711   3.287   0.872  0.00  0.00    +0.180 A 
ATOM     21  S   UNL     1       8.040   1.647   1.099  0.00  0.00    -0.025 S 
ATOM     22  N   UNL     1      10.010   3.742   1.069  0.00  0.00    -0.336 N 
ATOM     23  H   UNL     1      10.790   3.047   1.414  0.00  0.00    +0.144 HD
ATOM     24  H   UNL     1      10.258   4.797   0.880  0.00  0.00    +0.144 HD
ENDBRANCH  16  17
ENDBRANCH  14  16
ENDBRANCH   5  14
TORSDOF 6
