REMARK  Name = ZINC03085999
REMARK  5 active torsions:
REMARK  status: ('A' for Active; 'I' for Inactive)
REMARK    1  A    between atoms: C_1  and  C_2
REMARK    2  A    between atoms: C_7  and  N_8
REMARK    3  A    between atoms: N_11  and  N_12
REMARK    4  A    between atoms: C_13  and  C_15
REMARK    5  A    between atoms: C_20  and  O_21
REMARK                            x       y       z     vdW  Elec       q    Type
REMARK                         _______ _______ _______ _____ _____    ______ ____
ROOT
ATOM      1  N   UNL     1       0.087  -2.026   6.020  0.00  0.00    -0.268 N 
ATOM      2  C   UNL     1       0.072  -0.679   6.035  0.00  0.00    +0.320 C 
ATOM      3  O   UNL     1       0.066  -0.083   7.095  0.00  0.00    -0.251 OA
ATOM      4  N   UNL     1       0.065   0.008   4.876  0.00  0.00    -0.218 N 
ATOM      5  H   UNL     1       0.009  -2.503   5.179  0.00  0.00    +0.156 HD
ATOM      6  H   UNL     1       0.054   0.978   4.887  0.00  0.00    +0.174 HD
ENDROOT
BRANCH   1  13
ATOM      7  C   UNL     1      -0.940  -4.678   6.123  0.00  0.00    +0.046 C 
ATOM      8  C   UNL     1      -0.274  -4.035   7.312  0.00  0.00    -0.028 A 
ATOM      9  C   UNL     1      -0.144  -4.737   8.495  0.00  0.00    +0.025 A 
ATOM     10  C   UNL     1       0.463  -4.146   9.589  0.00  0.00    +0.041 A 
ATOM     11  C   UNL     1       0.945  -2.851   9.500  0.00  0.00    +0.022 A 
ATOM     12  C   UNL     1       0.822  -2.147   8.318  0.00  0.00    +0.025 A 
ATOM     13  C   UNL     1       0.213  -2.738   7.219  0.00  0.00    +0.038 A 
ATOM     14 CL   UNL     1       0.620  -5.029  11.075  0.00  0.00    -0.084 Cl
ENDBRANCH   1  13
BRANCH   4  15
ATOM     15  N   UNL     1       0.072  -0.679   3.655  0.00  0.00    -0.229 N 
ATOM     16  C   UNL     1       0.065   0.008   2.495  0.00  0.00    +0.264 C 
ATOM     17  O   UNL     1       0.052   1.224   2.509  0.00  0.00    -0.269 OA
ATOM     18  H   UNL     1       0.083  -1.649   3.644  0.00  0.00    +0.173 HD
BRANCH  16  19
ATOM     19  C   UNL     1       0.073  -0.715   1.209  0.00  0.00    +0.079 A 
ATOM     20  C   UNL     1       0.087  -2.112   1.189  0.00  0.00    +0.017 A 
ATOM     21  C   UNL     1       0.094  -2.781  -0.015  0.00  0.00    +0.001 A 
ATOM     22  C   UNL     1       0.086  -2.076  -1.208  0.00  0.00    +0.004 A 
ATOM     23  C   UNL     1       0.067  -0.695  -1.202  0.00  0.00    +0.046 A 
ATOM     24  C   UNL     1       0.065  -0.005   0.001  0.00  0.00    +0.129 A 
BRANCH  24  25
ATOM     25  O   UNL     1       0.050   1.352   0.008  0.00  0.00    -0.506 OA
ATOM     26  H   UNL     1       0.929   1.754   0.010  0.00  0.00    +0.292 HD
ENDBRANCH  24  25
ENDBRANCH  16  19
ENDBRANCH   4  15
TORSDOF 4
