REMARK  Name = ZINC07159554
REMARK  4 active torsions:
REMARK  status: ('A' for Active; 'I' for Inactive)
REMARK    1  A    between atoms: C_4  and  N_7
REMARK    2  A    between atoms: C_11  and  C_13
REMARK    3  A    between atoms: N_14  and  N_15
REMARK    4  A    between atoms: C_19  and  C_22
REMARK                            x       y       z     vdW  Elec       q    Type
REMARK                         _______ _______ _______ _____ _____    ______ ____
ROOT
ATOM      1  N   UNL     1     -10.121   4.321   4.363  0.00  0.00    -0.294 N 
ATOM      2  C   UNL     1      -8.834   4.268   4.867  0.00  0.00    +0.164 A 
ATOM      3  N   UNL     1      -8.405   4.582   6.078  0.00  0.00    -0.212 NA
ATOM      4  C   UNL     1      -7.137   4.476   6.404  0.00  0.00    +0.147 A 
ATOM      5  C   UNL     1      -6.259   4.026   5.446  0.00  0.00    +0.072 A 
ATOM      6  S   UNL     1      -7.372   3.779   4.069  0.00  0.00    -0.050 S 
ATOM      7 CL   UNL     1      -6.586   4.890   7.997  0.00  0.00    -0.061 Cl
ATOM      8  H   UNL     1     -10.282   4.140   3.423  0.00  0.00    +0.154 HD
ENDROOT
BRANCH   1  12
ATOM      9  C   UNL     1     -13.307   5.256   6.877  0.00  0.00    +0.000 A 
ATOM     10  C   UNL     1     -13.404   5.501   5.519  0.00  0.00    +0.002 A 
ATOM     11  C   UNL     1     -12.350   5.192   4.683  0.00  0.00    +0.023 A 
ATOM     12  C   UNL     1     -11.190   4.635   5.206  0.00  0.00    +0.033 A 
ATOM     13  C   UNL     1     -11.098   4.385   6.570  0.00  0.00    +0.023 A 
ATOM     14  C   UNL     1     -12.154   4.701   7.402  0.00  0.00    +0.002 A 
ENDBRANCH   1  12
BRANCH   5  15
ATOM     15  C   UNL     1      -4.811   3.813   5.529  0.00  0.00    +0.148 C 
ATOM     16  N   UNL     1      -4.158   3.375   4.492  0.00  0.00    -0.188 NA
BRANCH  16  17
ATOM     17  N   UNL     1      -2.774   3.172   4.571  0.00  0.00    -0.221 N 
ATOM     18  C   UNL     1      -2.076   2.705   3.466  0.00  0.00    +0.138 A 
ATOM     19  C   UNL     1      -0.701   2.505   3.551  0.00  0.00    +0.045 A 
ATOM     20  C   UNL     1      -0.019   2.040   2.442  0.00  0.00    +0.017 A 
ATOM     21  C   UNL     1      -0.737   1.788   1.279  0.00  0.00    +0.073 A 
ATOM     22  C   UNL     1      -2.099   2.014   1.263  0.00  0.00    +0.125 A 
ATOM     23  N   UNL     1      -2.725   2.454   2.338  0.00  0.00    -0.238 NA
ATOM     24  H   UNL     1      -2.303   3.358   5.399  0.00  0.00    +0.176 HD
BRANCH  21  25
ATOM     25  C   UNL     1      -0.035   1.280   0.046  0.00  0.00    +0.419 C 
ATOM     26  F   UNL     1      -0.023  -0.119   0.060  0.00  0.00    -0.166 F 
ATOM     27  F   UNL     1       1.280   1.757   0.028  0.00  0.00    -0.166 F 
ATOM     28  F   UNL     1      -0.711   1.729  -1.093  0.00  0.00    -0.166 F 
ENDBRANCH  21  25
ENDBRANCH  16  17
ENDBRANCH   5  15
TORSDOF 4
