REMARK  Name = ZINC37190902
REMARK  5 active torsions:
REMARK  status: ('A' for Active; 'I' for Inactive)
REMARK    1  A    between atoms: C_1  and  C_2
REMARK    2  A    between atoms: C_2  and  C_4
REMARK    3  A    between atoms: C_2  and  S_13
REMARK    4  A    between atoms: S_13  and  C_14
REMARK    5  A    between atoms: C_15  and  N_20
REMARK                            x       y       z     vdW  Elec       q    Type
REMARK                         _______ _______ _______ _____ _____    ______ ____
ROOT
ATOM      1  C   UNL     1      -0.019   1.526   0.010  0.00  0.00    +0.029 C 
ATOM      2  C   UNL     1       0.002  -0.004   0.002  0.00  0.00    +0.136 C 
ENDROOT
BRANCH   2   3
ATOM      3  C   UNL     1       0.731  -0.503   1.223  0.00  0.00    +0.229 C 
ATOM      4  O   UNL     1       0.105  -0.891   2.187  0.00  0.00    -0.274 OA
ATOM      5  N   UNL     1       2.079  -0.519   1.244  0.00  0.00    -0.301 N 
ATOM      6  C   UNL     1       2.795  -0.044   0.082  0.00  0.00    +0.108 C 
ATOM      7  C   UNL     1       3.030  -1.219  -0.900  0.00  0.00    +0.019 C 
ATOM      8  C   UNL     1       4.032  -2.147  -0.354  0.00  0.00    +0.002 C 
ATOM      9  C   UNL     1       3.621  -2.822   0.951  0.00  0.00    +0.002 C 
ATOM     10  C   UNL     1       3.963  -1.919   2.110  0.00  0.00    +0.019 C 
ATOM     11  C   UNL     1       2.762  -1.014   2.455  0.00  0.00    +0.108 C 
ENDBRANCH   2   3
BRANCH   2  12
ATOM     12  S   UNL     1      -1.700  -0.632   0.015  0.00  0.00    -0.092 S 
BRANCH  12  13
ATOM     13  C   UNL     1      -2.365  -0.093  -1.525  0.00  0.00    +0.118 A 
ATOM     14  C   UNL     1      -3.687  -0.402  -1.856  0.00  0.00    +0.057 A 
ATOM     15  C   UNL     1      -4.194   0.030  -3.074  0.00  0.00    +0.027 A 
ATOM     16  C   UNL     1      -3.362   0.755  -3.917  0.00  0.00    +0.022 A 
ATOM     17  C   UNL     1      -2.067   1.023  -3.525  0.00  0.00    +0.112 A 
ATOM     18  N   UNL     1      -1.610   0.605  -2.358  0.00  0.00    -0.247 NA
BRANCH  14  19
ATOM     19  N   UNL     1      -4.488  -1.136  -0.973  0.00  0.00    -0.356 N 
ATOM     20  H   UNL     1      -4.126  -1.435  -0.124  0.00  0.00    +0.142 HD
ATOM     21  H   UNL     1      -5.405  -1.346  -1.210  0.00  0.00    +0.142 HD
ENDBRANCH  14  19
ENDBRANCH  12  13
ENDBRANCH   2  12
TORSDOF 4
