REMARK  Name = ZINC40568632
REMARK  11 active torsions:
REMARK  status: ('A' for Active; 'I' for Inactive)
REMARK    1  A    between atoms: C_1  and  C_2
REMARK    2  A    between atoms: C_2  and  N_3
REMARK    3  A    between atoms: C_4  and  C_27
REMARK    4  A    between atoms: C_7  and  C_10
REMARK    5  A    between atoms: C_10  and  C_12
REMARK    6  A    between atoms: C_10  and  C_23
REMARK    7  A    between atoms: C_13  and  C_22
REMARK    8  A    between atoms: N_14  and  C_20
REMARK    9  A    between atoms: C_20  and  C_21
REMARK   10  A    between atoms: C_23  and  C_24
REMARK   11  A    between atoms: C_23  and  C_25
REMARK                            x       y       z     vdW  Elec       q    Type
REMARK                         _______ _______ _______ _____ _____    ______ ____
ROOT
ATOM      1  C   UNL     1      -3.976  -1.170  -2.506  0.00  0.00    +0.066 C 
ENDROOT
BRANCH   1   6
ATOM      2  N   UNL     1      -0.484  -0.858  -1.150  0.00  0.00    -0.312 N 
ATOM      3  C   UNL     1      -0.661  -1.147   0.166  0.00  0.00    +0.023 A 
ATOM      4  C   UNL     1      -1.885  -1.446   0.651  0.00  0.00    +0.072 A 
ATOM      5  C   UNL     1      -2.998  -1.460  -0.214  0.00  0.00    +0.190 A 
ATOM      6  C   UNL     1      -2.810  -1.165  -1.552  0.00  0.00    +0.071 A 
ATOM      7  C   UNL     1      -1.522  -0.856  -2.006  0.00  0.00    +0.259 A 
ATOM      8  O   UNL     1      -1.340  -0.589  -3.184  0.00  0.00    -0.267 OA
ATOM      9  O   UNL     1      -4.232  -1.759   0.257  0.00  0.00    -0.287 OA
ATOM     10  C   UNL     1       0.524  -1.134   1.096  0.00  0.00    +0.064 C 
BRANCH   2  12
ATOM     11  C   UNL     1       1.593  -1.833  -1.996  0.00  0.00    +0.027 C 
ATOM     12  C   UNL     1       0.858  -0.539  -1.643  0.00  0.00    +0.122 C 
ENDBRANCH   2  12
ENDBRANCH   1   6
BRANCH   1  13
ATOM     13  C   UNL     1      -4.056   0.160  -3.209  0.00  0.00    +0.026 A 
ATOM     14  C   UNL     1      -4.740   1.181  -2.651  0.00  0.00    +0.026 A 
ATOM     15  N   UNL     1      -4.822   2.388  -3.271  0.00  0.00    -0.312 N 
ATOM     16  C   UNL     1      -4.224   2.600  -4.458  0.00  0.00    +0.255 A 
ATOM     17  O   UNL     1      -4.311   3.693  -4.997  0.00  0.00    -0.268 OA
ATOM     18  C   UNL     1      -3.503   1.573  -5.076  0.00  0.00    +0.121 A 
ATOM     19  C   UNL     1      -3.411   0.344  -4.449  0.00  0.00    +0.189 A 
ATOM     20  O   UNL     1      -2.716  -0.669  -5.019  0.00  0.00    -0.287 OA
ATOM     21  C   UNL     1      -5.423   0.980  -1.322  0.00  0.00    +0.064 C 
BRANCH  15  22
ATOM     22  C   UNL     1      -5.573   3.474  -2.637  0.00  0.00    +0.122 C 
ATOM     23  C   UNL     1      -4.619   4.341  -1.814  0.00  0.00    +0.027 C 
ENDBRANCH  15  22
ENDBRANCH   1  13
BRANCH   1  24
ATOM     24  C   UNL     1      -3.784  -2.283  -3.539  0.00  0.00    -0.005 C 
ATOM     25  C   UNL     1      -3.888  -3.644  -2.848  0.00  0.00    +0.008 C 
ATOM     26  C   UNL     1      -4.868  -2.172  -4.614  0.00  0.00    +0.008 C 
ENDBRANCH   1  24
TORSDOF 5
