REMARK  Name = ZINC14158140
REMARK  4 active torsions:
REMARK  status: ('A' for Active; 'I' for Inactive)
REMARK    1  A    between atoms: C_3  and  S_20
REMARK    2  A    between atoms: C_6  and  N_7
REMARK    3  A    between atoms: C_8  and  C_10
REMARK    4  A    between atoms: S_20  and  N_23
REMARK                            x       y       z     vdW  Elec       q    Type
REMARK                         _______ _______ _______ _____ _____    ______ ____
ROOT
ATOM      1  C   UNL     1      -2.672   1.486   3.018  0.00  0.00    +0.025 A 
ATOM      2  C   UNL     1      -1.952   1.110   1.901  0.00  0.00    +0.030 A 
ATOM      3  C   UNL     1      -0.912   1.901   1.449  0.00  0.00    +0.106 A 
ATOM      4  C   UNL     1      -0.585   3.067   2.116  0.00  0.00    +0.030 A 
ATOM      5  C   UNL     1      -1.305   3.451   3.231  0.00  0.00    +0.025 A 
ATOM      6  C   UNL     1      -2.350   2.660   3.687  0.00  0.00    +0.034 A 
ENDROOT
BRANCH   6   7
ATOM      7  N   UNL     1      -3.078   3.044   4.818  0.00  0.00    -0.281 N 
ATOM      8  C   UNL     1      -3.282   4.351   5.076  0.00  0.00    +0.255 C 
ATOM      9  O   UNL     1      -2.917   5.193   4.277  0.00  0.00    -0.269 OA
ATOM     10  H   UNL     1      -3.436   2.369   5.417  0.00  0.00    +0.155 HD
BRANCH   8  11
ATOM     11  C   UNL     1      -3.943   4.757   6.319  0.00  0.00    +0.075 A 
ATOM     12  C   UNL     1      -4.245   6.029   6.772  0.00  0.00    +0.024 A 
ATOM     13  C   UNL     1      -4.889   6.152   7.997  0.00  0.00    -0.036 A 
ATOM     14  C   UNL     1      -5.143   5.003   8.665  0.00  0.00    -0.006 A 
ATOM     15  S   UNL     1      -4.577   3.740   7.644  0.00  0.00    -0.088 S 
ATOM     16  C   UNL     1      -5.780   4.875  10.030  0.00  0.00    +0.043 C 
ATOM     17  C   UNL     1      -7.250   5.306   9.889  0.00  0.00    +0.005 C 
ATOM     18  C   UNL     1      -7.354   6.813   9.867  0.00  0.00    +0.001 C 
ATOM     19  C   UNL     1      -6.860   7.501   8.620  0.00  0.00    +0.005 C 
ATOM     20  C   UNL     1      -5.332   7.516   8.539  0.00  0.00    +0.036 C 
ENDBRANCH   8  11
ENDBRANCH   6   7
BRANCH   3  21
ATOM     21  S   UNL     1       0.004   1.418   0.023  0.00  0.00    +0.061 S 
ATOM     22  O   UNL     1      -0.142   0.009  -0.096  0.00  0.00    -0.153 OA
ATOM     23  O   UNL     1       1.275   2.046   0.124  0.00  0.00    -0.153 OA
BRANCH  21  24
ATOM     24  N   UNL     1      -0.750   2.084  -1.292  0.00  0.00    -0.172 NA
ATOM     25  C   UNL     1      -1.808   1.355  -2.009  0.00  0.00    +0.137 C 
ATOM     26  C   UNL     1      -3.020   2.289  -2.153  0.00  0.00    +0.177 C 
ATOM     27  O   UNL     1      -2.595   3.524  -2.735  0.00  0.00    -0.377 OA
ATOM     28  C   UNL     1      -1.655   4.252  -1.940  0.00  0.00    +0.177 C 
ATOM     29  C   UNL     1      -0.377   3.421  -1.782  0.00  0.00    +0.137 C 
ENDBRANCH  21  24
ENDBRANCH   3  21
TORSDOF 4
