REMARK  Name = ZINC05929458
REMARK  7 active torsions:
REMARK  status: ('A' for Active; 'I' for Inactive)
REMARK    1  A    between atoms: C_1  and  C_2
REMARK    2  A    between atoms: C_5  and  S_8
REMARK    3  A    between atoms: S_8  and  N_11
REMARK    4  A    between atoms: C_14  and  C_17
REMARK    5  A    between atoms: N_19  and  N_20
REMARK    6  A    between atoms: C_21  and  C_22
REMARK    7  A    between atoms: C_25  and  O_28
REMARK                            x       y       z     vdW  Elec       q    Type
REMARK                         _______ _______ _______ _____ _____    ______ ____
ROOT
ATOM      1  N   UNL     1      -9.815   0.074  -1.033  0.00  0.00    -0.177 NA
ATOM      2  C   UNL     1      -9.797   1.022   0.089  0.00  0.00    +0.110 C 
ATOM      3  C   UNL     1      -8.482   1.806   0.052  0.00  0.00    +0.030 C 
ATOM      4  C   UNL     1      -7.308   0.824   0.041  0.00  0.00    +0.079 C 
ATOM      5  C   UNL     1      -7.384  -0.051  -1.212  0.00  0.00    +0.030 C 
ATOM      6  C   UNL     1      -8.688  -0.856  -1.190  0.00  0.00    +0.110 C 
ENDROOT
BRANCH   4   7
ATOM      7  C   UNL     1      -6.011   1.592   0.039  0.00  0.00    +0.235 C 
ATOM      8  O   UNL     1      -6.024   2.805   0.046  0.00  0.00    -0.274 OA
ATOM      9  N   UNL     1      -4.837   0.931   0.030  0.00  0.00    -0.207 N 
ATOM     10  H   UNL     1      -4.826  -0.039   0.025  0.00  0.00    +0.177 HD
BRANCH   9  11
ATOM     11  N   UNL     1      -3.631   1.645   0.028  0.00  0.00    -0.188 NA
ATOM     12  C   UNL     1      -2.500   1.008   0.019  0.00  0.00    +0.138 C 
BRANCH  12  13
ATOM     13  C   UNL     1      -1.232   1.759   0.017  0.00  0.00    -0.005 A 
ATOM     14  C   UNL     1      -0.013   1.076   0.008  0.00  0.00    +0.013 A 
ATOM     15  C   UNL     1       1.171   1.782   0.001  0.00  0.00    +0.046 A 
ATOM     16  C   UNL     1       1.153   3.171   0.008  0.00  0.00    +0.117 A 
ATOM     17  C   UNL     1      -0.056   3.854   0.023  0.00  0.00    +0.046 A 
ATOM     18  C   UNL     1      -1.244   3.156   0.030  0.00  0.00    +0.013 A 
BRANCH  16  19
ATOM     19  O   UNL     1       2.322   3.863   0.001  0.00  0.00    -0.507 OA
ATOM     20  H   UNL     1       2.652   4.068  -0.885  0.00  0.00    +0.292 HD
ENDBRANCH  16  19
ENDBRANCH  12  13
ENDBRANCH   9  11
ENDBRANCH   4   7
BRANCH   1  21
ATOM     21  S   UNL     1     -11.080   0.052  -2.101  0.00  0.00    +0.061 S 
ATOM     22  O   UNL     1     -11.104  -1.246  -2.677  0.00  0.00    -0.153 OA
ATOM     23  O   UNL     1     -12.198   0.603  -1.417  0.00  0.00    -0.153 OA
BRANCH  21  28
ATOM     24  C   UNL     1      -9.723   3.889  -6.556  0.00  0.00    +0.044 C 
ATOM     25  C   UNL     1     -10.062   2.931  -5.443  0.00  0.00    -0.050 A 
ATOM     26  C   UNL     1      -9.691   1.602  -5.538  0.00  0.00    +0.005 A 
ATOM     27  C   UNL     1     -10.002   0.723  -4.517  0.00  0.00    +0.029 A 
ATOM     28  C   UNL     1     -10.684   1.173  -3.402  0.00  0.00    +0.105 A 
ATOM     29  C   UNL     1     -11.059   2.500  -3.309  0.00  0.00    +0.029 A 
ATOM     30  C   UNL     1     -10.744   3.380  -4.327  0.00  0.00    +0.005 A 
ENDBRANCH  21  28
ENDBRANCH   1  21
TORSDOF 6
