REMARK  Name = ZINC08965636
REMARK  6 active torsions:
REMARK  status: ('A' for Active; 'I' for Inactive)
REMARK    1  A    between atoms: C_1  and  C_2
REMARK    2  A    between atoms: C_7  and  N_8
REMARK    3  A    between atoms: C_11  and  C_16
REMARK    4  A    between atoms: C_16  and  O_17
REMARK    5  A    between atoms: O_17  and  C_18
REMARK    6  A    between atoms: C_27  and  O_29
REMARK                            x       y       z     vdW  Elec       q    Type
REMARK                         _______ _______ _______ _____ _____    ______ ____
ROOT
ATOM      1  N   UNL     1       0.124  -4.217  -7.537  0.00  0.00    -0.283 N 
ATOM      2  C   UNL     1       0.996  -4.296  -6.468  0.00  0.00    +0.224 A 
ATOM      3  N   UNL     1       1.555  -3.191  -5.982  0.00  0.00    -0.196 NA
ATOM      4  C   UNL     1       2.389  -3.265  -4.959  0.00  0.00    +0.173 A 
ATOM      5  N   UNL     1       2.674  -4.437  -4.419  0.00  0.00    -0.196 NA
ATOM      6  C   UNL     1       2.115  -5.546  -4.896  0.00  0.00    +0.217 A 
ATOM      7  N   UNL     1       1.276  -5.475  -5.925  0.00  0.00    -0.181 NA
ATOM      8  N   UNL     1       2.409  -6.769  -4.328  0.00  0.00    -0.327 N 
ATOM      9  H   UNL     1      -0.147  -3.351  -7.879  0.00  0.00    +0.155 HD
ATOM     10  H   UNL     1       2.004  -7.577  -4.679  0.00  0.00    +0.145 HD
ATOM     11  H   UNL     1       3.021  -6.820  -3.577  0.00  0.00    +0.145 HD
ENDROOT
BRANCH   1  18
ATOM     12  C   UNL     1      -2.354  -4.081  -8.928  0.00  0.00    +0.045 C 
ATOM     13  C   UNL     1      -1.573  -5.365  -8.814  0.00  0.00    -0.029 A 
ATOM     14  C   UNL     1      -2.056  -6.521  -9.395  0.00  0.00    +0.005 A 
ATOM     15  C   UNL     1      -1.340  -7.699  -9.292  0.00  0.00    +0.000 A 
ATOM     16  C   UNL     1      -0.138  -7.724  -8.608  0.00  0.00    +0.002 A 
ATOM     17  C   UNL     1       0.353  -6.570  -8.030  0.00  0.00    +0.023 A 
ATOM     18  C   UNL     1      -0.367  -5.386  -8.127  0.00  0.00    +0.036 A 
ENDBRANCH   1  18
BRANCH   4  19
ATOM     19  C   UNL     1       3.020  -2.011  -4.411  0.00  0.00    +0.305 C 
BRANCH  19  20
ATOM     20  O   UNL     1       2.187  -1.467  -3.385  0.00  0.00    -0.484 OA
BRANCH  20  21
ATOM     21  C   UNL     1       2.614  -0.327  -2.783  0.00  0.00    +0.125 A 
ATOM     22  C   UNL     1       3.810   0.252  -3.175  0.00  0.00    +0.046 A 
ATOM     23  C   UNL     1       4.243   1.411  -2.562  0.00  0.00    +0.004 A 
ATOM     24  C   UNL     1       3.483   1.985  -1.563  0.00  0.00    +0.006 A 
ATOM     25  C   UNL     1       2.284   1.407  -1.165  0.00  0.00    -0.013 A 
ATOM     26  C   UNL     1       1.847   0.254  -1.775  0.00  0.00    -0.000 A 
ATOM     27  C   UNL     1       0.554  -0.422  -1.400  0.00  0.00    +0.039 C 
ATOM     28  C   UNL     1       0.071   0.062  -0.035  0.00  0.00    +0.008 C 
ATOM     29  C   UNL     1       0.067   1.595  -0.039  0.00  0.00    +0.036 C 
ATOM     30  C   UNL     1       1.514   2.081  -0.059  0.00  0.00    +0.145 C 
BRANCH  30  31
ATOM     31  O   UNL     1       1.534   3.495  -0.265  0.00  0.00    -0.387 OA
ATOM     32  H   UNL     1       2.423   3.877  -0.290  0.00  0.00    +0.210 HD
ENDBRANCH  30  31
ENDBRANCH  20  21
ENDBRANCH  19  20
ENDBRANCH   4  19
TORSDOF 5
