REMARK  Name = ZINC01038935
REMARK  2 active torsions:
REMARK  status: ('A' for Active; 'I' for Inactive)
REMARK    1  A    between atoms: C_5  and  N_7
REMARK    2  A    between atoms: N_10  and  C_11
REMARK                            x       y       z     vdW  Elec       q    Type
REMARK                         _______ _______ _______ _____ _____    ______ ____
ROOT
ATOM      1  N   UNL     1       1.095   2.034   0.018  0.00  0.00    -0.268 N 
ATOM      2  C   UNL     1      -0.022   1.280   0.002  0.00  0.00    +0.308 C 
ATOM      3  O   UNL     1       0.063   0.067  -0.011  0.00  0.00    -0.252 OA
ATOM      4  N   UNL     1      -1.233   1.870  -0.007  0.00  0.00    -0.268 N 
ATOM      5  H   UNL     1       1.030   2.999  -0.041  0.00  0.00    +0.156 HD
ATOM      6  H   UNL     1      -1.302   2.835  -0.080  0.00  0.00    +0.156 HD
ENDROOT
BRANCH   1  11
ATOM      7  C   UNL     1       3.819  -0.404  -0.386  0.00  0.00    +0.002 A 
ATOM      8  C   UNL     1       4.832   0.214   0.324  0.00  0.00    +0.001 A 
ATOM      9  C   UNL     1       4.608   1.435   0.932  0.00  0.00    +0.017 A 
ATOM     10  C   UNL     1       3.370   2.041   0.833  0.00  0.00    +0.039 A 
ATOM     11  C   UNL     1       2.350   1.423   0.121  0.00  0.00    +0.049 A 
ATOM     12  C   UNL     1       2.578   0.194  -0.485  0.00  0.00    +0.024 A 
ATOM     13 BR   UNL     1       3.064   3.711   1.667  0.00  0.00    -0.048 Br
ENDBRANCH   1  11
BRANCH   4  14
ATOM     14  C   UNL     1      -2.392   1.091   0.090  0.00  0.00    +0.049 A 
ATOM     15  C   UNL     1      -2.342  -0.159   0.692  0.00  0.00    +0.024 A 
ATOM     16  C   UNL     1      -3.488  -0.923   0.790  0.00  0.00    +0.002 A 
ATOM     17  C   UNL     1      -4.684  -0.449   0.281  0.00  0.00    +0.001 A 
ATOM     18  C   UNL     1      -4.737   0.794  -0.324  0.00  0.00    +0.017 A 
ATOM     19  C   UNL     1      -3.594   1.565  -0.421  0.00  0.00    +0.039 A 
ATOM     20 BR   UNL     1      -3.667   3.264  -1.249  0.00  0.00    -0.048 Br
ENDBRANCH   4  14
TORSDOF 2
