REMARK  Name = ZINC20597841
REMARK  10 active torsions:
REMARK  status: ('A' for Active; 'I' for Inactive)
REMARK    1  A    between atoms: C_1  and  C_2
REMARK    2  A    between atoms: C_5  and  N_8
REMARK    3  A    between atoms: C_9  and  C_11
REMARK    4  A    between atoms: C_11  and  N_12
REMARK    5  A    between atoms: C_13  and  N_29
REMARK    6  A    between atoms: C_14  and  S_19
REMARK    7  A    between atoms: C_15  and  S_17
REMARK    8  A    between atoms: S_17  and  C_18
REMARK    9  A    between atoms: S_19  and  C_22
REMARK   10  A    between atoms: C_25  and  C_28
REMARK                            x       y       z     vdW  Elec       q    Type
REMARK                         _______ _______ _______ _____ _____    ______ ____
ROOT
ATOM      1  N   UNL     1       3.809  -4.703  -0.371  0.00  0.00    -0.239 N 
ATOM      2  C   UNL     1       4.503  -4.875  -1.526  0.00  0.00    +0.142 A 
ATOM      3  C   UNL     1       5.748  -5.314  -1.198  0.00  0.00    +0.166 A 
ATOM      4  C   UNL     1       5.809  -5.422   0.200  0.00  0.00    +0.146 A 
ATOM      5  N   UNL     1       4.649  -5.056   0.693  0.00  0.00    -0.161 NA
ENDROOT
BRANCH   3   6
ATOM      6  S   UNL     1       7.048  -5.690  -2.326  0.00  0.00    +0.031 S 
ATOM      7  O   UNL     1       6.788  -4.945  -3.508  0.00  0.00    -0.164 OA
ATOM      8  O   UNL     1       8.263  -5.567  -1.600  0.00  0.00    -0.164 OA
BRANCH   6   9
ATOM      9  C   UNL     1       6.888  -7.391  -2.757  0.00  0.00    +0.094 A 
ATOM     10  C   UNL     1       7.539  -8.357  -2.013  0.00  0.00    +0.027 A 
ATOM     11  C   UNL     1       7.411  -9.691  -2.350  0.00  0.00    +0.005 A 
ATOM     12  C   UNL     1       6.638 -10.059  -3.435  0.00  0.00    -0.050 A 
ATOM     13  C   UNL     1       5.991  -9.093  -4.182  0.00  0.00    +0.005 A 
ATOM     14  C   UNL     1       6.116  -7.759  -3.844  0.00  0.00    +0.027 A 
ATOM     15  C   UNL     1       6.501 -11.514  -3.804  0.00  0.00    +0.044 C 
ENDBRANCH   6   9
ENDBRANCH   3   6
BRANCH   2  16
ATOM     16  N   UNL     1       4.027  -4.640  -2.813  0.00  0.00    -0.342 N 
ATOM     17  H   UNL     1       4.680  -4.814  -3.681  0.00  0.00    +0.144 HD
ATOM     18  H   UNL     1       2.998  -4.280  -2.962  0.00  0.00    +0.144 HD
ENDBRANCH   2  16
BRANCH   4  19
ATOM     19  S   UNL     1       7.205  -5.957   1.134  0.00  0.00    -0.106 S 
ATOM     20  C   UNL     1       6.640  -5.870   2.856  0.00  0.00    +0.091 C 
ENDBRANCH   4  19
BRANCH   1  21
ATOM     21  C   UNL     1       2.425  -4.236  -0.258  0.00  0.00    +0.241 C 
BRANCH  21  23
ATOM     22  N   UNL     1       1.237  -2.079  -0.020  0.00  0.00    -0.284 N 
ATOM     23  C   UNL     1       2.410  -2.734  -0.137  0.00  0.00    +0.239 C 
ATOM     24  O   UNL     1       3.452  -2.114  -0.144  0.00  0.00    -0.273 OA
ATOM     25  H   UNL     1       0.298  -2.645   0.074  0.00  0.00    +0.155 HD
BRANCH  22  30
ATOM     26  C   UNL     1       1.143   3.593  -0.015  0.00  0.00    +0.044 C 
ATOM     27  C   UNL     1       1.168   2.086  -0.017  0.00  0.00    -0.050 A 
ATOM     28  C   UNL     1       2.111   1.412  -0.771  0.00  0.00    +0.005 A 
ATOM     29  C   UNL     1       2.137   0.031  -0.774  0.00  0.00    +0.023 A 
ATOM     30  C   UNL     1       1.214  -0.680  -0.019  0.00  0.00    +0.033 A 
ATOM     31  C   UNL     1       0.269  -0.001   0.738  0.00  0.00    +0.023 A 
ATOM     32  C   UNL     1       0.248   1.380   0.737  0.00  0.00    +0.005 A 
ENDBRANCH  22  30
ENDBRANCH  21  23
ENDBRANCH   1  21
TORSDOF 7
