REMARK  Name = ZINC62227560
REMARK  7 active torsions:
REMARK  status: ('A' for Active; 'I' for Inactive)
REMARK    1  A    between atoms: C_1  and  C_2
REMARK    2  A    between atoms: N_4  and  C_5
REMARK    3  A    between atoms: C_7  and  O_20
REMARK    4  A    between atoms: C_9  and  O_19
REMARK    5  A    between atoms: C_11  and  C_17
REMARK    6  A    between atoms: C_14  and  N_16
REMARK    7  A    between atoms: C_17  and  O_18
REMARK                            x       y       z     vdW  Elec       q    Type
REMARK                         _______ _______ _______ _____ _____    ______ ____
ROOT
ATOM      1  C   UNL     1       0.020  -2.136  -1.177  0.00  0.00    +0.147 C 
ATOM      2  C   UNL     1      -0.593  -2.650  -2.484  0.00  0.00    +0.169 C 
ATOM      3  C   UNL     1      -0.496  -4.178  -2.515  0.00  0.00    +0.176 C 
ATOM      4  C   UNL     1       0.970  -4.592  -2.358  0.00  0.00    +0.177 C 
ATOM      5  O   UNL     1       1.487  -4.056  -1.139  0.00  0.00    -0.352 OA
ATOM      6  C   UNL     1       1.466  -2.629  -1.071  0.00  0.00    +0.207 C 
ENDROOT
BRANCH   1  10
ATOM      7  C   UNL     1      -0.018   1.503   0.010  0.00  0.00    +0.109 C 
ATOM      8  C   UNL     1       0.002  -0.004   0.002  0.00  0.00    +0.210 C 
ATOM      9  O   UNL     1       0.020  -0.616   1.049  0.00  0.00    -0.276 OA
ATOM     10  N   UNL     1       0.000  -0.672  -1.169  0.00  0.00    -0.306 N 
ATOM     11  H   UNL     1      -0.015  -0.182  -2.006  0.00  0.00    +0.149 HD
ENDBRANCH   1  10
BRANCH   6  12
ATOM     12  N   UNL     1       2.040  -2.189   0.208  0.00  0.00    -0.304 NA
ATOM     13  H   UNL     1       2.995  -2.502   0.302  0.00  0.00    +0.121 HD
ATOM     14  H   UNL     1       1.977  -1.187   0.307  0.00  0.00    +0.121 HD
ENDBRANCH   6  12
BRANCH   3  15
ATOM     15  O   UNL     1      -1.265  -4.727  -1.443  0.00  0.00    -0.387 OA
ATOM     16  H   UNL     1      -1.249  -5.693  -1.402  0.00  0.00    +0.210 HD
ENDBRANCH   3  15
BRANCH   2  17
ATOM     17  O   UNL     1       0.120  -2.101  -3.594  0.00  0.00    -0.387 OA
ATOM     18  H   UNL     1      -0.215  -2.384  -4.455  0.00  0.00    +0.210 HD
ENDBRANCH   2  17
BRANCH   4  19
ATOM     19  C   UNL     1       1.069  -6.118  -2.329  0.00  0.00    +0.190 C 
BRANCH  19  20
ATOM     20  O   UNL     1       2.444  -6.506  -2.300  0.00  0.00    -0.392 OA
ATOM     21  H   UNL     1       2.582  -7.463  -2.280  0.00  0.00    +0.210 HD
ENDBRANCH  19  20
ENDBRANCH   4  19
TORSDOF 6
