REMARK  Name = ZINC32951636
REMARK  5 active torsions:
REMARK  status: ('A' for Active; 'I' for Inactive)
REMARK    1  A    between atoms: C_1  and  C_2
REMARK    2  A    between atoms: C_5  and  N_9
REMARK    3  A    between atoms: C_10  and  C_12
REMARK    4  A    between atoms: C_12  and  N_13
REMARK    5  A    between atoms: C_21  and  C_24
REMARK                            x       y       z     vdW  Elec       q    Type
REMARK                         _______ _______ _______ _____ _____    ______ ____
ROOT
ATOM      1  C   UNL     1       2.448   4.248   0.001  0.00  0.00    +0.221 C 
ENDROOT
BRANCH   1   2
ATOM      2  N   UNL     1       1.185   3.505   0.009  0.00  0.00    -0.296 N 
ATOM      3  C   UNL     1       1.184   2.125   0.009  0.00  0.00    +0.071 A 
ATOM      4  C   UNL     1       2.384   1.421   0.002  0.00  0.00    +0.028 A 
ATOM      5  C   UNL     1       2.371   0.043   0.003  0.00  0.00    +0.002 A 
ATOM      6  C   UNL     1       1.167  -0.650   0.010  0.00  0.00    +0.002 A 
ATOM      7  C   UNL     1      -0.021   0.019   0.017  0.00  0.00    +0.030 A 
ATOM      8  C   UNL     1      -0.036   1.422   0.016  0.00  0.00    +0.088 A 
ATOM      9  N   UNL     1      -1.208   2.086   0.028  0.00  0.00    -0.245 NA
ATOM     10  C   UNL     1      -1.243   3.387   0.023  0.00  0.00    +0.103 A 
ATOM     11  C   UNL     1       0.004   4.160   0.016  0.00  0.00    +0.273 A 
ATOM     12  O   UNL     1      -0.026   5.378   0.015  0.00  0.00    -0.266 OA
ATOM     13  C   UNL     1      -2.570   4.102   0.031  0.00  0.00    +0.071 C 
ENDBRANCH   1   2
BRANCH   1  15
ATOM     14  N   UNL     1       4.012   5.175  -1.676  0.00  0.00    -0.283 N 
ATOM     15  C   UNL     1       2.872   4.503  -1.423  0.00  0.00    +0.237 C 
ATOM     16  O   UNL     1       2.187   4.103  -2.340  0.00  0.00    -0.274 OA
ATOM     17  H   UNL     1       4.595   5.601  -0.847  0.00  0.00    +0.155 HD
BRANCH  14  22
ATOM     18  C   UNL     1       5.806   5.803  -7.023  0.00  0.00    +0.044 C 
ATOM     19  C   UNL     1       5.330   5.636  -5.603  0.00  0.00    -0.049 A 
ATOM     20  C   UNL     1       3.975   5.636  -5.324  0.00  0.00    +0.005 A 
ATOM     21  C   UNL     1       3.535   5.484  -4.024  0.00  0.00    +0.024 A 
ATOM     22  C   UNL     1       4.455   5.330  -2.995  0.00  0.00    +0.048 A 
ATOM     23  C   UNL     1       5.815   5.335  -3.277  0.00  0.00    +0.039 A 
ATOM     24  C   UNL     1       6.248   5.483  -4.581  0.00  0.00    +0.020 A 
ATOM     25 BR   UNL     1       7.072   5.134  -1.879  0.00  0.00    -0.048 Br
ENDBRANCH  14  22
ENDBRANCH   1  15
TORSDOF 3
