REMARK  Name = ZINC25058663
REMARK  11 active torsions:
REMARK  status: ('A' for Active; 'I' for Inactive)
REMARK    1  A    between atoms: C_1  and  C_2
REMARK    2  A    between atoms: C_4  and  C_28
REMARK    3  A    between atoms: C_5  and  N_9
REMARK    4  A    between atoms: C_6  and  C_8
REMARK    5  A    between atoms: C_10  and  C_12
REMARK    6  A    between atoms: C_12  and  N_13
REMARK    7  A    between atoms: C_14  and  C_16
REMARK    8  A    between atoms: C_16  and  N_17
REMARK    9  A    between atoms: N_17  and  C_18
REMARK   10  A    between atoms: C_18  and  C_20
REMARK   11  A    between atoms: C_18  and  C_21
REMARK                            x       y       z     vdW  Elec       q    Type
REMARK                         _______ _______ _______ _____ _____    ______ ____
ROOT
ATOM      1  N   UNL     1      -5.999   2.898  -1.138  0.00  0.00    -0.308 N 
ATOM      2  C   UNL     1      -7.260   3.314  -1.369  0.00  0.00    +0.196 C 
ATOM      3  O   UNL     1      -7.562   4.472  -1.175  0.00  0.00    -0.278 OA
ATOM      4  H   UNL     1      -5.725   1.847  -1.314  0.00  0.00    +0.149 HD
ENDROOT
BRANCH   1   5
ATOM      5  C   UNL     1      -4.993   3.846  -0.653  0.00  0.00    +0.200 C 
BRANCH   5   7
ATOM      6  N   UNL     1      -2.598   3.812  -0.036  0.00  0.00    -0.284 N 
ATOM      7  C   UNL     1      -3.676   3.135  -0.477  0.00  0.00    +0.234 C 
ATOM      8  O   UNL     1      -3.587   1.952  -0.732  0.00  0.00    -0.274 OA
ATOM      9  H   UNL     1      -2.696   4.864   0.271  0.00  0.00    +0.155 HD
BRANCH   6  14
ATOM     10  C   UNL     1       2.452   1.240   0.236  0.00  0.00    +0.044 C 
ATOM     11  C   UNL     1       1.110   1.923   0.163  0.00  0.00    -0.050 A 
ATOM     12  C   UNL     1       0.499   2.114  -1.062  0.00  0.00    +0.008 A 
ATOM     13  C   UNL     1      -0.728   2.745  -1.132  0.00  0.00    -0.029 A 
ATOM     14  C   UNL     1      -1.352   3.178   0.031  0.00  0.00    +0.039 A 
ATOM     15  C   UNL     1      -0.735   2.984   1.260  0.00  0.00    -0.029 A 
ATOM     16  C   UNL     1       0.494   2.357   1.323  0.00  0.00    +0.008 A 
ATOM     17  C   UNL     1      -1.406   3.457   2.523  0.00  0.00    +0.045 C 
ATOM     18  C   UNL     1      -1.391   2.959  -2.468  0.00  0.00    +0.045 C 
ENDBRANCH   6  14
ENDBRANCH   5   7
ENDBRANCH   1   5
BRANCH   2  19
ATOM     19  C   UNL     1      -8.295   2.339  -1.868  0.00  0.00    +0.016 C 
BRANCH  19  20
ATOM     20  N   UNL     1      -9.579   3.033  -2.040  0.00  0.00    +0.389 N 
ATOM     21  H   UNL     1      -9.902   3.449  -1.074  0.00  0.00    -0.084 HD
ATOM     22  H   UNL     1      -9.461   3.848  -2.769  0.00  0.00    -0.084 HD
BRANCH  20  23
ATOM     23  C   UNL     1     -10.614   2.111  -2.526  0.00  0.00    -0.042 C 
ATOM     24  C   UNL     1     -11.243   1.379  -1.340  0.00  0.00    -0.009 C 
BRANCH  23  25
ATOM     25  C   UNL     1     -11.677   2.891  -3.257  0.00  0.00    -0.043 A 
ATOM     26  C   UNL     1     -11.811   4.249  -3.038  0.00  0.00    +0.003 A 
ATOM     27  C   UNL     1     -12.786   4.964  -3.708  0.00  0.00    +0.000 A 
ATOM     28  C   UNL     1     -13.628   4.321  -4.596  0.00  0.00    +0.001 A 
ATOM     29  C   UNL     1     -13.495   2.963  -4.816  0.00  0.00    +0.020 A 
ATOM     30  C   UNL     1     -12.516   2.248  -4.150  0.00  0.00    +0.043 A 
ATOM     31 CL   UNL     1     -12.344   0.543  -4.430  0.00  0.00    -0.083 Cl
ENDBRANCH  23  25
ENDBRANCH  20  23
ENDBRANCH  19  20
ENDBRANCH   2  19
TORSDOF 7
