REMARK  Name = ZINC53128351
REMARK  6 active torsions:
REMARK  status: ('A' for Active; 'I' for Inactive)
REMARK    1  A    between atoms: C_1  and  C_2
REMARK    2  A    between atoms: C_7  and  C_9
REMARK    3  A    between atoms: C_7  and  N_11
REMARK    4  A    between atoms: C_9  and  O_10
REMARK    5  A    between atoms: N_11  and  S_12
REMARK    6  A    between atoms: S_12  and  N_15
REMARK                            x       y       z     vdW  Elec       q    Type
REMARK                         _______ _______ _______ _____ _____    ______ ____
ROOT
ATOM      1  N   UNL     1       0.084   1.253   2.674  0.00  0.00    -0.171 NA
ATOM      2  H   UNL     1      -0.840   1.522   2.551  0.00  0.00    +0.150 HD
ENDROOT
BRANCH   1   8
ATOM      3  C   UNL     1      -0.450   1.879   0.314  0.00  0.00    +0.007 C 
ATOM      4  C   UNL     1       0.004   0.483  -0.117  0.00  0.00    -0.012 C 
ATOM      5  C   UNL     1      -1.189  -0.474  -0.086  0.00  0.00    +0.003 C 
ATOM      6  C   UNL     1      -1.756  -0.538   1.333  0.00  0.00    +0.002 C 
ATOM      7  C   UNL     1      -0.675  -1.040   2.292  0.00  0.00    +0.026 C 
ATOM      8  C   UNL     1       0.519  -0.084   2.261  0.00  0.00    +0.064 C 
ATOM      9  C   UNL     1       1.085  -0.020   0.842  0.00  0.00    +0.029 C 
BRANCH   8  10
ATOM     10  C   UNL     1       1.600  -0.586   3.220  0.00  0.00    +0.179 C 
BRANCH  10  11
ATOM     11  O   UNL     1       1.125  -0.493   4.565  0.00  0.00    -0.393 OA
ATOM     12  H   UNL     1       1.729  -0.866   5.222  0.00  0.00    +0.209 HD
ENDBRANCH  10  11
ENDBRANCH   8  10
ENDBRANCH   1   8
BRANCH   1  13
ATOM     13  S   UNL     1       1.169   2.306   3.349  0.00  0.00    +0.097 S 
ATOM     14  O   UNL     1       0.408   3.349   3.942  0.00  0.00    -0.141 OA
ATOM     15  O   UNL     1       2.091   1.518   4.091  0.00  0.00    -0.141 OA
BRANCH  13  16
ATOM     16  N   UNL     1       2.025   2.991   2.107  0.00  0.00    -0.170 NA
ATOM     17  C   UNL     1       3.134   2.269   1.465  0.00  0.00    +0.091 C 
ATOM     18  C   UNL     1       2.922   2.305  -0.052  0.00  0.00    -0.065 C 
ATOM     19  N   UNL     1       2.771   3.699  -0.491  0.00  0.00    +0.381 N 
ATOM     20  C   UNL     1       1.553   4.277   0.091  0.00  0.00    -0.065 C 
ATOM     21  C   UNL     1       1.693   4.335   1.612  0.00  0.00    +0.091 C 
ATOM     22  H   UNL     1       3.572   4.234  -0.191  0.00  0.00    -0.086 HD
ATOM     23  H   UNL     1       2.707   3.728  -1.498  0.00  0.00    -0.086 HD
ENDBRANCH  13  16
ENDBRANCH   1  13
TORSDOF 5
