REMARK  Name = ZINC35656968
REMARK  7 active torsions:
REMARK  status: ('A' for Active; 'I' for Inactive)
REMARK    1  A    between atoms: C_1  and  C_2
REMARK    2  A    between atoms: C_3  and  C_8
REMARK    3  A    between atoms: N_5  and  C_7
REMARK    4  A    between atoms: C_19  and  O_34
REMARK    5  A    between atoms: C_23  and  C_33
REMARK    6  A    between atoms: C_28  and  C_32
REMARK    7  A    between atoms: C_29  and  O_31
REMARK                            x       y       z     vdW  Elec       q    Type
REMARK                         _______ _______ _______ _____ _____    ______ ____
ROOT
ATOM      1  C   UNL     1       0.077  -0.399  -2.454  0.00  0.00    +0.013 C 
ATOM      2  C   UNL     1       0.143  -1.242  -3.477  0.00  0.00    -0.040 C 
ATOM      3  C   UNL     1       0.242  -0.865  -4.939  0.00  0.00    +0.037 C 
ATOM      4  C   UNL     1      -0.278  -2.092  -5.729  0.00  0.00    +0.005 C 
ATOM      5  C   UNL     1      -1.770  -1.896  -5.968  0.00  0.00    +0.001 C 
ATOM      6  C   UNL     1      -2.452  -1.287  -4.745  0.00  0.00    +0.031 C 
ATOM      7  C   UNL     1      -3.932  -1.192  -4.992  0.00  0.00    -0.027 C 
ATOM      8  C   UNL     1      -4.569  -1.950  -5.836  0.00  0.00    -0.065 C 
ATOM      9  C   UNL     1      -6.069  -1.754  -5.973  0.00  0.00    +0.062 C 
ATOM     10  C   UNL     1      -6.747  -3.115  -5.783  0.00  0.00    +0.119 C 
ATOM     11  C   UNL     1      -6.175  -4.109  -6.794  0.00  0.00    +0.032 C 
ATOM     12  C   UNL     1      -4.684  -4.322  -6.541  0.00  0.00    +0.014 C 
ATOM     13  C   UNL     1      -3.913  -3.008  -6.673  0.00  0.00    -0.008 C 
ATOM     14  C   UNL     1      -2.449  -3.215  -6.323  0.00  0.00    +0.003 C 
ATOM     15  C   UNL     1      -2.292  -4.162  -5.131  0.00  0.00    +0.005 C 
ATOM     16  C   UNL     1      -0.812  -4.493  -4.980  0.00  0.00    +0.010 C 
ATOM     17  C   UNL     1       0.073  -3.280  -4.834  0.00  0.00    +0.001 C 
ATOM     18  C   UNL     1       0.139  -2.756  -3.394  0.00  0.00    +0.147 C 
ATOM     19  C   UNL     1       1.504  -3.734  -5.216  0.00  0.00    +0.014 C 
ATOM     20  C   UNL     1      -3.974  -2.564  -8.140  0.00  0.00    +0.016 C 
ENDROOT
BRANCH   1  23
ATOM     21  C   UNL     1      -0.791   1.163   0.164  0.00  0.00    +0.068 C 
ATOM     22  C   UNL     1      -0.197  -0.221   0.103  0.00  0.00    +0.067 A 
ATOM     23  C   UNL     1       0.186  -0.906  -1.069  0.00  0.00    +0.015 A 
ATOM     24  C   UNL     1       0.675  -2.124  -0.691  0.00  0.00    +0.116 A 
ATOM     25  N   UNL     1       0.600  -2.194   0.654  0.00  0.00    -0.274 N 
ATOM     26  N   UNL     1       0.058  -0.993   1.125  0.00  0.00    -0.176 NA
ATOM     27  C   UNL     1       1.019  -3.330   1.479  0.00  0.00    +0.172 C 
ENDBRANCH   1  23
BRANCH  18  28
ATOM     28  O   UNL     1      -0.958  -3.228  -2.611  0.00  0.00    -0.387 OA
ATOM     29  H   UNL     1      -1.012  -2.832  -1.730  0.00  0.00    +0.210 HD
ENDBRANCH  18  28
BRANCH  10  30
ATOM     30  O   UNL     1      -6.507  -3.587  -4.455  0.00  0.00    -0.391 OA
ATOM     31  H   UNL     1      -6.844  -3.001  -3.763  0.00  0.00    +0.210 HD
ENDBRANCH  10  30
TORSDOF 3
