REMARK  Name = ZINC09339083
REMARK  9 active torsions:
REMARK  status: ('A' for Active; 'I' for Inactive)
REMARK    1  A    between atoms: C_1  and  C_2
REMARK    2  A    between atoms: C_7  and  N_8
REMARK    3  A    between atoms: C_9  and  C_11
REMARK    4  A    between atoms: C_11  and  N_12
REMARK    5  A    between atoms: C_13  and  C_15
REMARK    6  A    between atoms: C_15  and  N_16
REMARK    7  A    between atoms: N_16  and  C_17
REMARK    8  A    between atoms: C_22  and  C_23
REMARK    9  A    between atoms: C_23  and  C_25
REMARK                            x       y       z     vdW  Elec       q    Type
REMARK                         _______ _______ _______ _____ _____    ______ ____
ROOT
ATOM      1  N   UNL     1      -1.001  -0.456   0.183  0.00  0.00    -0.305 N 
ATOM      2  C   UNL     1      -2.160  -1.143   0.191  0.00  0.00    +0.231 C 
ATOM      3  O   UNL     1      -3.217  -0.549   0.198  0.00  0.00    -0.274 OA
ATOM      4  H   UNL     1      -0.155  -0.931   0.177  0.00  0.00    +0.149 HD
ENDROOT
BRANCH   1   5
ATOM      5  C   UNL     1      -1.018   1.009   0.183  0.00  0.00    +0.200 C 
BRANCH   5   7
ATOM      6  N   UNL     1       0.629   2.855   0.172  0.00  0.00    -0.284 N 
ATOM      7  C   UNL     1       0.398   1.527   0.173  0.00  0.00    +0.234 C 
ATOM      8  O   UNL     1       1.328   0.750   0.167  0.00  0.00    -0.274 OA
ATOM      9  H   UNL     1      -0.113   3.477   0.241  0.00  0.00    +0.155 HD
BRANCH   6  16
ATOM     10  C   UNL     1       1.065   5.267  -1.273  0.00  0.00    +0.046 C 
ATOM     11  C   UNL     1       2.196   4.511  -0.626  0.00  0.00    -0.028 A 
ATOM     12  C   UNL     1       3.489   4.987  -0.720  0.00  0.00    +0.020 A 
ATOM     13  C   UNL     1       4.529   4.290  -0.131  0.00  0.00    +0.018 A 
ATOM     14  C   UNL     1       4.276   3.117   0.559  0.00  0.00    +0.017 A 
ATOM     15  C   UNL     1       2.984   2.640   0.661  0.00  0.00    +0.024 A 
ATOM     16  C   UNL     1       1.939   3.337   0.070  0.00  0.00    +0.036 A 
ATOM     17 BR   UNL     1       6.299   4.941  -0.268  0.00  0.00    -0.050 Br
ENDBRANCH   6  16
ENDBRANCH   5   7
ENDBRANCH   1   5
BRANCH   2  18
ATOM     18  C   UNL     1      -2.143  -2.650   0.191  0.00  0.00    +0.197 C 
BRANCH  18  19
ATOM     19  N   UNL     1      -3.519  -3.154   0.201  0.00  0.00    -0.335 N 
ATOM     20  H   UNL     1      -4.263  -2.532   0.206  0.00  0.00    +0.147 HD
BRANCH  19  21
ATOM     21  C   UNL     1      -3.757  -4.520   0.202  0.00  0.00    +0.038 A 
ATOM     22  C   UNL     1      -2.700  -5.414   0.079  0.00  0.00    +0.023 A 
ATOM     23  C   UNL     1      -2.938  -6.772   0.086  0.00  0.00    +0.002 A 
ATOM     24  C   UNL     1      -4.232  -7.259   0.206  0.00  0.00    +0.001 A 
ATOM     25  C   UNL     1      -5.294  -6.392   0.324  0.00  0.00    +0.013 A 
ATOM     26  C   UNL     1      -5.070  -5.010   0.324  0.00  0.00    +0.038 A 
BRANCH  26  27
ATOM     27  C   UNL     1      -6.196  -4.079   0.448  0.00  0.00    +0.162 C 
ATOM     28  O   UNL     1      -6.010  -2.884   0.350  0.00  0.00    -0.292 OA
ATOM     29  C   UNL     1      -7.585  -4.606   0.699  0.00  0.00    +0.091 C 
ENDBRANCH  26  27
ENDBRANCH  19  21
ENDBRANCH  18  19
ENDBRANCH   2  18
TORSDOF 7
