REMARK  Name = ZINC02890034
REMARK  4 active torsions:
REMARK  status: ('A' for Active; 'I' for Inactive)
REMARK    1  A    between atoms: C_1  and  N_2
REMARK    2  A    between atoms: C_3  and  C_9
REMARK    3  A    between atoms: N_11  and  C_12
REMARK    4  A    between atoms: C_13  and  C_21
REMARK                            x       y       z     vdW  Elec       q    Type
REMARK                         _______ _______ _______ _____ _____    ______ ____
ROOT
ATOM      1  C   UNL     1      -0.014   1.209   0.009  0.00  0.00    +0.237 C 
ATOM      2  O   UNL     1       0.002  -0.004   0.002  0.00  0.00    -0.274 OA
ATOM      3  N   UNL     1      -1.191   1.867   0.018  0.00  0.00    -0.278 N 
ATOM      4  H   UNL     1      -1.204   2.837   0.023  0.00  0.00    +0.155 HD
ENDROOT
BRANCH   3   5
ATOM      5  C   UNL     1      -2.383   1.156   0.020  0.00  0.00    +0.090 A 
ATOM      6  C   UNL     1      -3.679   1.649   0.034  0.00  0.00    +0.084 A 
ATOM      7  C   UNL     1      -4.765   0.684   0.028  0.00  0.00    -0.018 A 
ATOM      8  C   UNL     1      -4.383  -0.612   0.020  0.00  0.00    -0.004 A 
ATOM      9  S   UNL     1      -2.613  -0.561   0.012  0.00  0.00    -0.077 S 
ATOM     10  C   UNL     1      -5.273  -1.816   0.020  0.00  0.00    +0.043 C 
ATOM     11  C   UNL     1      -6.690  -1.370   0.408  0.00  0.00    +0.005 C 
ATOM     12  C   UNL     1      -7.064  -0.138  -0.421  0.00  0.00    +0.005 C 
ATOM     13  C   UNL     1      -6.240   1.067   0.037  0.00  0.00    +0.037 C 
BRANCH   6  14
ATOM     14  C   UNL     1      -3.938   3.057   0.051  0.00  0.00    +0.102 C 
ATOM     15  N   UNL     1      -4.143   4.175   0.064  0.00  0.00    -0.191 NA
ENDBRANCH   6  14
ENDBRANCH   3   5
BRANCH   1  18
ATOM     16  C   UNL     1       2.672   1.190  -1.830  0.00  0.00    +0.128 C 
ATOM     17  N   UNL     1       2.414   1.108  -0.386  0.00  0.00    -0.218 NA
ATOM     18  C   UNL     1       1.280   1.980   0.001  0.00  0.00    +0.170 C 
ATOM     19  C   UNL     1       1.680   2.406   1.434  0.00  0.00    +0.127 C 
ATOM     20  C   UNL     1       3.189   2.235   1.411  0.00  0.00    +0.229 C 
ATOM     21  O   UNL     1       3.970   2.682   2.224  0.00  0.00    -0.274 OA
ATOM     22  N   UNL     1       3.506   1.501   0.329  0.00  0.00    -0.248 N 
ATOM     23  H   UNL     1       4.417   1.275   0.083  0.00  0.00    +0.169 HD
ENDBRANCH   1  18
TORSDOF 3
