REMARK  Name = ZINC10026411
REMARK  13 active torsions:
REMARK  status: ('A' for Active; 'I' for Inactive)
REMARK    1  A    between atoms: C_1  and  C_2
REMARK    2  A    between atoms: C_5  and  S_23
REMARK    3  A    between atoms: C_7  and  N_8
REMARK    4  A    between atoms: C_9  and  C_11
REMARK    5  A    between atoms: C_11  and  N_56
REMARK    6  A    between atoms: C_12  and  C_14
REMARK    7  A    between atoms: C_12  and  C_20
REMARK    8  A    between atoms: C_12  and  N_56
REMARK    9  A    between atoms: C_20  and  C_21
REMARK   10  A    between atoms: C_20  and  C_22
REMARK   11  A    between atoms: S_23  and  N_26
REMARK   12  A    between atoms: N_26  and  C_27
REMARK   13  A    between atoms: N_26  and  C_28
REMARK                            x       y       z     vdW  Elec       q    Type
REMARK                         _______ _______ _______ _____ _____    ______ ____
ROOT
ATOM      1  N   UNL     1       2.425   4.236   0.002  0.00  0.00    -0.287 N 
ATOM      2  C   UNL     1       1.286   3.515   0.005  0.00  0.00    +0.200 C 
ATOM      3  O   UNL     1       0.212   4.079   0.025  0.00  0.00    -0.278 OA
ATOM      4  H   UNL     1       3.283   3.788   0.067  0.00  0.00    +0.155 HD
ENDROOT
BRANCH   1  11
ATOM      5  C   UNL     1       4.597   5.743   1.053  0.00  0.00    +0.045 C 
ATOM      6  C   UNL     1       3.409   6.404   0.404  0.00  0.00    -0.029 A 
ATOM      7  C   UNL     1       3.354   7.781   0.301  0.00  0.00    +0.007 A 
ATOM      8  C   UNL     1       2.261   8.389  -0.289  0.00  0.00    +0.029 A 
ATOM      9  C   UNL     1       1.223   7.621  -0.783  0.00  0.00    +0.107 A 
ATOM     10  C   UNL     1       1.274   6.244  -0.688  0.00  0.00    +0.052 A 
ATOM     11  C   UNL     1       2.370   5.631  -0.096  0.00  0.00    +0.038 A 
BRANCH   9  12
ATOM     12  S   UNL     1      -0.168   8.400  -1.534  0.00  0.00    +0.060 S 
ATOM     13  O   UNL     1       0.276   9.671  -1.990  0.00  0.00    -0.153 OA
ATOM     14  O   UNL     1      -0.751   7.440  -2.404  0.00  0.00    -0.153 OA
BRANCH  12  15
ATOM     15  N   UNL     1      -1.274   8.687  -0.336  0.00  0.00    -0.183 NA
ATOM     16  C   UNL     1      -1.241   9.950   0.405  0.00  0.00    +0.131 C 
ATOM     17  C   UNL     1      -2.287   7.678  -0.017  0.00  0.00    +0.131 C 
ENDBRANCH  12  15
ENDBRANCH   9  12
ENDBRANCH   1  11
BRANCH   2  18
ATOM     18  C   UNL     1       1.347   2.010  -0.015  0.00  0.00    +0.016 C 
BRANCH  18  19
ATOM     19  N   UNL     1      -0.026   1.470  -0.006  0.00  0.00    +0.389 N 
ATOM     20  H   UNL     1      -0.529   1.810  -0.834  0.00  0.00    -0.084 HD
ATOM     21  H   UNL     1      -0.510   1.788   0.842  0.00  0.00    -0.084 HD
BRANCH  19  22
ATOM     22  C   UNL     1       0.003  -0.004  -0.026  0.00  0.00    -0.038 C 
BRANCH  22  23
ATOM     23  C   UNL     1      -1.271  -0.532   0.583  0.00  0.00    -0.061 A 
ATOM     24  C   UNL     1      -2.475   0.092   0.316  0.00  0.00    +0.002 A 
ATOM     25  C   UNL     1      -3.644  -0.394   0.871  0.00  0.00    +0.000 A 
ATOM     26  C   UNL     1      -3.607  -1.500   1.699  0.00  0.00    +0.000 A 
ATOM     27  C   UNL     1      -2.403  -2.122   1.969  0.00  0.00    +0.000 A 
ATOM     28  C   UNL     1      -1.234  -1.638   1.411  0.00  0.00    +0.002 A 
ENDBRANCH  22  23
BRANCH  22  29
ATOM     29  C   UNL     1       0.119  -0.494  -1.471  0.00  0.00    -0.027 C 
ATOM     30  C   UNL     1       0.140  -2.023  -1.491  0.00  0.00    +0.006 C 
ATOM     31  C   UNL     1      -1.079   0.011  -2.278  0.00  0.00    +0.006 C 
ENDBRANCH  22  29
ENDBRANCH  19  22
ENDBRANCH  18  19
ENDBRANCH   2  18
TORSDOF 8
