REMARK  Name = ZINC08790876
REMARK  6 active torsions:
REMARK  status: ('A' for Active; 'I' for Inactive)
REMARK    1  A    between atoms: C_1  and  C_2
REMARK    2  A    between atoms: C_2  and  C_3
REMARK    3  A    between atoms: C_17  and  C_19
REMARK    4  A    between atoms: C_19  and  C_20
REMARK    5  A    between atoms: N_25  and  C_28
REMARK    6  A    between atoms: C_28  and  C_29
REMARK                            x       y       z     vdW  Elec       q    Type
REMARK                         _______ _______ _______ _____ _____    ______ ____
ROOT
ATOM      1  C   UNL     1       0.247   6.491   4.693  0.00  0.00    -0.026 A 
ATOM      2  C   UNL     1      -1.051   6.210   5.068  0.00  0.00    +0.005 A 
ATOM      3  C   UNL     1      -1.720   5.134   4.515  0.00  0.00    +0.001 A 
ATOM      4  C   UNL     1      -1.085   4.334   3.580  0.00  0.00    +0.004 A 
ATOM      5  C   UNL     1       0.210   4.611   3.203  0.00  0.00    -0.027 A 
ATOM      6  C   UNL     1       0.893   5.692   3.754  0.00  0.00    +0.039 A 
ATOM      7  N   UNL     1       2.182   5.770   3.221  0.00  0.00    -0.286 N 
ATOM      8  C   UNL     1       2.422   4.792   2.326  0.00  0.00    +0.211 C 
ATOM      9  O   UNL     1       3.450   4.613   1.707  0.00  0.00    -0.277 OA
ATOM     10  C   UNL     1       1.168   3.966   2.243  0.00  0.00    +0.050 C 
ATOM     11  C   UNL     1       0.607   3.941   0.816  0.00  0.00    +0.088 C 
ATOM     12  C   UNL     1       1.119   2.601   0.218  0.00  0.00    +0.073 C 
ATOM     13  C   UNL     1       1.950   1.955   1.347  0.00  0.00    -0.049 C 
ATOM     14  C   UNL     1      -0.148   1.804   0.012  0.00  0.00    +0.224 C 
ATOM     15  O   UNL     1      -0.203   0.678  -0.436  0.00  0.00    -0.275 OA
ATOM     16  N   UNL     1      -1.201   2.535   0.395  0.00  0.00    -0.237 N 
ATOM     17  C   UNL     1      -0.893   3.749   0.864  0.00  0.00    +0.225 C 
ATOM     18  O   UNL     1      -1.691   4.570   1.261  0.00  0.00    -0.275 OA
ATOM     19  H   UNL     1       2.829   6.450   3.466  0.00  0.00    +0.155 HD
ATOM     20  N   UNL     1       1.432   2.575   2.568  0.00  0.00    +0.394 N 
ATOM     21  H   UNL     1       0.566   2.109   2.863  0.00  0.00    -0.083 HD
ATOM     22  H   UNL     1       2.127   2.512   3.321  0.00  0.00    -0.083 HD
ENDROOT
BRANCH   1  24
ATOM     23  C   UNL     1       0.827   8.883   4.386  0.00  0.00    +0.009 C 
ATOM     24  C   UNL     1       0.967   7.666   5.303  0.00  0.00    +0.033 C 
ENDBRANCH   1  24
BRANCH  13  25
ATOM     25  C   UNL     1       3.433   2.289   1.174  0.00  0.00    +0.080 C 
BRANCH  25  26
ATOM     26  C   UNL     1       4.101   1.205   0.368  0.00  0.00    +0.209 C 
ATOM     27  O   UNL     1       3.455   0.259  -0.030  0.00  0.00    -0.276 OA
ATOM     28  N   UNL     1       5.417   1.288   0.088  0.00  0.00    -0.329 N 
ATOM     29  H   UNL     1       5.934   2.044   0.406  0.00  0.00    +0.145 HD
ATOM     30  H   UNL     1       5.847   0.591  -0.431  0.00  0.00    +0.145 HD
ENDBRANCH  25  26
ENDBRANCH  13  25
BRANCH  16  31
ATOM     31  C   UNL     1      -2.579   2.045   0.310  0.00  0.00    +0.151 C 
BRANCH  31  32
ATOM     32  C   UNL     1      -2.943   1.347   1.595  0.00  0.00    -0.026 A 
ATOM     33  C   UNL     1      -2.719  -0.011   1.729  0.00  0.00    +0.009 A 
ATOM     34  C   UNL     1      -3.045  -0.655   2.908  0.00  0.00    +0.050 A 
ATOM     35  C   UNL     1      -3.611   0.057   3.953  0.00  0.00    +0.166 A 
ATOM     36  C   UNL     1      -3.843   1.423   3.816  0.00  0.00    +0.167 A 
ATOM     37  C   UNL     1      -3.506   2.063   2.634  0.00  0.00    +0.054 A 
ATOM     38  O   UNL     1      -4.401   1.890   4.971  0.00  0.00    -0.453 OA
ATOM     39  C   UNL     1      -4.884   0.723   5.662  0.00  0.00    +0.466 C 
ATOM     40  O   UNL     1      -4.024  -0.333   5.194  0.00  0.00    -0.453 OA
ENDBRANCH  31  32
ENDBRANCH  16  31
TORSDOF 5
