REMARK  Name = ZINC39981179
REMARK  4 active torsions:
REMARK  status: ('A' for Active; 'I' for Inactive)
REMARK    1  A    between atoms: C_5  and  N_7
REMARK    2  A    between atoms: C_8  and  C_10
REMARK    3  A    between atoms: C_10  and  S_11
REMARK    4  A    between atoms: S_11  and  C_12
REMARK                            x       y       z     vdW  Elec       q    Type
REMARK                         _______ _______ _______ _____ _____    ______ ____
ROOT
ATOM      1  C   UNL     1      -1.372  -6.657   0.438  0.00  0.00    +0.208 C 
ATOM      2  N   UNL     1      -0.152  -7.138   0.413  0.00  0.00    -0.227 NA
ATOM      3  C   UNL     1       0.013  -8.580   0.586  0.00  0.00    +0.252 C 
ATOM      4  C   UNL     1      -1.261  -9.223   0.058  0.00  0.00    +0.117 C 
ATOM      5  C   UNL     1      -0.850 -10.219  -0.776  0.00  0.00    +0.026 A 
ATOM      6  C   UNL     1      -1.556 -11.227  -1.475  0.00  0.00    +0.027 A 
ATOM      7  C   UNL     1      -0.831 -12.075  -2.254  0.00  0.00    +0.019 A 
ATOM      8  C   UNL     1       0.559 -12.010  -2.404  0.00  0.00    +0.017 A 
ATOM      9  C   UNL     1       1.338 -11.089  -1.776  0.00  0.00    +0.027 A 
ATOM     10  C   UNL     1       0.638 -10.131  -0.904  0.00  0.00    +0.046 A 
ATOM     11  N   UNL     1       1.107  -9.167  -0.173  0.00  0.00    -0.358 N 
ATOM     12 BR   UNL     1      -1.760 -13.428  -3.193  0.00  0.00    -0.050 Br
ATOM     13  N   UNL     1      -2.463  -8.705   0.328  0.00  0.00    -0.147 NA
ATOM     14  N   UNL     1      -2.483  -7.424   0.550  0.00  0.00    -0.122 NA
ATOM     15  H   UNL     1       2.034  -8.885  -0.138  0.00  0.00    +0.162 HD
ENDROOT
BRANCH   1  16
ATOM     16  S   UNL     1      -1.577  -4.910   0.325  0.00  0.00    -0.075 S 
BRANCH  16  17
ATOM     17  C   UNL     1       0.117  -4.277   0.192  0.00  0.00    +0.173 C 
BRANCH  17  19
ATOM     18  N   UNL     1       1.236  -2.081  -0.022  0.00  0.00    -0.283 N 
ATOM     19  C   UNL     1       0.085  -2.774   0.087  0.00  0.00    +0.228 C 
ATOM     20  O   UNL     1      -0.977  -2.187   0.102  0.00  0.00    -0.275 OA
ATOM     21  H   UNL     1       2.079  -2.552  -0.115  0.00  0.00    +0.155 HD
BRANCH  18  26
ATOM     22  C   UNL     1       0.153   1.372   0.637  0.00  0.00    +0.002 A 
ATOM     23  C   UNL     1       1.173   2.087   0.036  0.00  0.00    +0.003 A 
ATOM     24  C   UNL     1       2.214   1.423  -0.585  0.00  0.00    +0.040 A 
ATOM     25  C   UNL     1       2.239   0.040  -0.607  0.00  0.00    +0.144 A 
ATOM     26  C   UNL     1       1.215  -0.681  -0.002  0.00  0.00    +0.069 A 
ATOM     27  C   UNL     1       0.172  -0.009   0.620  0.00  0.00    +0.026 A 
ATOM     28  F   UNL     1       3.256  -0.609  -1.214  0.00  0.00    -0.204 F 
ENDBRANCH  18  26
ENDBRANCH  17  19
ENDBRANCH  16  17
ENDBRANCH   1  16
TORSDOF 4
