REMARK  Name = ZINC43415377
REMARK  11 active torsions:
REMARK  status: ('A' for Active; 'I' for Inactive)
REMARK    1  A    between atoms: C_1  and  C_2
REMARK    2  A    between atoms: C_2  and  C_3
REMARK    3  A    between atoms: C_3  and  C_4
REMARK    4  A    between atoms: C_4  and  C_6
REMARK    5  A    between atoms: C_4  and  N_7
REMARK    6  A    between atoms: C_8  and  C_10
REMARK    7  A    between atoms: C_10  and  C_12
REMARK    8  A    between atoms: C_10  and  O_13
REMARK    9  A    between atoms: O_13  and  C_14
REMARK   10  A    between atoms: C_15  and  N_23
REMARK   11  A    between atoms: C_17  and  C_21
REMARK                            x       y       z     vdW  Elec       q    Type
REMARK                         _______ _______ _______ _____ _____    ______ ____
ROOT
ATOM      1  O   UNL     1       0.998  -5.489  -2.394  0.00  0.00    -0.477 OA
ENDROOT
BRANCH   1   2
ATOM      2  C   UNL     1       2.065  -5.773  -3.186  0.00  0.00    +0.155 A 
ATOM      3  C   UNL     1       1.875  -6.438  -4.399  0.00  0.00    +0.069 A 
ATOM      4  C   UNL     1       2.961  -6.726  -5.206  0.00  0.00    +0.045 A 
ATOM      5  C   UNL     1       4.245  -6.350  -4.804  0.00  0.00    +0.055 A 
ATOM      6  C   UNL     1       4.428  -5.685  -3.590  0.00  0.00    +0.037 A 
ATOM      7  C   UNL     1       3.341  -5.395  -2.791  0.00  0.00    +0.058 A 
ATOM      8  I   UNL     1       3.617  -4.390  -0.974  0.00  0.00    -0.040 I 
BRANCH   3   9
ATOM      9  N   UNL     1       0.587  -6.813  -4.797  0.00  0.00    -0.355 N 
ATOM     10  H   UNL     1      -0.174  -6.611  -4.230  0.00  0.00    +0.142 HD
ATOM     11  H   UNL     1       0.455  -7.275  -5.639  0.00  0.00    +0.142 HD
ENDBRANCH   3   9
BRANCH   5  12
ATOM     12  C   UNL     1       5.373  -6.647  -5.636  0.00  0.00    +0.099 C 
ATOM     13  N   UNL     1       6.267  -6.882  -6.296  0.00  0.00    -0.191 NA
ENDBRANCH   5  12
ENDBRANCH   1   2
BRANCH   1  14
ATOM     14  C   UNL     1       0.343  -4.238  -2.611  0.00  0.00    +0.256 C 
ATOM     15  C   UNL     1      -0.768  -4.418  -3.647  0.00  0.00    +0.062 C 
BRANCH  14  17
ATOM     16  N   UNL     1      -0.834  -2.537  -1.256  0.00  0.00    -0.310 N 
ATOM     17  C   UNL     1      -0.252  -3.751  -1.315  0.00  0.00    +0.254 C 
ATOM     18  O   UNL     1      -0.206  -4.451  -0.326  0.00  0.00    -0.272 OA
ATOM     19  H   UNL     1      -0.871  -1.977  -2.047  0.00  0.00    +0.149 HD
BRANCH  16  20
ATOM     20  C   UNL     1      -1.413  -2.063   0.004  0.00  0.00    +0.070 C 
ATOM     21  C   UNL     1      -2.841  -2.594   0.141  0.00  0.00    +0.028 C 
BRANCH  20  22
ATOM     22  C   UNL     1      -1.433  -0.534   0.013  0.00  0.00    +0.022 C 
BRANCH  22  24
ATOM     23  C   UNL     1      -0.019   1.526   0.010  0.00  0.00    +0.004 C 
ATOM     24  C   UNL     1       0.002  -0.004   0.002  0.00  0.00    -0.002 C 
ENDBRANCH  22  24
ENDBRANCH  20  22
ENDBRANCH  16  20
ENDBRANCH  14  17
ENDBRANCH   1  14
TORSDOF 8
