REMARK  Name = ZINC08655058
REMARK  1 active torsions:
REMARK  status: ('A' for Active; 'I' for Inactive)
REMARK    1  A    between atoms: C_13  and  C_18
REMARK                            x       y       z     vdW  Elec       q    Type
REMARK                         _______ _______ _______ _____ _____    ______ ____
ROOT
ATOM      1  C   UNL     1      -6.798  -4.402   0.342  0.00  0.00    +0.001 A 
ATOM      2  C   UNL     1      -6.763  -5.785   0.292  0.00  0.00    +0.002 A 
ATOM      3  C   UNL     1      -5.562  -6.456   0.159  0.00  0.00    +0.024 A 
ATOM      4  C   UNL     1      -4.371  -5.745   0.074  0.00  0.00    +0.042 A 
ATOM      5  C   UNL     1      -4.409  -4.343   0.131  0.00  0.00    +0.009 A 
ATOM      6  C   UNL     1      -5.627  -3.676   0.258  0.00  0.00    +0.010 A 
ATOM      7  C   UNL     1      -3.013  -3.881   0.011  0.00  0.00    +0.059 C 
ATOM      8  C   UNL     1      -2.554  -2.576   0.013  0.00  0.00    +0.059 C 
ATOM      9  C   UNL     1      -1.166  -2.112   0.200  0.00  0.00    +0.010 A 
ATOM     10  C   UNL     1       0.040  -2.775   0.419  0.00  0.00    +0.010 A 
ATOM     11  C   UNL     1       1.204  -2.048   0.558  0.00  0.00    +0.001 A 
ATOM     12  C   UNL     1       1.173  -0.665   0.482  0.00  0.00    +0.014 A 
ATOM     13  C   UNL     1      -0.017   0.002   0.266  0.00  0.00    +0.077 A 
ATOM     14  C   UNL     1      -1.202  -0.711   0.128  0.00  0.00    +0.053 A 
ATOM     15  N   UNL     1      -2.509  -0.294  -0.099  0.00  0.00    -0.280 N 
ATOM     16  C   UNL     1      -3.351  -1.339  -0.173  0.00  0.00    +0.250 C 
ATOM     17  O   UNL     1      -4.551  -1.281  -0.359  0.00  0.00    -0.270 OA
ATOM     18  C   UNL     1      -2.208  -5.121  -0.104  0.00  0.00    +0.250 C 
ATOM     19  O   UNL     1      -0.999  -5.182  -0.217  0.00  0.00    -0.270 OA
ATOM     20  N   UNL     1      -3.053  -6.165  -0.061  0.00  0.00    -0.281 N 
ATOM     21  H   UNL     1      -2.780   0.634  -0.189  0.00  0.00    +0.155 HD
ATOM     22  H   UNL     1      -2.778  -7.094  -0.117  0.00  0.00    +0.155 HD
ENDROOT
BRANCH  13  23
ATOM     23  C   UNL     1      -0.031   1.507   0.186  0.00  0.00    +0.419 C 
ATOM     24  F   UNL     1       1.268   1.996   0.359  0.00  0.00    -0.166 F 
ATOM     25  F   UNL     1      -0.516   1.903  -1.065  0.00  0.00    -0.166 F 
ATOM     26  F   UNL     1      -0.859   2.019   1.191  0.00  0.00    -0.166 F 
ENDBRANCH  13  23
TORSDOF 1
