REMARK  Name = ZINC00065413
REMARK  6 active torsions:
REMARK  status: ('A' for Active; 'I' for Inactive)
REMARK    1  A    between atoms: C_1  and  C_2
REMARK    2  A    between atoms: C_3  and  C_20
REMARK    3  A    between atoms: C_4  and  O_19
REMARK    4  A    between atoms: C_7  and  N_8
REMARK    5  A    between atoms: N_8  and  S_9
REMARK    6  A    between atoms: S_9  and  C_12
REMARK                            x       y       z     vdW  Elec       q    Type
REMARK                         _______ _______ _______ _____ _____    ______ ____
ROOT
ATOM      1  C   UNL     1       0.165   1.691   0.143  0.00  0.00    +0.046 C 
ATOM      2  C   UNL     1       0.264   0.192   0.022  0.00  0.00    -0.022 A 
ATOM      3  C   UNL     1       0.434  -0.392  -1.218  0.00  0.00    -0.003 A 
ATOM      4  C   UNL     1       0.525  -1.770  -1.331  0.00  0.00    +0.138 A 
ATOM      5  C   UNL     1       0.446  -2.566  -0.196  0.00  0.00    +0.084 A 
ATOM      6  C   UNL     1       0.277  -1.984   1.046  0.00  0.00    +0.048 A 
ATOM      7  C   UNL     1       0.191  -0.603   1.159  0.00  0.00    +0.053 A 
ATOM      8 CL   UNL     1       0.558  -4.293  -0.337  0.00  0.00    -0.080 Cl
ATOM      9  C   UNL     1       0.519   0.471  -2.451  0.00  0.00    +0.048 C 
ENDROOT
BRANCH   7  10
ATOM     10  N   UNL     1       0.025  -0.012   2.416  0.00  0.00    -0.216 N 
ATOM     11  H   UNL     1      -0.519   0.786   2.509  0.00  0.00    +0.174 HD
BRANCH  10  12
ATOM     12  S   UNL     1       0.757  -0.674   3.745  0.00  0.00    +0.072 S 
ATOM     13  O   UNL     1       0.514   0.213   4.828  0.00  0.00    -0.150 OA
ATOM     14  O   UNL     1       0.374  -2.042   3.781  0.00  0.00    -0.150 OA
BRANCH  12  15
ATOM     15  C   UNL     1       2.495  -0.645   3.452  0.00  0.00    +0.108 A 
ATOM     16  C   UNL     1       3.108  -1.716   2.828  0.00  0.00    +0.029 A 
ATOM     17  C   UNL     1       4.471  -1.693   2.598  0.00  0.00    +0.002 A 
ATOM     18  C   UNL     1       5.220  -0.600   2.991  0.00  0.00    +0.000 A 
ATOM     19  C   UNL     1       4.606   0.471   3.614  0.00  0.00    +0.002 A 
ATOM     20  C   UNL     1       3.243   0.450   3.840  0.00  0.00    +0.029 A 
ENDBRANCH  12  15
ENDBRANCH  10  12
ENDBRANCH   7  10
BRANCH   4  21
ATOM     21  O   UNL     1       0.691  -2.344  -2.553  0.00  0.00    -0.505 OA
ATOM     22  H   UNL     1       1.616  -2.459  -2.810  0.00  0.00    +0.292 HD
ENDBRANCH   4  21
TORSDOF 4
