REMARK  Name = ZINC12346983
REMARK  5 active torsions:
REMARK  status: ('A' for Active; 'I' for Inactive)
REMARK    1  A    between atoms: C_1  and  C_2
REMARK    2  A    between atoms: C_2  and  C_4
REMARK    3  A    between atoms: C_2  and  O_25
REMARK    4  A    between atoms: C_4  and  N_5
REMARK    5  A    between atoms: C_11  and  C_17
REMARK                            x       y       z     vdW  Elec       q    Type
REMARK                         _______ _______ _______ _____ _____    ______ ____
ROOT
ATOM      1  N   UNL     1       4.458  -1.217   3.612  0.00  0.00    -0.290 N 
ATOM      2  C   UNL     1       5.659  -0.510   3.143  0.00  0.00    +0.159 C 
ATOM      3  C   UNL     1       5.420  -0.273   1.669  0.00  0.00    +0.039 C 
ATOM      4  C   UNL     1       4.212  -0.801   1.390  0.00  0.00    +0.058 C 
ATOM      5  C   UNL     1       3.643  -1.364   2.552  0.00  0.00    +0.247 C 
ATOM      6  O   UNL     1       2.555  -1.910   2.590  0.00  0.00    -0.270 OA
ATOM      7  C   UNL     1       3.712  -0.706  -0.037  0.00  0.00    +0.142 C 
ATOM      8  N   UNL     1       4.594  -0.037  -1.008  0.00  0.00    -0.288 N 
ATOM      9  C   UNL     1       5.777   0.444  -0.577  0.00  0.00    +0.304 C 
ATOM     10  O   UNL     1       6.512   0.997  -1.371  0.00  0.00    -0.252 OA
ATOM     11  N   UNL     1       6.169   0.331   0.699  0.00  0.00    -0.271 N 
ATOM     12  H   UNL     1       4.330   0.056  -1.937  0.00  0.00    +0.151 HD
ATOM     13  H   UNL     1       7.032   0.697   0.948  0.00  0.00    +0.156 HD
ENDROOT
BRANCH   7  14
ATOM     14  C   UNL     1       2.397   0.029  -0.021  0.00  0.00    -0.021 A 
ATOM     15  C   UNL     1       2.378   1.412  -0.013  0.00  0.00    +0.007 A 
ATOM     16  C   UNL     1       1.172   2.087   0.002  0.00  0.00    +0.022 A 
ATOM     17  C   UNL     1      -0.017   1.380   0.010  0.00  0.00    +0.059 A 
ATOM     18  C   UNL     1       0.002  -0.004   0.002  0.00  0.00    +0.060 A 
ATOM     19  C   UNL     1       1.210  -0.679  -0.013  0.00  0.00    +0.027 A 
ATOM     20 CL   UNL     1      -1.489  -0.893   0.011  0.00  0.00    -0.082 Cl
ATOM     21 CL   UNL     1      -1.532   2.228   0.021  0.00  0.00    -0.082 Cl
ENDBRANCH   7  14
BRANCH   1  22
ATOM     22  C   UNL     1       4.197  -1.675   4.979  0.00  0.00    +0.139 C 
BRANCH  22  24
ATOM     23  C   UNL     1       3.321  -1.000   7.219  0.00  0.00    +0.039 C 
ATOM     24  C   UNL     1       3.482  -0.570   5.759  0.00  0.00    +0.129 C 
BRANCH  24  25
ATOM     25  O   UNL     1       2.193  -0.340   5.186  0.00  0.00    -0.391 OA
ATOM     26  H   UNL     1       1.682   0.350   5.631  0.00  0.00    +0.210 HD
ENDBRANCH  24  25
ENDBRANCH  22  24
ENDBRANCH   1  22
TORSDOF 4
