REMARK  Name = ZINC31977791
REMARK  7 active torsions:
REMARK  status: ('A' for Active; 'I' for Inactive)
REMARK    1  A    between atoms: C_1  and  C_2
REMARK    2  A    between atoms: C_5  and  N_21
REMARK    3  A    between atoms: C_6  and  O_8
REMARK    4  A    between atoms: O_8  and  C_9
REMARK    5  A    between atoms: C_16  and  N_18
REMARK    6  A    between atoms: N_18  and  C_19
REMARK    7  A    between atoms: N_18  and  C_20
REMARK                            x       y       z     vdW  Elec       q    Type
REMARK                         _______ _______ _______ _____ _____    ______ ____
ROOT
ATOM      1  O   UNL     1       3.043   2.188  -1.960  0.00  0.00    -0.484 OA
ENDROOT
BRANCH   1   7
ATOM      2  C   UNL     1       7.687   0.816  -1.353  0.00  0.00    +0.044 C 
ATOM      3  C   UNL     1       6.617   1.525  -2.143  0.00  0.00    -0.047 A 
ATOM      4  C   UNL     1       6.943   2.167  -3.323  0.00  0.00    +0.005 A 
ATOM      5  C   UNL     1       5.965   2.820  -4.051  0.00  0.00    +0.026 A 
ATOM      6  C   UNL     1       4.653   2.825  -3.601  0.00  0.00    +0.067 A 
ATOM      7  C   UNL     1       4.327   2.182  -2.409  0.00  0.00    +0.142 A 
ATOM      8  C   UNL     1       5.312   1.531  -1.685  0.00  0.00    +0.051 A 
BRANCH   6   9
ATOM      9  N   UNL     1       3.661   3.479  -4.339  0.00  0.00    -0.355 N 
ATOM     10  H   UNL     1       2.621   3.482  -3.981  0.00  0.00    +0.142 HD
ATOM     11  H   UNL     1       3.921   3.991  -5.278  0.00  0.00    +0.142 HD
ENDBRANCH   6   9
ENDBRANCH   1   7
BRANCH   1  12
ATOM     12  C   UNL     1       2.792   1.554  -0.704  0.00  0.00    +0.213 C 
ATOM     13  C   UNL     1       2.590   0.041  -0.947  0.00  0.00    +0.212 C 
ATOM     14  S   UNL     1       1.278  -0.351   0.291  0.00  0.00    -0.026 S 
ATOM     15  O   UNL     1       1.876  -0.540   1.566  0.00  0.00    -0.174 OA
ATOM     16  O   UNL     1       0.414  -1.347  -0.238  0.00  0.00    -0.174 OA
ATOM     17  C   UNL     1       0.422   1.284   0.253  0.00  0.00    +0.188 C 
ATOM     18  C   UNL     1       1.602   2.236  -0.045  0.00  0.00    +0.119 C 
BRANCH  18  19
ATOM     19  N   UNL     1       1.127   3.308  -0.930  0.00  0.00    -0.301 NA
ATOM     20  C   UNL     1       0.398   2.757  -2.080  0.00  0.00    +0.105 C 
ATOM     21  C   UNL     1       0.298   4.271  -0.193  0.00  0.00    +0.105 C 
ENDBRANCH  18  19
ENDBRANCH   1  12
TORSDOF 4
