REMARK  Name = ZINC62898007
REMARK  8 active torsions:
REMARK  status: ('A' for Active; 'I' for Inactive)
REMARK    1  A    between atoms: C_1  and  C_2
REMARK    2  A    between atoms: C_2  and  C_7
REMARK    3  A    between atoms: N_9  and  CA_10
REMARK    4  A    between atoms: CA_10  and  C_12
REMARK    5  A    between atoms: CA_10  and  C_18
REMARK    6  A    between atoms: C_12  and  C_13
REMARK    7  A    between atoms: C_13  and  S_14
REMARK    8  A    between atoms: S_14  and  C_17
REMARK                            x       y       z     vdW  Elec       q    Type
REMARK                         _______ _______ _______ _____ _____    ______ ____
ROOT
ATOM      1  C   UNL     1       0.659  -0.510  -1.256  0.00  0.00    +0.218 C 
ATOM      2  O   UNL     1       1.647  -1.211  -1.185  0.00  0.00    -0.275 OA
ATOM      3  N   UNL     1       0.149  -0.185  -2.461  0.00  0.00    -0.302 N 
ATOM      4  H   UNL     1      -0.641   0.375  -2.517  0.00  0.00    +0.150 HD
ENDROOT
BRANCH   1   6
ATOM      5  C   UNL     1      -0.019   1.526   0.010  0.00  0.00    +0.019 C 
ATOM      6  C   UNL     1       0.002  -0.004   0.002  0.00  0.00    +0.027 C 
ATOM      7  C   UNL     1      -1.435  -0.561   0.121  0.00  0.00    -0.005 C 
ATOM      8  C   UNL     1      -1.257  -1.783   1.057  0.00  0.00    -0.082 C 
ATOM      9  N   UNL     1      -0.234  -1.320   2.029  0.00  0.00    +0.380 N 
ATOM     10  C   UNL     1       0.743  -0.535   1.243  0.00  0.00    -0.067 C 
ATOM     11  H   UNL     1      -0.661  -0.738   2.733  0.00  0.00    -0.086 HD
ATOM     12  H   UNL     1       0.221  -2.111   2.459  0.00  0.00    -0.086 HD
ENDBRANCH   1   6
BRANCH   3  13
ATOM     13  CA  UNL     1       0.787  -0.678  -3.684  0.00  0.00    +0.188 C 
BRANCH  13  14
ATOM     14  C   UNL     1       1.911   0.248  -4.071  0.00  0.00    +0.376 C 
ATOM     15  O   UNL     1       2.157   1.228  -3.389  0.00  0.00    -0.244 OA
ATOM     16  OXT UNL     1       2.576   0.017  -5.067  0.00  0.00    -0.244 OA
ENDBRANCH  13  14
BRANCH  13  17
ATOM     17  C   UNL     1      -0.244  -0.728  -4.813  0.00  0.00    +0.056 C 
BRANCH  17  18
ATOM     18  C   UNL     1      -1.321  -1.760  -4.474  0.00  0.00    +0.168 C 
BRANCH  18  19
ATOM     19  S   UNL     1      -2.544  -1.820  -5.813  0.00  0.00    -0.034 S 
ATOM     20  O   UNL     1      -3.218  -0.570  -5.862  0.00  0.00    -0.175 OA
ATOM     21  O   UNL     1      -1.904  -2.307  -6.985  0.00  0.00    -0.175 OA
ATOM     22  C   UNL     1      -3.713  -3.079  -5.232  0.00  0.00    +0.194 C 
ENDBRANCH  18  19
ENDBRANCH  17  18
ENDBRANCH  13  17
ENDBRANCH   3  13
TORSDOF 6
