REMARK  Name = ZINC50253941
REMARK  10 active torsions:
REMARK  status: ('A' for Active; 'I' for Inactive)
REMARK    1  A    between atoms: C_1  and  C_2
REMARK    2  A    between atoms: C_2  and  C_3
REMARK    3  A    between atoms: C_3  and  C_4
REMARK    4  A    between atoms: C_3  and  C_5
REMARK    5  A    between atoms: C_3  and  N_8
REMARK    6  A    between atoms: C_5  and  N_7
REMARK    7  A    between atoms: N_8  and  S_9
REMARK    8  A    between atoms: S_9  and  C_12
REMARK    9  A    between atoms: N_14  and  C_18
REMARK   10  A    between atoms: C_15  and  C_17
REMARK                            x       y       z     vdW  Elec       q    Type
REMARK                         _______ _______ _______ _____ _____    ______ ____
ROOT
ATOM      1  N   UNL     1      -2.290  -0.172   1.293  0.00  0.00    -0.177 NA
ATOM      2  H   UNL     1      -3.098   0.359   1.205  0.00  0.00    +0.149 HD
ENDROOT
BRANCH   1   3
ATOM      3  S   UNL     1      -1.718  -0.566   2.796  0.00  0.00    +0.078 S 
ATOM      4  O   UNL     1      -0.328  -0.268   2.793  0.00  0.00    -0.151 OA
ATOM      5  O   UNL     1      -2.617   0.007   3.736  0.00  0.00    -0.151 OA
BRANCH   3   6
ATOM      6  C   UNL     1      -1.859  -2.314   2.966  0.00  0.00    +0.211 A 
ATOM      7  C   UNL     1      -2.969  -2.988   3.321  0.00  0.00    +0.135 A 
ATOM      8  N   UNL     1      -2.641  -4.316   3.329  0.00  0.00    -0.336 N 
ATOM      9  C   UNL     1      -1.340  -4.408   2.979  0.00  0.00    +0.109 A 
ATOM     10  N   UNL     1      -0.880  -3.207   2.758  0.00  0.00    -0.213 NA
ATOM     11  C   UNL     1      -0.551  -5.687   2.857  0.00  0.00    +0.086 C 
ATOM     12  C   UNL     1      -3.534  -5.431   3.657  0.00  0.00    +0.150 C 
ENDBRANCH   3   6
ENDBRANCH   1   3
BRANCH   1  13
ATOM     13  C   UNL     1      -1.576  -0.624   0.096  0.00  0.00    +0.081 C 
ATOM     14  C   UNL     1      -1.641  -2.150   0.010  0.00  0.00    +0.036 C 
BRANCH  13  16
ATOM     15  C   UNL     1      -0.054   1.330   0.422  0.00  0.00    +0.006 C 
ATOM     16  C   UNL     1      -0.115  -0.178   0.175  0.00  0.00    +0.027 C 
ENDBRANCH  13  16
BRANCH  13  17
ATOM     17  C   UNL     1      -2.219  -0.024  -1.128  0.00  0.00    +0.068 C 
ATOM     18  S   UNL     1      -3.483   0.942  -0.975  0.00  0.00    -0.039 S 
BRANCH  17  19
ATOM     19  N   UNL     1      -1.727  -0.302  -2.352  0.00  0.00    -0.354 N 
ATOM     20  H   UNL     1      -0.960  -0.888  -2.444  0.00  0.00    +0.143 HD
ATOM     21  H   UNL     1      -2.140   0.084  -3.140  0.00  0.00    +0.143 HD
ENDBRANCH  17  19
ENDBRANCH  13  17
ENDBRANCH   1  13
TORSDOF 6
