REMARK  Name = ZINC48838521
REMARK  5 active torsions:
REMARK  status: ('A' for Active; 'I' for Inactive)
REMARK    1  A    between atoms: C_4  and  N_10
REMARK    2  A    between atoms: C_6  and  N_9
REMARK    3  A    between atoms: C_11  and  C_13
REMARK    4  A    between atoms: C_13  and  C_14
REMARK    5  A    between atoms: C_14  and  C_19
REMARK                            x       y       z     vdW  Elec       q    Type
REMARK                         _______ _______ _______ _____ _____    ______ ____
ROOT
ATOM      1  N   UNL     1       2.862  -0.453  -0.081  0.00  0.00    -0.314 N 
ATOM      2  C   UNL     1       4.205  -0.564  -0.096  0.00  0.00    +0.214 C 
ATOM      3  O   UNL     1       4.827  -0.261  -1.092  0.00  0.00    -0.276 OA
ATOM      4  H   UNL     1       2.365  -0.695   0.716  0.00  0.00    +0.149 HD
ENDROOT
BRANCH   1   8
ATOM      5  C   UNL     1      -0.019   1.526   0.010  0.00  0.00    -0.001 C 
ATOM      6  C   UNL     1       1.417   2.055  -0.000  0.00  0.00    +0.002 C 
ATOM      7  C   UNL     1       2.133   1.562  -1.259  0.00  0.00    +0.020 C 
ATOM      8  C   UNL     1       2.154   0.032  -1.268  0.00  0.00    +0.058 C 
ATOM      9  C   UNL     1       0.718  -0.497  -1.257  0.00  0.00    -0.055 C 
ATOM     10  C   UNL     1       0.002  -0.004   0.002  0.00  0.00    -0.014 C 
BRANCH   9  11
ATOM     11  N   UNL     1       0.738  -1.966  -1.265  0.00  0.00    +0.381 N 
ATOM     12  H   UNL     1       1.226  -2.301  -0.447  0.00  0.00    -0.090 HD
ATOM     13  H   UNL     1      -0.208  -2.316  -1.258  0.00  0.00    -0.090 HD
ATOM     14  H   UNL     1       1.210  -2.292  -2.095  0.00  0.00    -0.090 HD
ENDBRANCH   9  11
ENDBRANCH   1   8
BRANCH   2  15
ATOM     15  C   UNL     1       4.934  -1.063   1.125  0.00  0.00    +0.114 C 
BRANCH  15  16
ATOM     16  C   UNL     1       6.438  -1.092   0.845  0.00  0.00    +0.080 C 
ATOM     17  C   UNL     1       6.744  -2.085  -0.296  0.00  0.00    +0.019 C 
ATOM     18  C   UNL     1       8.085  -2.739   0.118  0.00  0.00    +0.001 C 
ATOM     19  C   UNL     1       7.935  -2.884   1.653  0.00  0.00    +0.001 C 
ATOM     20  C   UNL     1       7.195  -1.601   2.084  0.00  0.00    +0.019 C 
BRANCH  16  21
ATOM     21  C   UNL     1       6.921   0.286   0.474  0.00  0.00    +0.362 C 
ATOM     22  O   UNL     1       6.137   1.220   0.448  0.00  0.00    -0.246 OA
ATOM     23  O   UNL     1       8.095   0.468   0.200  0.00  0.00    -0.246 OA
ENDBRANCH  16  21
ENDBRANCH  15  16
ENDBRANCH   2  15
TORSDOF 5
