REMARK  Name = ZINC41057765
REMARK  2 active torsions:
REMARK  status: ('A' for Active; 'I' for Inactive)
REMARK    1  A    between atoms: C_6  and  C_7
REMARK    2  A    between atoms: C_11  and  C_13
REMARK                            x       y       z     vdW  Elec       q    Type
REMARK                         _______ _______ _______ _____ _____    ______ ____
ROOT
ATOM      1  C   UNL     1      -1.268  -0.764   0.011  0.00  0.00    +0.156 A 
ATOM      2  N   UNL     1      -2.513  -0.235   0.020  0.00  0.00    -0.259 N 
ATOM      3  H   UNL     1      -2.745   0.706   0.022  0.00  0.00    +0.191 HD
ATOM      4  N   UNL     1      -3.401  -1.323   0.025  0.00  0.00    -0.157 NA
ATOM      5  C   UNL     1      -2.675  -2.410   0.019  0.00  0.00    +0.154 A 
ATOM      6  N   UNL     1      -1.387  -2.076   0.005  0.00  0.00    -0.211 NA
ENDROOT
BRANCH   1  12
ATOM      7  C   UNL     1      -0.017   1.391   0.010  0.00  0.00    +0.013 A 
ATOM      8  C   UNL     1       1.170   2.095   0.002  0.00  0.00    +0.022 A 
ATOM      9  C   UNL     1       2.378   1.420  -0.013  0.00  0.00    +0.059 A 
ATOM     10  C   UNL     1       2.404   0.034  -0.021  0.00  0.00    +0.060 A 
ATOM     11  C   UNL     1       1.222  -0.680  -0.014  0.00  0.00    +0.033 A 
ATOM     12  C   UNL     1       0.002  -0.004   0.002  0.00  0.00    +0.020 A 
ATOM     13 CL   UNL     1       3.924  -0.805  -0.041  0.00  0.00    -0.082 Cl
ATOM     14 CL   UNL     1       3.867   2.312  -0.024  0.00  0.00    -0.082 Cl
ENDBRANCH   1  12
BRANCH   5  15
ATOM     15  C   UNL     1      -3.211  -3.819   0.023  0.00  0.00    +0.059 C 
ATOM     16  C   UNL     1      -4.718  -4.001  -0.170  0.00  0.00    +0.012 C 
ATOM     17  C   UNL     1      -4.088  -4.238   1.204  0.00  0.00    +0.012 C 
ENDBRANCH   5  15
TORSDOF 2
