REMARK  Name = ZINC09009004
REMARK  6 active torsions:
REMARK  status: ('A' for Active; 'I' for Inactive)
REMARK    1  A    between atoms: C_11  and  C_22
REMARK    2  A    between atoms: N_12  and  C_13
REMARK    3  A    between atoms: C_13  and  C_14
REMARK    4  A    between atoms: C_14  and  C_15
REMARK    5  A    between atoms: C_15  and  N_55
REMARK    6  A    between atoms: C_16  and  N_55
REMARK                            x       y       z     vdW  Elec       q    Type
REMARK                         _______ _______ _______ _____ _____    ______ ____
ROOT
ATOM      1  C   UNL     1       9.363   4.139   4.930  0.00  0.00    +0.002 A 
ATOM      2  C   UNL     1      10.320   3.646   4.055  0.00  0.00    +0.002 A 
ATOM      3  C   UNL     1       9.953   2.836   3.001  0.00  0.00    +0.028 A 
ATOM      4  C   UNL     1       8.618   2.511   2.812  0.00  0.00    +0.075 A 
ATOM      5  C   UNL     1       7.644   3.008   3.695  0.00  0.00    +0.091 A 
ATOM      6  C   UNL     1       8.033   3.828   4.759  0.00  0.00    +0.030 A 
ATOM      7  N   UNL     1       6.444   2.536   3.275  0.00  0.00    -0.212 NA
ATOM      8  C   UNL     1       6.613   1.789   2.203  0.00  0.00    +0.217 A 
ATOM      9  N   UNL     1       7.938   1.745   1.879  0.00  0.00    -0.283 N 
ATOM     10  C   UNL     1       8.083   0.956   0.752  0.00  0.00    +0.121 A 
ATOM     11  C   UNL     1       6.870   0.514   0.386  0.00  0.00    +0.068 A 
ATOM     12  N   UNL     1       5.935   1.029   1.278  0.00  0.00    -0.309 N 
ENDROOT
BRANCH  11  13
ATOM     13  C   UNL     1       6.576  -0.364  -0.768  0.00  0.00    +0.000 A 
ATOM     14  C   UNL     1       7.577  -1.179  -1.300  0.00  0.00    +0.011 A 
ATOM     15  C   UNL     1       7.296  -1.999  -2.373  0.00  0.00    +0.016 A 
ATOM     16  C   UNL     1       6.028  -2.009  -2.928  0.00  0.00    +0.018 A 
ATOM     17  C   UNL     1       5.033  -1.199  -2.408  0.00  0.00    +0.016 A 
ATOM     18  C   UNL     1       5.300  -0.378  -1.332  0.00  0.00    +0.011 A 
ATOM     19 BR   UNL     1       5.654  -3.131  -4.403  0.00  0.00    -0.050 Br
ENDBRANCH  11  13
BRANCH  12  20
ATOM     20  C   UNL     1       4.489   0.798   1.244  0.00  0.00    +0.123 C 
BRANCH  20  21
ATOM     21  C   UNL     1       3.806   1.951   0.505  0.00  0.00    +0.003 C 
BRANCH  21  22
ATOM     22  C   UNL     1       2.308   1.662   0.382  0.00  0.00    -0.081 C 
BRANCH  22  23
ATOM     23  N   UNL     1       1.658   2.778  -0.330  0.00  0.00    +0.381 N 
ATOM     24  H   UNL     1       2.073   2.871  -1.265  0.00  0.00    -0.086 HD
ATOM     25  H   UNL     1       1.803   3.647   0.197  0.00  0.00    -0.086 HD
BRANCH  23  26
ATOM     26  C   UNL     1       0.210   2.526  -0.464  0.00  0.00    -0.072 C 
ATOM     27  C   UNL     1      -0.509   2.997   0.802  0.00  0.00    -0.016 C 
ATOM     28  C   UNL     1      -2.011   2.744   0.659  0.00  0.00    -0.002 C 
ATOM     29  C   UNL     1      -2.546   3.515  -0.549  0.00  0.00    -0.000 C 
ATOM     30  C   UNL     1      -1.827   3.044  -1.814  0.00  0.00    -0.002 C 
ATOM     31  C   UNL     1      -0.325   3.298  -1.671  0.00  0.00    -0.016 C 
ENDBRANCH  23  26
ENDBRANCH  22  23
ENDBRANCH  21  22
ENDBRANCH  20  21
ENDBRANCH  12  20
TORSDOF 6
