REMARK  Name = ZINC59365111
REMARK  7 active torsions:
REMARK  status: ('A' for Active; 'I' for Inactive)
REMARK    1  A    between atoms: C_1  and  C_2
REMARK    2  A    between atoms: C_2  and  O_3
REMARK    3  A    between atoms: O_3  and  C_4
REMARK    4  A    between atoms: N_13  and  C_14
REMARK    5  A    between atoms: C_14  and  N_16
REMARK    6  A    between atoms: C_17  and  C_19
REMARK    7  A    between atoms: C_19  and  C_20
REMARK                            x       y       z     vdW  Elec       q    Type
REMARK                         _______ _______ _______ _____ _____    ______ ____
ROOT
ATOM      1  C   UNL     1       0.757  -1.812  -1.345  0.00  0.00    +0.122 A 
ATOM      2  C   UNL     1       0.226  -2.680  -0.400  0.00  0.00    +0.048 A 
ATOM      3  C   UNL     1       0.329  -4.042  -0.548  0.00  0.00    +0.030 A 
ATOM      4  C   UNL     1       0.976  -4.602  -1.663  0.00  0.00    +0.055 A 
ATOM      5  C   UNL     1       1.502  -3.701  -2.600  0.00  0.00    +0.042 A 
ATOM      6  C   UNL     1       1.397  -2.338  -2.459  0.00  0.00    +0.062 A 
ATOM      7  S   UNL     1       2.222  -4.761  -3.831  0.00  0.00    -0.052 S 
ATOM      8  C   UNL     1       1.810  -6.328  -3.079  0.00  0.00    +0.163 A 
ATOM      9  N   UNL     1       1.156  -5.946  -1.946  0.00  0.00    -0.335 N 
ATOM     10  N   UNL     1       2.075  -7.554  -3.514  0.00  0.00    -0.169 NA
ATOM     11  H   UNL     1       0.814  -6.618  -1.336  0.00  0.00    +0.168 HD
ENDROOT
BRANCH  10  12
ATOM     12  C   UNL     1       1.768  -8.612  -2.757  0.00  0.00    +0.163 C 
ATOM     13  S   UNL     1       0.131  -8.963  -2.398  0.00  0.00    -0.016 S 
BRANCH  12  14
ATOM     14  N   UNL     1       2.748  -9.403  -2.275  0.00  0.00    -0.266 N 
ATOM     15  C   UNL     1       2.439 -10.470  -1.512  0.00  0.00    +0.223 C 
ATOM     16  O   UNL     1       1.279 -10.718  -1.258  0.00  0.00    -0.275 OA
ATOM     17  H   UNL     1       3.675  -9.204  -2.478  0.00  0.00    +0.157 HD
BRANCH  15  18
ATOM     18  C   UNL     1       3.534 -11.354  -0.973  0.00  0.00    +0.131 C 
BRANCH  18  19
ATOM     19  C   UNL     1       2.927 -12.466  -0.158  0.00  0.00    -0.039 A 
ATOM     20  C   UNL     1       2.712 -12.291   1.197  0.00  0.00    +0.005 A 
ATOM     21  C   UNL     1       2.155 -13.311   1.945  0.00  0.00    +0.020 A 
ATOM     22  C   UNL     1       1.812 -14.506   1.339  0.00  0.00    +0.041 A 
ATOM     23  C   UNL     1       2.028 -14.680  -0.017  0.00  0.00    +0.020 A 
ATOM     24  C   UNL     1       2.580 -13.658  -0.765  0.00  0.00    +0.005 A 
ATOM     25 CL   UNL     1       1.113 -15.787   2.279  0.00  0.00    -0.084 Cl
ENDBRANCH  18  19
ENDBRANCH  15  18
ENDBRANCH  12  14
ENDBRANCH  10  12
BRANCH   1  26
ATOM     26  O   UNL     1       0.648  -0.466  -1.185  0.00  0.00    -0.492 OA
BRANCH  26  28
ATOM     27  C   UNL     1      -0.050   1.524  -0.004  0.00  0.00    +0.048 C 
ATOM     28  C   UNL     1      -0.025  -0.005  -0.011  0.00  0.00    +0.225 C 
ENDBRANCH  26  28
ENDBRANCH   1  26
TORSDOF 6
