REMARK  Name = ZINC45896276
REMARK  6 active torsions:
REMARK  status: ('A' for Active; 'I' for Inactive)
REMARK    1  A    between atoms: C_1  and  C_2
REMARK    2  A    between atoms: C_2  and  N_3
REMARK    3  A    between atoms: C_12  and  O_13
REMARK    4  A    between atoms: C_14  and  N_15
REMARK    5  A    between atoms: N_18  and  C_19
REMARK    6  A    between atoms: C_24  and  C_25
REMARK                            x       y       z     vdW  Elec       q    Type
REMARK                         _______ _______ _______ _____ _____    ______ ____
ROOT
ATOM      1  N   UNL     1      -0.990  -1.499   0.298  0.00  0.00    -0.383 N 
ATOM      2  C   UNL     1      -1.655  -1.644  -0.829  0.00  0.00    +0.075 A 
ATOM      3  C   UNL     1      -3.076  -2.060  -0.838  0.00  0.00    +0.042 A 
ATOM      4  C   UNL     1      -3.764  -2.312   0.345  0.00  0.00    +0.013 A 
ATOM      5  C   UNL     1      -5.087  -2.696   0.295  0.00  0.00    +0.001 A 
ATOM      6  C   UNL     1      -5.729  -2.831  -0.927  0.00  0.00    +0.004 A 
ATOM      7  C   UNL     1      -5.056  -2.583  -2.105  0.00  0.00    +0.047 A 
ATOM      8  C   UNL     1      -3.723  -2.195  -2.074  0.00  0.00    +0.141 A 
ATOM      9  O   UNL     1      -3.047  -1.948  -3.217  0.00  0.00    -0.424 OA
ATOM     10  C   UNL     1      -1.758  -1.571  -3.226  0.00  0.00    +0.309 A 
ATOM     11  C   UNL     1      -1.038  -1.403  -2.091  0.00  0.00    +0.140 A 
ATOM     12  H   UNL     1      -1.457  -1.552   1.147  0.00  0.00    +0.160 HD
ENDROOT
BRANCH  11  13
ATOM     13  N   UNL     1       0.311  -0.999  -2.158  0.00  0.00    -0.262 N 
ATOM     14  C   UNL     1       0.658   0.252  -1.794  0.00  0.00    +0.308 C 
ATOM     15  O   UNL     1      -0.200   1.054  -1.480  0.00  0.00    -0.252 OA
ATOM     16  N   UNL     1       1.957   0.613  -1.779  0.00  0.00    -0.269 N 
ATOM     17  H   UNL     1       0.989  -1.620  -2.465  0.00  0.00    +0.157 HD
ATOM     18  H   UNL     1       2.636  -0.006  -2.089  0.00  0.00    +0.156 HD
BRANCH  16  19
ATOM     19  C   UNL     1       2.325   1.881  -1.316  0.00  0.00    +0.038 A 
ATOM     20  C   UNL     1       1.444   2.948  -1.434  0.00  0.00    +0.023 A 
ATOM     21  C   UNL     1       1.810   4.198  -0.975  0.00  0.00    +0.002 A 
ATOM     22  C   UNL     1       3.052   4.388  -0.399  0.00  0.00    +0.000 A 
ATOM     23  C   UNL     1       3.932   3.328  -0.280  0.00  0.00    +0.005 A 
ATOM     24  C   UNL     1       3.570   2.074  -0.732  0.00  0.00    -0.029 A 
ATOM     25  C   UNL     1       4.526   0.918  -0.595  0.00  0.00    +0.045 C 
ENDBRANCH  16  19
ENDBRANCH  11  13
BRANCH   1  27
ATOM     26  C   UNL     1       1.067  -1.676   1.609  0.00  0.00    +0.026 C 
ATOM     27  C   UNL     1       0.454  -1.257   0.271  0.00  0.00    +0.109 C 
ENDBRANCH   1  27
BRANCH  10  28
ATOM     28  O   UNL     1      -1.157  -1.344  -4.417  0.00  0.00    -0.479 OA
ATOM     29  H   UNL     1      -1.734  -1.480  -5.181  0.00  0.00    +0.295 HD
ENDBRANCH  10  28
TORSDOF 4
