REMARK  Name = ZINC63572757
REMARK  4 active torsions:
REMARK  status: ('A' for Active; 'I' for Inactive)
REMARK    1  A    between atoms: C_1  and  C_2
REMARK    2  A    between atoms: C_5  and  C_8
REMARK    3  A    between atoms: N_26  and  C_27
REMARK    4  A    between atoms: C_30  and  C_34
REMARK                            x       y       z     vdW  Elec       q    Type
REMARK                         _______ _______ _______ _____ _____    ______ ____
ROOT
ATOM      1  C   UNL     1       0.647  -5.047   0.367  0.00  0.00    +0.134 C 
ATOM      2  C   UNL     1       1.943  -5.446   1.082  0.00  0.00    +0.131 C 
ATOM      3  C   UNL     1       1.989  -4.645   2.377  0.00  0.00    -0.035 C 
ATOM      4  C   UNL     1       3.136  -3.977   2.364  0.00  0.00    +0.001 A 
ATOM      5  C   UNL     1       3.768  -3.097   3.361  0.00  0.00    +0.030 A 
ATOM      6  C   UNL     1       4.966  -2.556   3.010  0.00  0.00    +0.042 A 
ATOM      7  C   UNL     1       5.590  -2.800   1.780  0.00  0.00    +0.022 A 
ATOM      8  C   UNL     1       5.082  -3.599   0.808  0.00  0.00    +0.027 A 
ATOM      9  C   UNL     1       3.828  -4.228   1.063  0.00  0.00    +0.043 A 
ATOM     10  N   UNL     1       3.129  -5.061   0.313  0.00  0.00    -0.375 N 
ATOM     11 CL   UNL     1       5.761  -1.509   4.143  0.00  0.00    -0.084 Cl
ATOM     12  C   UNL     1       0.849  -4.636   3.365  0.00  0.00    +0.052 C 
ATOM     13  C   UNL     1      -0.428  -4.319   2.565  0.00  0.00    +0.114 C 
ATOM     14  N   UNL     1      -0.451  -5.131   1.342  0.00  0.00    -0.276 N 
ATOM     15  C   UNL     1      -1.487  -5.962   1.111  0.00  0.00    +0.307 C 
ATOM     16  O   UNL     1      -1.469  -6.702   0.147  0.00  0.00    -0.252 OA
ATOM     17  N   UNL     1      -2.542  -5.973   1.949  0.00  0.00    -0.269 N 
ATOM     18  H   UNL     1      -2.576  -5.353   2.695  0.00  0.00    +0.156 HD
ATOM     19  H   UNL     1       3.348  -5.364  -0.582  0.00  0.00    +0.160 HD
ENDROOT
BRANCH  17  20
ATOM     20  C   UNL     1      -3.590  -6.877   1.743  0.00  0.00    +0.036 A 
ATOM     21  C   UNL     1      -3.905  -7.295   0.456  0.00  0.00    +0.024 A 
ATOM     22  C   UNL     1      -4.940  -8.188   0.255  0.00  0.00    +0.006 A 
ATOM     23  C   UNL     1      -5.662  -8.665   1.333  0.00  0.00    -0.032 A 
ATOM     24  C   UNL     1      -5.352  -8.250   2.616  0.00  0.00    +0.046 A 
ATOM     25  C   UNL     1      -4.314  -7.362   2.824  0.00  0.00    +0.043 A 
ATOM     26 CL   UNL     1      -6.262  -8.852   3.967  0.00  0.00    -0.083 Cl
ATOM     27  C   UNL     1      -6.791  -9.639   1.110  0.00  0.00    +0.045 C 
ENDBRANCH  17  20
BRANCH   1  32
ATOM     28  C   UNL     1       1.095   0.362  -1.617  0.00  0.00    +0.044 C 
ATOM     29  C   UNL     1       0.978  -1.049  -1.100  0.00  0.00    -0.050 A 
ATOM     30  C   UNL     1       1.306  -1.333   0.213  0.00  0.00    +0.004 A 
ATOM     31  C   UNL     1       1.199  -2.627   0.687  0.00  0.00    +0.006 A 
ATOM     32  C   UNL     1       0.763  -3.636  -0.150  0.00  0.00    -0.025 A 
ATOM     33  C   UNL     1       0.434  -3.352  -1.462  0.00  0.00    +0.006 A 
ATOM     34  C   UNL     1       0.537  -2.057  -1.936  0.00  0.00    +0.004 A 
ENDBRANCH   1  32
TORSDOF 2
