REMARK  Name = ZINC65566568
REMARK  4 active torsions:
REMARK  status: ('A' for Active; 'I' for Inactive)
REMARK    1  A    between atoms: C_1  and  C_2
REMARK    2  A    between atoms: C_5  and  C_23
REMARK    3  A    between atoms: N_13  and  C_14
REMARK    4  A    between atoms: C_14  and  C_15
REMARK                            x       y       z     vdW  Elec       q    Type
REMARK                         _______ _______ _______ _____ _____    ______ ____
ROOT
ATOM      1  C   UNL     1      -0.400   1.456  -0.665  0.00  0.00    +0.028 C 
ATOM      2  C   UNL     1      -0.229  -0.057  -0.512  0.00  0.00    +0.072 C 
ATOM      3  C   UNL     1      -1.601  -0.718  -0.322  0.00  0.00    +0.039 C 
ATOM      4  C   UNL     1      -1.412  -2.232  -0.241  0.00  0.00    +0.108 C 
ATOM      5  C   UNL     1      -0.361  -2.579   0.781  0.00  0.00    -0.014 A 
ATOM      6  C   UNL     1      -0.341  -3.857   1.314  0.00  0.00    +0.006 A 
ATOM      7  C   UNL     1       0.612  -4.206   2.251  0.00  0.00    +0.000 A 
ATOM      8  C   UNL     1       1.554  -3.280   2.663  0.00  0.00    +0.002 A 
ATOM      9  C   UNL     1       1.540  -2.004   2.137  0.00  0.00    +0.023 A 
ATOM     10  C   UNL     1       0.581  -1.650   1.194  0.00  0.00    +0.034 A 
ATOM     11  N   UNL     1       0.580  -0.349   0.679  0.00  0.00    -0.323 N 
ENDROOT
BRANCH   4  12
ATOM     12  C   UNL     1      -2.716  -2.877   0.154  0.00  0.00    +0.218 C 
ATOM     13  O   UNL     1      -3.450  -2.324   0.946  0.00  0.00    -0.275 OA
ATOM     14  N   UNL     1      -3.067  -4.066  -0.373  0.00  0.00    -0.329 N 
ATOM     15  H   UNL     1      -2.448  -4.543  -0.948  0.00  0.00    +0.145 HD
ATOM     16  H   UNL     1      -3.938  -4.445  -0.178  0.00  0.00    +0.145 HD
ENDBRANCH   4  12
BRANCH  11  17
ATOM     17  C   UNL     1       1.372   0.705   1.317  0.00  0.00    +0.140 C 
BRANCH  17  18
ATOM     18  C   UNL     1       2.747   0.744   0.700  0.00  0.00    -0.024 A 
ATOM     19  C   UNL     1       3.809   0.078   1.291  0.00  0.00    +0.045 A 
ATOM     20  C   UNL     1       5.056   0.135   0.695  0.00  0.00    +0.131 A 
ATOM     21  N   UNL     1       5.240   0.815  -0.421  0.00  0.00    -0.224 NA
ATOM     22  C   UNL     1       4.252   1.461  -1.011  0.00  0.00    +0.131 A 
ATOM     23  C   UNL     1       2.976   1.443  -0.475  0.00  0.00    +0.045 A 
ATOM     24 CL   UNL     1       4.554   2.338  -2.478  0.00  0.00    -0.062 Cl
ATOM     25 CL   UNL     1       6.395  -0.695   1.425  0.00  0.00    -0.062 Cl
ENDBRANCH  17  18
ENDBRANCH  11  17
TORSDOF 3
