REMARK  Name = ZINC15147984
REMARK  7 active torsions:
REMARK  status: ('A' for Active; 'I' for Inactive)
REMARK    1  A    between atoms: C_1  and  C_2
REMARK    2  A    between atoms: C_8  and  C_19
REMARK    3  A    between atoms: C_9  and  C_10
REMARK    4  A    between atoms: C_9  and  O_12
REMARK    5  A    between atoms: C_10  and  O_11
REMARK    6  A    between atoms: C_16  and  C_17
REMARK    7  A    between atoms: C_16  and  C_18
REMARK                            x       y       z     vdW  Elec       q    Type
REMARK                         _______ _______ _______ _____ _____    ______ ____
ROOT
ATOM      1  C   UNL     1       0.363   1.776  -0.316  0.00  0.00    +0.042 C 
ATOM      2  C   UNL     1       0.325   0.269  -0.361  0.00  0.00    -0.036 C 
ATOM      3  C   UNL     1       0.384  -0.326  -1.544  0.00  0.00    +0.048 C 
ATOM      4  C   UNL     1       0.345  -1.794  -1.650  0.00  0.00    +0.160 C 
ATOM      5  O   UNL     1       0.203  -2.304  -2.739  0.00  0.00    -0.292 OA
ATOM      6  C   UNL     1       0.519  -2.577  -0.366  0.00  0.00    +0.074 C 
ATOM      7  C   UNL     1      -0.315  -1.893   0.713  0.00  0.00    +0.013 C 
ATOM      8  C   UNL     1       0.228  -0.475   0.940  0.00  0.00    +0.116 C 
ATOM      9  C   UNL     1      -0.277  -2.680   2.019  0.00  0.00    +0.010 C 
ATOM     10  C   UNL     1      -0.735  -4.120   1.775  0.00  0.00    +0.001 C 
ATOM     11  C   UNL     1       0.231  -4.789   0.801  0.00  0.00    +0.007 C 
ATOM     12  C   UNL     1       0.246  -4.056  -0.544  0.00  0.00    -0.024 C 
ATOM     13  C   UNL     1      -1.052  -4.354  -1.290  0.00  0.00    +0.011 C 
ATOM     14  C   UNL     1       1.406  -4.666  -1.365  0.00  0.00    +0.011 C 
ATOM     15  C   UNL     1      -1.778  -1.733   0.270  0.00  0.00    +0.015 C 
ENDROOT
BRANCH   8  16
ATOM     16  O   UNL     1      -0.681   0.225   1.798  0.00  0.00    -0.381 OA
ATOM     17  H   UNL     1      -0.414   1.133   1.997  0.00  0.00    +0.211 HD
ENDBRANCH   8  16
BRANCH   8  18
ATOM     18  C   UNL     1       1.604  -0.505   1.598  0.00  0.00    +0.195 C 
BRANCH  18  19
ATOM     19  O   UNL     1       2.046   0.832   1.839  0.00  0.00    -0.392 OA
ATOM     20  H   UNL     1       2.917   0.889   2.256  0.00  0.00    +0.210 HD
ENDBRANCH  18  19
ENDBRANCH   8  18
TORSDOF 3
