REMARK  Name = ZINC05220316
REMARK  8 active torsions:
REMARK  status: ('A' for Active; 'I' for Inactive)
REMARK    1  A    between atoms: C_1  and  C_2
REMARK    2  A    between atoms: C_1  and  O_19
REMARK    3  A    between atoms: C_2  and  C_4
REMARK    4  A    between atoms: C_2  and  O_18
REMARK    5  A    between atoms: C_4  and  C_6
REMARK    6  A    between atoms: C_4  and  O_17
REMARK    7  A    between atoms: C_8  and  O_16
REMARK    8  A    between atoms: C_10  and  O_15
REMARK                            x       y       z     vdW  Elec       q    Type
REMARK                         _______ _______ _______ _____ _____    ______ ____
ROOT
ATOM      1  C   UNL     1       2.040   1.127  -1.261  0.00  0.00    +0.239 C 
ATOM      2  C   UNL     1       1.268   1.572  -2.520  0.00  0.00    +0.197 C 
ATOM      3  C   UNL     1       2.278   2.490  -3.245  0.00  0.00    +0.255 C 
ATOM      4  C   UNL     1       3.603   2.146  -2.588  0.00  0.00    +0.339 C 
ATOM      5  O   UNL     1       4.693   2.188  -3.108  0.00  0.00    -0.248 OA
ATOM      6  O   UNL     1       3.336   1.787  -1.320  0.00  0.00    -0.454 OA
ENDROOT
BRANCH   3   7
ATOM      7  O   UNL     1       2.316   2.191  -4.642  0.00  0.00    -0.378 OA
ATOM      8  H   UNL     1       2.935   2.739  -5.144  0.00  0.00    +0.211 HD
ENDBRANCH   3   7
BRANCH   2   9
ATOM      9  O   UNL     1       0.092   2.301  -2.160  0.00  0.00    -0.385 OA
ATOM     10  H   UNL     1      -0.430   2.604  -2.916  0.00  0.00    +0.210 HD
ENDBRANCH   2   9
BRANCH   1  11
ATOM     11  C   UNL     1       1.286   1.562  -0.002  0.00  0.00    +0.188 C 
BRANCH  11  12
ATOM     12  O   UNL     1      -0.011   0.963   0.007  0.00  0.00    -0.385 OA
ATOM     13  H   UNL     1       0.002  -0.004   0.002  0.00  0.00    +0.210 HD
ENDBRANCH  11  12
BRANCH  11  14
ATOM     14  C   UNL     1       2.064   1.114   1.238  0.00  0.00    +0.172 C 
BRANCH  14  15
ATOM     15  O   UNL     1       3.361   1.713   1.228  0.00  0.00    -0.387 OA
ATOM     16  H   UNL     1       3.348   2.680   1.234  0.00  0.00    +0.210 HD
ENDBRANCH  14  15
BRANCH  14  17
ATOM     17  C   UNL     1       1.310   1.548   2.497  0.00  0.00    +0.189 C 
BRANCH  17  18
ATOM     18  O   UNL     1       1.974   1.030   3.651  0.00  0.00    -0.392 OA
ATOM     19  H   UNL     1       1.550   1.267   4.488  0.00  0.00    +0.210 HD
ENDBRANCH  17  18
ENDBRANCH  14  17
ENDBRANCH  11  14
ENDBRANCH   1  11
TORSDOF 8
