REMARK  Name = ZINC32808861
REMARK  7 active torsions:
REMARK  status: ('A' for Active; 'I' for Inactive)
REMARK    1  A    between atoms: C_1  and  C_2
REMARK    2  A    between atoms: C_3  and  C_16
REMARK    3  A    between atoms: C_4  and  C_15
REMARK    4  A    between atoms: C_9  and  C_11
REMARK    5  A    between atoms: C_16  and  C_17
REMARK    6  A    between atoms: C_17  and  C_18
REMARK    7  A    between atoms: C_29  and  C_31
REMARK                            x       y       z     vdW  Elec       q    Type
REMARK                         _______ _______ _______ _____ _____    ______ ____
ROOT
ATOM      1  C   UNL     1      -0.019   1.077   0.008  0.00  0.00    +0.101 C 
ENDROOT
BRANCH   1   2
ATOM      2  C   UNL     1      -0.742   1.584  -1.213  0.00  0.00    +0.217 C 
ATOM      3  O   UNL     1      -1.732   2.274  -1.088  0.00  0.00    -0.276 OA
ATOM      4  N   UNL     1      -0.289   1.272  -2.443  0.00  0.00    -0.285 N 
ATOM      5  C   UNL     1       0.969   0.540  -2.630  0.00  0.00    +0.144 C 
ATOM      6  C   UNL     1       1.769   1.180  -3.736  0.00  0.00    -0.027 A 
ATOM      7  C   UNL     1       3.090   0.781  -3.894  0.00  0.00    +0.005 A 
ATOM      8  C   UNL     1       3.870   1.323  -4.895  0.00  0.00    +0.000 A 
ATOM      9  C   UNL     1       3.332   2.269  -5.747  0.00  0.00    +0.000 A 
ATOM     10  C   UNL     1       2.021   2.669  -5.588  0.00  0.00    +0.004 A 
ATOM     11  C   UNL     1       1.235   2.130  -4.577  0.00  0.00    -0.040 A 
ATOM     12  C   UNL     1      -0.178   2.635  -4.447  0.00  0.00    +0.067 C 
ATOM     13  C   UNL     1      -1.039   1.646  -3.653  0.00  0.00    +0.166 C 
BRANCH  13  14
ATOM     14  C   UNL     1      -2.341   2.297  -3.265  0.00  0.00    +0.231 C 
ATOM     15  O   UNL     1      -2.419   3.505  -3.198  0.00  0.00    -0.274 OA
ATOM     16  N   UNL     1      -3.420   1.536  -2.992  0.00  0.00    -0.328 N 
ATOM     17  H   UNL     1      -4.371   2.011  -2.708  0.00  0.00    +0.145 HD
ATOM     18  H   UNL     1      -3.349   0.440  -3.052  0.00  0.00    +0.145 HD
ENDBRANCH  13  14
ENDBRANCH   1   2
BRANCH   1  19
ATOM     19  C   UNL     1      -0.734   1.571   1.267  0.00  0.00    +0.048 C 
BRANCH  19  22
ATOM     20  C   UNL     1      -1.477  -0.982   2.456  0.00  0.00    +0.066 C 
ATOM     21  C   UNL     1      -0.366  -0.163   3.062  0.00  0.00    +0.047 A 
ATOM     22  C   UNL     1      -0.011   1.064   2.488  0.00  0.00    -0.005 A 
ATOM     23  C   UNL     1       0.988   1.793   3.047  0.00  0.00    +0.048 A 
ATOM     24  N   UNL     1       1.622   1.309   4.148  0.00  0.00    -0.200 N 
ATOM     25  C   UNL     1       1.255   0.105   4.681  0.00  0.00    +0.254 A 
ATOM     26  N   UNL     1       0.269  -0.607   4.123  0.00  0.00    -0.216 NA
ATOM     27  N   UNL     1       2.033  -0.111   5.736  0.00  0.00    -0.186 NA
ATOM     28  C   UNL     1       2.873   0.903   5.889  0.00  0.00    +0.257 A 
ATOM     29  N   UNL     1       2.664   1.794   4.949  0.00  0.00    -0.139 NA
ATOM     30  C   UNL     1       1.389   3.120   2.456  0.00  0.00    +0.066 C 
BRANCH  28  31
ATOM     31  C   UNL     1       3.909   1.015   6.977  0.00  0.00    +0.454 C 
ATOM     32  F   UNL     1       3.284   1.337   8.186  0.00  0.00    -0.163 F 
ATOM     33  F   UNL     1       4.580  -0.205   7.110  0.00  0.00    -0.163 F 
ATOM     34  F   UNL     1       4.827   2.018   6.645  0.00  0.00    -0.163 F 
ENDBRANCH  28  31
ENDBRANCH  19  22
ENDBRANCH   1  19
TORSDOF 5
