REMARK  Name = ZINC39763442
REMARK  8 active torsions:
REMARK  status: ('A' for Active; 'I' for Inactive)
REMARK    1  A    between atoms: C_1  and  C_2
REMARK    2  A    between atoms: C_2  and  C_3
REMARK    3  A    between atoms: C_2  and  C_4
REMARK    4  A    between atoms: C_4  and  C_6
REMARK    5  A    between atoms: C_4  and  S_12
REMARK    6  A    between atoms: S_12  and  C_13
REMARK    7  A    between atoms: C_17  and  C_22
REMARK    8  A    between atoms: N_18  and  C_19
REMARK                            x       y       z     vdW  Elec       q    Type
REMARK                         _______ _______ _______ _____ _____    ______ ____
ROOT
ATOM      1  C   UNL     1      -1.010  -2.824   1.412  0.00  0.00    +0.238 C 
ATOM      2  N   UNL     1      -1.575  -2.203   2.622  0.00  0.00    -0.237 N 
ATOM      3  N   UNL     1      -2.573  -1.323   2.187  0.00  0.00    -0.169 NA
ATOM      4  C   UNL     1      -2.681  -1.333   0.885  0.00  0.00    +0.147 C 
ATOM      5  N   UNL     1      -1.768  -2.222   0.304  0.00  0.00    -0.282 N 
ATOM      6  H   UNL     1      -1.309  -2.371   3.539  0.00  0.00    +0.171 HD
ENDROOT
BRANCH   4   7
ATOM      7  C   UNL     1      -3.596  -0.555   0.160  0.00  0.00    +0.022 C 
ATOM      8  C   UNL     1      -4.598   0.268   0.676  0.00  0.00    +0.006 A 
ATOM      9  C   UNL     1      -4.997   0.572   1.996  0.00  0.00    +0.010 A 
ATOM     10  C   UNL     1      -6.029   1.428   2.208  0.00  0.00    +0.001 A 
ATOM     11  C   UNL     1      -6.715   2.023   1.147  0.00  0.00    +0.002 A 
ATOM     12  C   UNL     1      -6.386   1.777  -0.146  0.00  0.00    +0.026 A 
ATOM     13  C   UNL     1      -5.318   0.893  -0.446  0.00  0.00    +0.043 A 
ATOM     14  N   UNL     1      -4.811   0.496  -1.596  0.00  0.00    -0.380 N 
ATOM     15  C   UNL     1      -3.700  -0.427  -1.344  0.00  0.00    +0.152 C 
ATOM     16  H   UNL     1      -5.121   0.774  -2.472  0.00  0.00    +0.160 HD
ENDBRANCH   4   7
BRANCH   5  17
ATOM     17  C   UNL     1      -1.600  -2.500  -1.125  0.00  0.00    +0.078 C 
ATOM     18  C   UNL     1      -1.964  -3.901  -1.620  0.00  0.00    +0.024 C 
ATOM     19  C   UNL     1      -0.496  -3.479  -1.529  0.00  0.00    +0.024 C 
ENDBRANCH   5  17
BRANCH   1  20
ATOM     20  S   UNL     1       0.754  -2.429   1.262  0.00  0.00    -0.105 S 
BRANCH  20  21
ATOM     21  C   UNL     1       0.800  -0.615   1.264  0.00  0.00    +0.138 C 
BRANCH  21  22
ATOM     22  C   UNL     1       2.232  -0.148   1.267  0.00  0.00    +0.234 C 
ATOM     23  O   UNL     1       3.104  -0.865   0.823  0.00  0.00    -0.274 OA
ATOM     24  N   UNL     1       2.545   1.065   1.762  0.00  0.00    -0.239 N 
ATOM     25  C   UNL     1       3.826   1.483   1.764  0.00  0.00    +0.303 C 
ATOM     26  O   UNL     1       4.700   0.765   1.319  0.00  0.00    -0.253 OA
ATOM     27  N   UNL     1       4.139   2.697   2.259  0.00  0.00    -0.313 N 
ATOM     28  H   UNL     1       1.848   1.639   2.117  0.00  0.00    +0.159 HD
ATOM     29  H   UNL     1       3.442   3.270   2.614  0.00  0.00    +0.146 HD
ATOM     30  H   UNL     1       5.061   2.997   2.261  0.00  0.00    +0.146 HD
ENDBRANCH  21  22
BRANCH  21  32
ATOM     31  C   UNL     1       0.131   1.444   0.017  0.00  0.00    +0.009 C 
ATOM     32  C   UNL     1       0.093  -0.086   0.015  0.00  0.00    +0.005 C 
ATOM     33  C   UNL     1       0.803  -0.612  -1.234  0.00  0.00    +0.009 C 
ENDBRANCH  21  32
ENDBRANCH  20  21
ENDBRANCH   1  20
TORSDOF 6
