REMARK  Name = ZINC39610132
REMARK  4 active torsions:
REMARK  status: ('A' for Active; 'I' for Inactive)
REMARK    1  A    between atoms: C_6  and  C_7
REMARK    2  A    between atoms: C_7  and  N_8
REMARK    3  A    between atoms: C_9  and  C_11
REMARK    4  A    between atoms: C_22  and  C_24
REMARK                            x       y       z     vdW  Elec       q    Type
REMARK                         _______ _______ _______ _____ _____    ______ ____
ROOT
ATOM      1  C   UNL     1      -3.625  -1.440  -2.646  0.00  0.00    +0.100 C 
ATOM      2  C   UNL     1      -3.873  -0.263  -3.615  0.00  0.00    +0.121 C 
ATOM      3  N   UNL     1      -5.005  -0.707  -4.462  0.00  0.00    -0.296 N 
ATOM      4  C   UNL     1      -5.910  -1.416  -3.526  0.00  0.00    +0.115 C 
ATOM      5  C   UNL     1      -4.964  -2.194  -2.589  0.00  0.00    -0.004 C 
ATOM      6  C   UNL     1      -4.786  -3.625  -3.088  0.00  0.00    -0.010 C 
ATOM      7  C   UNL     1      -6.118  -4.371  -2.969  0.00  0.00    -0.082 C 
ATOM      8  N   UNL     1      -6.558  -4.371  -1.569  0.00  0.00    +0.379 N 
ATOM      9  C   UNL     1      -6.815  -2.996  -1.124  0.00  0.00    -0.082 C 
ATOM     10  C   UNL     1      -5.513  -2.192  -1.166  0.00  0.00    -0.010 C 
ATOM     11  C   UNL     1      -5.174  -0.512  -5.785  0.00  0.00    +0.247 C 
ATOM     12  O   UNL     1      -4.280  -0.021  -6.446  0.00  0.00    -0.270 OA
ATOM     13  H   UNL     1      -7.403  -4.915  -1.483  0.00  0.00    -0.086 HD
ATOM     14  H   UNL     1      -5.838  -4.780  -0.992  0.00  0.00    -0.086 HD
ENDROOT
BRANCH  11  15
ATOM     15  C   UNL     1      -6.447  -0.894  -6.432  0.00  0.00    +0.042 A 
ATOM     16  C   UNL     1      -7.604  -1.043  -5.667  0.00  0.00    +0.051 A 
ATOM     17  C   UNL     1      -8.792  -1.401  -6.277  0.00  0.00    +0.127 A 
ATOM     18  C   UNL     1      -8.834  -1.611  -7.646  0.00  0.00    +0.076 A 
ATOM     19  C   UNL     1      -7.688  -1.464  -8.410  0.00  0.00    +0.127 A 
ATOM     20  C   UNL     1      -6.497  -1.101  -7.811  0.00  0.00    +0.051 A 
ATOM     21  F   UNL     1      -7.737  -1.670  -9.745  0.00  0.00    -0.205 F 
ATOM     22  F   UNL     1      -9.913  -1.546  -5.538  0.00  0.00    -0.205 F 
ENDBRANCH  11  15
BRANCH   1  24
ATOM     23  N   UNL     1      -2.444  -1.650  -0.482  0.00  0.00    -0.311 N 
ATOM     24  C   UNL     1      -3.255  -0.925  -1.279  0.00  0.00    +0.218 C 
ATOM     25  O   UNL     1      -3.686   0.142  -0.895  0.00  0.00    -0.275 OA
ATOM     26  H   UNL     1      -2.099  -2.503  -0.789  0.00  0.00    +0.149 HD
BRANCH  23  27
ATOM     27  C   UNL     1      -2.084  -1.149   0.847  0.00  0.00    +0.139 C 
BRANCH  27  33
ATOM     28  C   UNL     1       0.194  -2.040   1.373  0.00  0.00    +0.009 A 
ATOM     29  C   UNL     1       1.031  -2.946   1.996  0.00  0.00    +0.050 A 
ATOM     30  C   UNL     1       0.499  -3.958   2.777  0.00  0.00    +0.166 A 
ATOM     31  C   UNL     1      -0.882  -4.059   2.934  0.00  0.00    +0.167 A 
ATOM     32  C   UNL     1      -1.715  -3.148   2.307  0.00  0.00    +0.054 A 
ATOM     33  C   UNL     1      -1.176  -2.140   1.528  0.00  0.00    -0.027 A 
ATOM     34  O   UNL     1      -1.152  -5.127   3.740  0.00  0.00    -0.453 OA
ATOM     35  C   UNL     1       0.049  -5.920   3.744  0.00  0.00    +0.466 C 
ATOM     36  O   UNL     1       1.093  -4.962   3.486  0.00  0.00    -0.453 OA
ENDBRANCH  27  33
ENDBRANCH  23  27
ENDBRANCH   1  24
TORSDOF 4
