REMARK  Name = ZINC08301860
REMARK  6 active torsions:
REMARK  status: ('A' for Active; 'I' for Inactive)
REMARK    1  A    between atoms: C_1  and  C_2
REMARK    2  A    between atoms: C_5  and  N_9
REMARK    3  A    between atoms: C_6  and  C_8
REMARK    4  A    between atoms: C_10  and  C_12
REMARK    5  A    between atoms: C_14  and  C_20
REMARK    6  A    between atoms: C_23  and  N_26
REMARK                            x       y       z     vdW  Elec       q    Type
REMARK                         _______ _______ _______ _____ _____    ______ ____
ROOT
ATOM      1  C   UNL     1      -0.134  -6.343  -1.187  0.00  0.00    +0.166 C 
ATOM      2  C   UNL     1       0.494  -6.955  -2.469  0.00  0.00    +0.133 C 
ATOM      3  N   UNL     1      -0.291  -8.076  -2.951  0.00  0.00    -0.360 N 
ATOM      4  C   UNL     1      -1.526  -8.249  -2.575  0.00  0.00    +0.126 C 
ATOM      5  S   UNL     1      -1.869  -6.915  -1.437  0.00  0.00    -0.078 S 
ATOM      6  N   UNL     1      -2.385  -9.249  -2.969  0.00  0.00    -0.339 N 
ATOM      7  H   UNL     1      -2.086  -9.925  -3.597  0.00  0.00    +0.144 HD
ATOM      8  H   UNL     1      -3.289  -9.277  -2.620  0.00  0.00    +0.144 HD
ATOM      9  H   UNL     1       0.112  -8.709  -3.566  0.00  0.00    +0.162 HD
ENDROOT
BRANCH   2  10
ATOM     10  C   UNL     1       1.891  -7.428  -2.158  0.00  0.00    -0.024 A 
ATOM     11  C   UNL     1       2.085  -8.642  -1.527  0.00  0.00    +0.008 A 
ATOM     12  C   UNL     1       3.366  -9.076  -1.242  0.00  0.00    +0.033 A 
ATOM     13  C   UNL     1       4.453  -8.296  -1.589  0.00  0.00    +0.126 A 
ATOM     14  C   UNL     1       4.259  -7.082  -2.221  0.00  0.00    +0.033 A 
ATOM     15  C   UNL     1       2.978  -6.650  -2.510  0.00  0.00    +0.008 A 
BRANCH  13  16
ATOM     16  N   UNL     1       5.825  -8.760  -1.282  0.00  0.00    +0.056 N 
ATOM     17  O   UNL     1       5.994  -9.822  -0.729  0.00  0.00    -0.126 OA
ATOM     18  O   UNL     1       6.776  -8.078  -1.585  0.00  0.00    -0.126 OA
ENDBRANCH  13  16
ENDBRANCH   2  10
BRANCH   1  20
ATOM     19  N   UNL     1       0.059  -4.170  -0.021  0.00  0.00    -0.284 N 
ATOM     20  C   UNL     1      -0.040  -4.839  -1.187  0.00  0.00    +0.233 C 
ATOM     21  O   UNL     1      -0.054  -4.230  -2.236  0.00  0.00    -0.274 OA
ATOM     22  H   UNL     1       0.135  -4.658   0.814  0.00  0.00    +0.155 HD
BRANCH  19  27
ATOM     23  C   UNL     1       0.025   1.503   0.005  0.00  0.00    +0.044 C 
ATOM     24  C   UNL     1       0.034  -0.004  -0.002  0.00  0.00    -0.050 A 
ATOM     25  C   UNL     1       0.632  -0.685  -1.046  0.00  0.00    +0.005 A 
ATOM     26  C   UNL     1       0.641  -2.066  -1.055  0.00  0.00    +0.024 A 
ATOM     27  C   UNL     1       0.051  -2.771  -0.014  0.00  0.00    +0.036 A 
ATOM     28  C   UNL     1      -0.548  -2.083   1.033  0.00  0.00    -0.029 A 
ATOM     29  C   UNL     1      -0.550  -0.702   1.039  0.00  0.00    +0.008 A 
ATOM     30  C   UNL     1      -1.190  -2.843   2.165  0.00  0.00    +0.045 C 
ENDBRANCH  19  27
ENDBRANCH   1  20
TORSDOF 4
