REMARK  Name = ZINC28680550
REMARK  6 active torsions:
REMARK  status: ('A' for Active; 'I' for Inactive)
REMARK    1  A    between atoms: C_1  and  C_2
REMARK    2  A    between atoms: C_7  and  S_15
REMARK    3  A    between atoms: C_12  and  C_14
REMARK    4  A    between atoms: S_15  and  N_18
REMARK    5  A    between atoms: N_18  and  C_19
REMARK    6  A    between atoms: C_22  and  N_26
REMARK                            x       y       z     vdW  Elec       q    Type
REMARK                         _______ _______ _______ _____ _____    ______ ____
ROOT
ATOM      1  S   UNL     1      -5.167   4.797   0.558  0.00  0.00    +0.072 S 
ATOM      2  O   UNL     1      -6.496   5.295   0.625  0.00  0.00    -0.150 OA
ATOM      3  O   UNL     1      -4.565   4.085   1.631  0.00  0.00    -0.150 OA
ENDROOT
BRANCH   1   9
ATOM      4  C   UNL     1       0.778   8.801  -1.244  0.00  0.00    +0.029 C 
ATOM      5  C   UNL     1      -0.194   8.815  -0.062  0.00  0.00    +0.083 C 
ATOM      6  C   UNL     1      -0.467   7.381   0.420  0.00  0.00    +0.059 C 
ATOM      7  C   UNL     1      -1.956   7.193   0.231  0.00  0.00    -0.022 A 
ATOM      8  C   UNL     1      -2.773   6.111   0.496  0.00  0.00    +0.034 A 
ATOM      9  C   UNL     1      -4.127   6.181   0.228  0.00  0.00    +0.109 A 
ATOM     10  C   UNL     1      -4.665   7.343  -0.296  0.00  0.00    +0.030 A 
ATOM     11  C   UNL     1      -3.855   8.427  -0.555  0.00  0.00    +0.026 A 
ATOM     12  C   UNL     1      -2.485   8.361  -0.293  0.00  0.00    +0.040 A 
ATOM     13  N   UNL     1      -1.499   9.335  -0.481  0.00  0.00    -0.268 N 
ATOM     14  C   UNL     1      -1.716  10.569  -0.976  0.00  0.00    +0.217 C 
ATOM     15  O   UNL     1      -2.845  10.927  -1.239  0.00  0.00    -0.276 OA
ATOM     16  C   UNL     1      -0.557  11.506  -1.200  0.00  0.00    +0.109 C 
ENDBRANCH   1   9
BRANCH   1  17
ATOM     17  N   UNL     1      -5.098   3.806  -0.766  0.00  0.00    -0.216 N 
ATOM     18  H   UNL     1      -6.007   3.607  -1.352  0.00  0.00    +0.174 HD
BRANCH  17  19
ATOM     19  C   UNL     1      -3.882   3.220  -1.140  0.00  0.00    +0.051 A 
ATOM     20  C   UNL     1      -3.368   2.159  -0.406  0.00  0.00    +0.046 A 
ATOM     21  C   UNL     1      -2.168   1.582  -0.774  0.00  0.00    +0.065 A 
ATOM     22  C   UNL     1      -1.476   2.062  -1.879  0.00  0.00    +0.062 A 
ATOM     23  C   UNL     1      -1.988   3.126  -2.610  0.00  0.00    +0.065 A 
ATOM     24  C   UNL     1      -3.191   3.700  -2.244  0.00  0.00    +0.046 A 
ATOM     25 CL   UNL     1      -1.121   3.731  -3.986  0.00  0.00    -0.082 Cl
ATOM     26 CL   UNL     1      -1.525   0.256   0.144  0.00  0.00    -0.082 Cl
BRANCH  22  27
ATOM     27  N   UNL     1      -0.259   1.476  -2.252  0.00  0.00    -0.356 N 
ATOM     28  H   UNL     1       0.289   1.857  -3.127  0.00  0.00    +0.142 HD
ATOM     29  H   UNL     1       0.149   0.637  -1.671  0.00  0.00    +0.142 HD
ENDBRANCH  22  27
ENDBRANCH  17  19
ENDBRANCH   1  17
TORSDOF 4
