REMARK  Name = ZINC39602444
REMARK  4 active torsions:
REMARK  status: ('A' for Active; 'I' for Inactive)
REMARK    1  A    between atoms: C_4  and  C_7
REMARK    2  A    between atoms: C_10  and  N_12
REMARK    3  A    between atoms: C_13  and  C_15
REMARK    4  A    between atoms: C_26  and  C_28
REMARK                            x       y       z     vdW  Elec       q    Type
REMARK                         _______ _______ _______ _____ _____    ______ ____
ROOT
ATOM      1  C   UNL     1       6.942  -2.104  -3.516  0.00  0.00    +0.100 C 
ATOM      2  C   UNL     1       7.651  -0.732  -3.547  0.00  0.00    +0.121 C 
ATOM      3  N   UNL     1       8.496  -0.775  -4.764  0.00  0.00    -0.297 N 
ATOM      4  C   UNL     1       7.659  -1.471  -5.770  0.00  0.00    +0.115 C 
ATOM      5  C   UNL     1       6.949  -2.586  -4.976  0.00  0.00    -0.004 C 
ATOM      6  C   UNL     1       7.723  -3.895  -5.097  0.00  0.00    -0.010 C 
ATOM      7  C   UNL     1       7.667  -4.383  -6.548  0.00  0.00    -0.082 C 
ATOM      8  N   UNL     1       6.268  -4.580  -6.946  0.00  0.00    +0.379 N 
ATOM      9  C   UNL     1       5.553  -3.298  -6.915  0.00  0.00    -0.082 C 
ATOM     10  C   UNL     1       5.520  -2.764  -5.481  0.00  0.00    -0.010 C 
ATOM     11  C   UNL     1       9.744  -0.290  -4.921  0.00  0.00    +0.260 C 
ATOM     12  O   UNL     1      10.337   0.177  -3.972  0.00  0.00    -0.271 OA
ATOM     13  H   UNL     1       6.235  -4.959  -7.880  0.00  0.00    -0.086 HD
ATOM     14  H   UNL     1       5.825  -5.225  -6.309  0.00  0.00    -0.086 HD
ENDROOT
BRANCH  11  15
ATOM     15  C   UNL     1      10.402  -0.329  -6.276  0.00  0.00    +0.296 C 
ATOM     16  C   UNL     1       9.677   0.629  -7.231  0.00  0.00    +0.283 C 
ATOM     17  O   UNL     1      10.335   0.579  -8.502  0.00  0.00    -0.484 OA
ATOM     18  C   UNL     1      11.694   0.647  -8.489  0.00  0.00    +0.162 A 
ATOM     19  C   UNL     1      12.371   0.966  -9.658  0.00  0.00    +0.049 A 
ATOM     20  C   UNL     1      13.751   1.036  -9.662  0.00  0.00    +0.004 A 
ATOM     21  C   UNL     1      14.461   0.789  -8.502  0.00  0.00    +0.004 A 
ATOM     22  C   UNL     1      13.794   0.472  -7.334  0.00  0.00    +0.049 A 
ATOM     23  C   UNL     1      12.409   0.401  -7.323  0.00  0.00    +0.163 A 
ATOM     24  O   UNL     1      11.765   0.096  -6.163  0.00  0.00    -0.473 OA
ENDBRANCH  11  15
BRANCH   1  26
ATOM     25  N   UNL     1       4.881  -3.011  -2.492  0.00  0.00    -0.312 N 
ATOM     26  C   UNL     1       5.527  -1.952  -3.019  0.00  0.00    +0.218 C 
ATOM     27  O   UNL     1       4.970  -0.878  -3.095  0.00  0.00    -0.275 OA
ATOM     28  H   UNL     1       5.327  -3.870  -2.431  0.00  0.00    +0.149 HD
BRANCH  25  31
ATOM     29  C   UNL     1       3.026  -3.841  -0.934  0.00  0.00    +0.041 C 
ATOM     30  C   UNL     1       2.509  -3.968  -2.369  0.00  0.00    +0.033 C 
ATOM     31  C   UNL     1       3.506  -2.864  -2.009  0.00  0.00    +0.081 C 
BRANCH  29  35
ATOM     32  C   UNL     1       0.317  -2.351   2.014  0.00  0.00    +0.000 A 
ATOM     33  C   UNL     1       1.541  -2.866   2.397  0.00  0.00    +0.000 A 
ATOM     34  C   UNL     1       2.417  -3.348   1.444  0.00  0.00    +0.004 A 
ATOM     35  C   UNL     1       2.070  -3.316   0.106  0.00  0.00    -0.042 A 
ATOM     36  C   UNL     1       0.845  -2.801  -0.277  0.00  0.00    +0.004 A 
ATOM     37  C   UNL     1      -0.031  -2.318   0.677  0.00  0.00    +0.000 A 
ENDBRANCH  29  35
ENDBRANCH  25  31
ENDBRANCH   1  26
TORSDOF 4
