REMARK  Name = ZINC33444520
REMARK  4 active torsions:
REMARK  status: ('A' for Active; 'I' for Inactive)
REMARK    1  A    between atoms: C_4  and  C_15
REMARK    2  A    between atoms: C_6  and  C_9
REMARK    3  A    between atoms: N_11  and  C_12
REMARK    4  A    between atoms: C_20  and  N_23
REMARK                            x       y       z     vdW  Elec       q    Type
REMARK                         _______ _______ _______ _____ _____    ______ ____
ROOT
ATOM      1  C   UNL     1      -2.500   1.105  -1.018  0.00  0.00    +0.001 C 
ATOM      2  C   UNL     1      -0.995   1.308  -1.203  0.00  0.00    +0.001 C 
ATOM      3  C   UNL     1      -0.256   0.801   0.037  0.00  0.00    +0.013 C 
ATOM      4  C   UNL     1      -0.728   1.580   1.266  0.00  0.00    +0.087 C 
ATOM      5  C   UNL     1      -2.233   1.376   1.451  0.00  0.00    +0.087 C 
ATOM      6  C   UNL     1      -2.972   1.883   0.211  0.00  0.00    +0.013 C 
ENDROOT
BRANCH   4   7
ATOM      7  C   UNL     1       0.000   1.080   2.488  0.00  0.00    +0.219 C 
ATOM      8  O   UNL     1       0.526  -0.013   2.475  0.00  0.00    -0.275 OA
ATOM      9  N   UNL     1       0.067   1.848   3.594  0.00  0.00    -0.301 N 
ATOM     10  C   UNL     1      -0.652   3.127   3.661  0.00  0.00    +0.106 C 
ATOM     11  C   UNL     1       0.333   4.231   4.043  0.00  0.00    +0.003 C 
ATOM     12  C   UNL     1       1.051   3.845   5.338  0.00  0.00    -0.072 C 
ATOM     13  C   UNL     1       1.836   2.549   5.120  0.00  0.00    +0.003 C 
ATOM     14  C   UNL     1       0.865   1.423   4.752  0.00  0.00    +0.106 C 
BRANCH  12  15
ATOM     15  N   UNL     1       1.977   4.918   5.724  0.00  0.00    +0.380 N 
ATOM     16  H   UNL     1       2.493   4.641   6.654  0.00  0.00    -0.090 HD
ATOM     17  H   UNL     1       1.412   5.849   5.881  0.00  0.00    -0.090 HD
ATOM     18  H   UNL     1       2.717   5.069   4.924  0.00  0.00    -0.090 HD
ENDBRANCH  12  15
ENDBRANCH   4   7
BRANCH   5  19
ATOM     19  C   UNL     1      -2.522  -0.090   1.644  0.00  0.00    +0.217 C 
ATOM     20  O   UNL     1      -1.614  -0.894   1.634  0.00  0.00    -0.275 OA
ATOM     21  N   UNL     1      -3.790  -0.509   1.827  0.00  0.00    -0.312 N 
ATOM     22  H   UNL     1      -4.614   0.220   1.835  0.00  0.00    +0.149 HD
BRANCH  21  23
ATOM     23  C   UNL     1      -4.071  -1.935   2.013  0.00  0.00    +0.073 C 
ATOM     24  C   UNL     1      -5.263  -2.525   1.257  0.00  0.00    +0.024 C 
ATOM     25  C   UNL     1      -5.346  -2.310   2.771  0.00  0.00    +0.024 C 
ENDBRANCH  21  23
ENDBRANCH   5  19
TORSDOF 4
