REMARK  Name = ZINC08448675
REMARK  8 active torsions:
REMARK  status: ('A' for Active; 'I' for Inactive)
REMARK    1  A    between atoms: C_1  and  C_2
REMARK    2  A    between atoms: C_2  and  O_3
REMARK    3  A    between atoms: O_3  and  C_4
REMARK    4  A    between atoms: C_4  and  C_6
REMARK    5  A    between atoms: C_12  and  C_13
REMARK    6  A    between atoms: C_19  and  N_30
REMARK    7  A    between atoms: C_20  and  C_28
REMARK    8  A    between atoms: C_21  and  C_23
REMARK                            x       y       z     vdW  Elec       q    Type
REMARK                         _______ _______ _______ _____ _____    ______ ____
ROOT
ATOM      1  C   UNL     1       1.552   1.293  -0.283  0.00  0.00    +0.080 C 
ATOM      2  C   UNL     1       2.779   0.685  -0.228  0.00  0.00    +0.100 A 
ATOM      3  N   UNL     1       3.982   1.358  -0.288  0.00  0.00    -0.257 N 
ATOM      4  C   UNL     1       5.112   0.626  -0.222  0.00  0.00    +0.271 A 
ATOM      5  O   UNL     1       6.204   1.162  -0.270  0.00  0.00    -0.266 OA
ATOM      6  C   UNL     1       4.997  -0.827  -0.092  0.00  0.00    +0.080 A 
ATOM      7  C   UNL     1       5.977  -1.766  -0.007  0.00  0.00    +0.029 C 
ATOM      8  S   UNL     1       3.224  -1.033  -0.074  0.00  0.00    -0.065 S 
ATOM      9  C   UNL     1       3.976   2.752  -0.412  0.00  0.00    +0.118 C 
ATOM     10  C   UNL     1       2.852   3.498  -0.478  0.00  0.00    +0.079 C 
ATOM     11  C   UNL     1       1.507   2.802  -0.424  0.00  0.00    +0.103 C 
ENDROOT
BRANCH   7  12
ATOM     12  C   UNL     1       7.377  -1.354   0.133  0.00  0.00    -0.017 A 
ATOM     13  C   UNL     1       8.442  -2.064  -0.531  0.00  0.00    +0.015 A 
ATOM     14  C   UNL     1       9.695  -1.606  -0.344  0.00  0.00    +0.046 A 
ATOM     15  S   UNL     1       9.460  -0.215   0.744  0.00  0.00    -0.104 S 
ATOM     16  C   UNL     1       7.737  -0.271   0.913  0.00  0.00    +0.053 A 
ENDBRANCH   7  12
BRANCH  11  17
ATOM     17  C   UNL     1       0.739   3.362   0.746  0.00  0.00    -0.028 A 
ATOM     18  C   UNL     1      -0.411   4.102   0.540  0.00  0.00    +0.012 A 
ATOM     19  C   UNL     1      -1.081   4.587   1.615  0.00  0.00    +0.045 A 
ATOM     20  S   UNL     1      -0.073   4.008   2.970  0.00  0.00    -0.105 S 
ATOM     21  C   UNL     1       1.169   3.153   2.014  0.00  0.00    +0.049 A 
ENDBRANCH  11  17
BRANCH   9  22
ATOM     22  N   UNL     1       5.186   3.401  -0.469  0.00  0.00    -0.343 N 
ATOM     23  H   UNL     1       5.970   2.936  -0.799  0.00  0.00    +0.144 HD
ATOM     24  H   UNL     1       5.255   4.324  -0.180  0.00  0.00    +0.144 HD
ENDBRANCH   9  22
BRANCH   1  25
ATOM     25  C   UNL     1       0.373   0.541  -0.216  0.00  0.00    +0.339 C 
ATOM     26  O   UNL     1       0.429  -0.672  -0.107  0.00  0.00    -0.245 OA
BRANCH  25  27
ATOM     27  O   UNL     1      -0.827   1.159  -0.277  0.00  0.00    -0.462 OA
BRANCH  27  29
ATOM     28  C   UNL     1      -3.244   1.201  -0.293  0.00  0.00    +0.048 C 
ATOM     29  C   UNL     1      -1.989   0.329  -0.209  0.00  0.00    +0.229 C 
ENDBRANCH  27  29
ENDBRANCH  25  27
ENDBRANCH   1  25
BRANCH  10  30
ATOM     30  C   UNL     1       2.929   4.922  -0.605  0.00  0.00    +0.099 C 
ATOM     31  N   UNL     1       2.991   6.052  -0.705  0.00  0.00    -0.191 NA
ENDBRANCH  10  30
TORSDOF 7
