REMARK  Name = ZINC20260277
REMARK  3 active torsions:
REMARK  status: ('A' for Active; 'I' for Inactive)
REMARK    1  A    between atoms: C_9  and  C_12
REMARK    2  A    between atoms: C_10  and  O_11
REMARK    3  A    between atoms: C_18  and  C_21
REMARK                            x       y       z     vdW  Elec       q    Type
REMARK                         _______ _______ _______ _____ _____    ______ ____
ROOT
ATOM      1  C   UNL     1       0.453   5.897   1.458  0.00  0.00    +0.250 C 
ATOM      2  O   UNL     1       1.559   5.394   1.404  0.00  0.00    -0.270 OA
ATOM      3  N   UNL     1      -0.639   5.114   1.565  0.00  0.00    -0.297 N 
ATOM      4  C   UNL     1      -1.974   5.707   1.715  0.00  0.00    +0.108 C 
ATOM      5  C   UNL     1      -2.894   5.134   0.632  0.00  0.00    +0.020 C 
ATOM      6  C   UNL     1      -2.873   3.606   0.708  0.00  0.00    +0.016 C 
ATOM      7  C   UNL     1      -1.452   3.100   0.452  0.00  0.00    +0.092 C 
ATOM      8  C   UNL     1      -0.516   3.650   1.533  0.00  0.00    +0.120 C 
ENDROOT
BRANCH   1  17
ATOM      9  C   UNL     1       0.424  12.235   0.282  0.00  0.00    +0.001 A 
ATOM     10  C   UNL     1       1.140  11.593  -0.725  0.00  0.00    +0.001 A 
ATOM     11  C   UNL     1       1.299  10.240  -0.717  0.00  0.00    +0.012 A 
ATOM     12  C   UNL     1       0.734   9.480   0.320  0.00  0.00    +0.024 A 
ATOM     13  C   UNL     1       0.006  10.133   1.345  0.00  0.00    -0.014 A 
ATOM     14  C   UNL     1      -0.136  11.530   1.303  0.00  0.00    +0.008 A 
ATOM     15  C   UNL     1      -0.562   9.377   2.389  0.00  0.00    +0.009 A 
ATOM     16  C   UNL     1      -0.414   8.029   2.414  0.00  0.00    +0.017 A 
ATOM     17  C   UNL     1       0.306   7.362   1.405  0.00  0.00    +0.079 A 
ATOM     18  C   UNL     1       0.885   8.079   0.361  0.00  0.00    +0.137 A 
BRANCH  18  19
ATOM     19  O   UNL     1       1.583   7.437  -0.606  0.00  0.00    -0.505 OA
ATOM     20  H   UNL     1       1.697   6.343  -0.568  0.00  0.00    +0.292 HD
ENDBRANCH  18  19
ENDBRANCH   1  17
BRANCH   7  21
ATOM     21  C   UNL     1      -1.439   1.593   0.495  0.00  0.00    +0.215 C 
ATOM     22  O   UNL     1      -2.465   0.984   0.708  0.00  0.00    -0.276 OA
ATOM     23  N   UNL     1      -0.286   0.923   0.295  0.00  0.00    -0.329 N 
ATOM     24  H   UNL     1      -0.277  -0.176   0.326  0.00  0.00    +0.145 HD
ATOM     25  H   UNL     1       0.645   1.476   0.101  0.00  0.00    +0.145 HD
ENDBRANCH   7  21
TORSDOF 3
