REMARK  Name = ZINC32759560
REMARK  7 active torsions:
REMARK  status: ('A' for Active; 'I' for Inactive)
REMARK    1  A    between atoms: C_1  and  C_2
REMARK    2  A    between atoms: C_7  and  N_8
REMARK    3  A    between atoms: C_11  and  C_16
REMARK    4  A    between atoms: C_16  and  N_17
REMARK    5  A    between atoms: N_20  and  C_23
REMARK    6  A    between atoms: C_23  and  C_25
REMARK    7  A    between atoms: C_23  and  C_26
REMARK                            x       y       z     vdW  Elec       q    Type
REMARK                         _______ _______ _______ _____ _____    ______ ____
ROOT
ATOM      1  C   UNL     1      -1.294  -0.773   0.054  0.00  0.00    -0.001 C 
ENDROOT
BRANCH   1   5
ATOM      2  N   UNL     1       1.107   3.381   0.009  0.00  0.00    -0.283 N 
ATOM      3  C   UNL     1       1.127   2.000   0.005  0.00  0.00    +0.224 A 
ATOM      4  N   UNL     1      -0.016   1.317   0.030  0.00  0.00    -0.201 NA
ATOM      5  C   UNL     1       0.002  -0.004   0.026  0.00  0.00    +0.120 A 
ATOM      6  N   UNL     1       1.153  -0.653  -0.003  0.00  0.00    -0.202 NA
ATOM      7  C   UNL     1       2.299   0.023  -0.028  0.00  0.00    +0.217 A 
ATOM      8  N   UNL     1       2.285   1.351  -0.024  0.00  0.00    -0.181 NA
ATOM      9  N   UNL     1       3.501  -0.656  -0.057  0.00  0.00    -0.327 N 
ATOM     10  H   UNL     1       0.150   3.918  -0.065  0.00  0.00    +0.155 HD
ATOM     11  H   UNL     1       4.448  -0.096  -0.077  0.00  0.00    +0.145 HD
ATOM     12  H   UNL     1       3.511  -1.756  -0.059  0.00  0.00    +0.145 HD
BRANCH   2  19
ATOM     13  C   UNL     1       1.175   6.033  -1.021  0.00  0.00    +0.045 C 
ATOM     14  C   UNL     1       2.381   5.394  -0.383  0.00  0.00    -0.029 A 
ATOM     15  C   UNL     1       3.565   6.099  -0.284  0.00  0.00    +0.005 A 
ATOM     16  C   UNL     1       4.673   5.514   0.302  0.00  0.00    +0.000 A 
ATOM     17  C   UNL     1       4.599   4.223   0.791  0.00  0.00    +0.002 A 
ATOM     18  C   UNL     1       3.417   3.514   0.700  0.00  0.00    +0.023 A 
ATOM     19  C   UNL     1       2.304   4.097   0.107  0.00  0.00    +0.036 A 
ENDBRANCH   2  19
ENDBRANCH   1   5
BRANCH   1  20
ATOM     20  N   UNL     1      -1.748  -1.019  -1.321  0.00  0.00    +0.386 N 
ATOM     21  C   UNL     1      -2.106   0.239  -1.991  0.00  0.00    -0.063 C 
ATOM     22  C   UNL     1      -2.496  -0.051  -3.442  0.00  0.00    +0.066 C 
ATOM     23  N   UNL     1      -3.622  -0.995  -3.464  0.00  0.00    -0.297 NA
ATOM     24  C   UNL     1      -3.263  -2.253  -2.795  0.00  0.00    +0.066 C 
ATOM     25  C   UNL     1      -2.873  -1.963  -1.344  0.00  0.00    -0.063 C 
ATOM     26  H   UNL     1      -0.912  -1.472  -1.875  0.00  0.00    -0.081 HD
BRANCH  23  27
ATOM     27  C   UNL     1      -4.075  -1.241  -4.840  0.00  0.00    +0.109 C 
ATOM     28  C   UNL     1      -2.916  -1.802  -5.666  0.00  0.00    +0.031 C 
BRANCH  27  29
ATOM     29  C   UNL     1      -4.549   0.052  -5.451  0.00  0.00    +0.096 A 
ATOM     30  N   UNL     1      -3.981   1.225  -5.404  0.00  0.00    -0.242 NA
ATOM     31  C   UNL     1      -4.511   2.311  -6.003  0.00  0.00    +0.079 A 
ATOM     32  C   UNL     1      -4.018   3.634  -6.045  0.00  0.00    +0.029 A 
ATOM     33  C   UNL     1      -4.702   4.610  -6.701  0.00  0.00    +0.002 A 
ATOM     34  C   UNL     1      -5.901   4.348  -7.350  0.00  0.00    +0.001 A 
ATOM     35  C   UNL     1      -6.417   3.066  -7.332  0.00  0.00    +0.017 A 
ATOM     36  C   UNL     1      -5.733   2.074  -6.672  0.00  0.00    +0.039 A 
ATOM     37  S   UNL     1      -5.986   0.341  -6.382  0.00  0.00    -0.071 S 
ENDBRANCH  27  29
ENDBRANCH  23  27
ENDBRANCH   1  20
TORSDOF 5
