REMARK  Name = ZINC13126070
REMARK  4 active torsions:
REMARK  status: ('A' for Active; 'I' for Inactive)
REMARK    1  A    between atoms: C_7  and  N_12
REMARK    2  A    between atoms: C_8  and  O_11
REMARK    3  A    between atoms: N_13  and  C_14
REMARK    4  A    between atoms: C_14  and  N_16
REMARK                            x       y       z     vdW  Elec       q    Type
REMARK                         _______ _______ _______ _____ _____    ______ ____
ROOT
ATOM      1  C   UNL     1      -0.017   1.387   0.010  0.00  0.00    +0.027 A 
ATOM      2  C   UNL     1       1.173   2.087   0.002  0.00  0.00    +0.020 A 
ATOM      3  C   UNL     1       2.382   1.409  -0.014  0.00  0.00    +0.032 A 
ATOM      4  C   UNL     1       2.413   0.029  -0.021  0.00  0.00    +0.043 A 
ATOM      5  C   UNL     1       1.224  -0.693  -0.013  0.00  0.00    +0.066 A 
ATOM      6  C   UNL     1       0.002  -0.004   0.002  0.00  0.00    +0.033 A 
ATOM      7  C   UNL     1      -1.052  -1.039   0.006  0.00  0.00    +0.150 A 
ATOM      8  C   UNL     1      -0.389  -2.267  -0.007  0.00  0.00    +0.219 A 
ATOM      9  N   UNL     1       0.950  -2.051  -0.018  0.00  0.00    -0.323 N 
ATOM     10  H   UNL     1       1.622  -2.750  -0.029  0.00  0.00    +0.169 HD
ATOM     11 BR   UNL     1       4.071  -0.880  -0.043  0.00  0.00    -0.048 Br
ATOM     12 BR   UNL     1       1.153   3.978   0.012  0.00  0.00    -0.050 Br
ENDROOT
BRANCH   7  13
ATOM     13  N   UNL     1      -2.375  -0.839   0.020  0.00  0.00    -0.175 NA
ATOM     14  N   UNL     1      -3.180  -1.847   0.021  0.00  0.00    -0.218 N 
ATOM     15  H   UNL     1      -2.826  -2.750   0.013  0.00  0.00    +0.176 HD
BRANCH  14  16
ATOM     16  C   UNL     1      -4.512  -1.646   0.035  0.00  0.00    +0.147 C 
ATOM     17  S   UNL     1      -5.580  -2.985   0.037  0.00  0.00    -0.017 S 
BRANCH  16  18
ATOM     18  N   UNL     1      -5.005  -0.392   0.047  0.00  0.00    -0.339 N 
ATOM     19  H   UNL     1      -4.399   0.367   0.045  0.00  0.00    +0.144 HD
ATOM     20  H   UNL     1      -5.963  -0.247   0.057  0.00  0.00    +0.144 HD
ENDBRANCH  16  18
ENDBRANCH  14  16
ENDBRANCH   7  13
BRANCH   8  21
ATOM     21  O   UNL     1      -0.985  -3.478  -0.008  0.00  0.00    -0.492 OA
ATOM     22  H   UNL     1      -1.167  -3.826  -0.892  0.00  0.00    +0.294 HD
ENDBRANCH   8  21
TORSDOF 4
