REMARK  Name = ZINC27617738
REMARK  10 active torsions:
REMARK  status: ('A' for Active; 'I' for Inactive)
REMARK    1  A    between atoms: C_1  and  C_2
REMARK    2  A    between atoms: C_6  and  C_27
REMARK    3  A    between atoms: C_7  and  C_12
REMARK    4  A    between atoms: C_8  and  C_11
REMARK    5  A    between atoms: C_12  and  C_13
REMARK    6  A    between atoms: C_13  and  C_14
REMARK    7  A    between atoms: N_16  and  N_17
REMARK    8  A    between atoms: C_18  and  C_20
REMARK    9  A    between atoms: C_22  and  C_26
REMARK   10  A    between atoms: C_24  and  C_25
REMARK                            x       y       z     vdW  Elec       q    Type
REMARK                         _______ _______ _______ _____ _____    ______ ____
ROOT
ATOM      1  C   UNL     1       2.369   1.025  -0.015  0.00  0.00    +0.229 C 
ATOM      2  O   UNL     1       2.385  -0.188  -0.022  0.00  0.00    -0.274 OA
ATOM      3  N   UNL     1       1.193   1.683  -0.000  0.00  0.00    -0.234 N 
ATOM      4  H   UNL     1       1.178   2.783   0.006  0.00  0.00    +0.173 HD
ENDROOT
BRANCH   3   5
ATOM      5  N   UNL     1      -0.011   0.966   0.007  0.00  0.00    -0.230 N 
ATOM      6  C   UNL     1      -1.187   1.624   0.017  0.00  0.00    +0.263 C 
ATOM      7  O   UNL     1      -1.204   2.840   0.023  0.00  0.00    -0.269 OA
ATOM      8  H   UNL     1       0.004  -0.134   0.006  0.00  0.00    +0.173 HD
BRANCH   6   9
ATOM      9  C   UNL     1      -2.454   0.870   0.018  0.00  0.00    +0.079 A 
ATOM     10  C   UNL     1      -2.618  -0.591   0.005  0.00  0.00    +0.057 A 
ATOM     11  C   UNL     1      -3.941  -0.814   0.016  0.00  0.00    +0.103 A 
ATOM     12  O   UNL     1      -4.585   0.364   0.026  0.00  0.00    -0.464 OA
ATOM     13  C   UNL     1      -3.718   1.381   0.027  0.00  0.00    +0.114 A 
ATOM     14  C   UNL     1      -4.077   2.845   0.038  0.00  0.00    +0.087 C 
ATOM     15  C   UNL     1      -4.599  -2.169   0.012  0.00  0.00    +0.086 C 
ENDBRANCH   6   9
ENDBRANCH   3   5
BRANCH   1  16
ATOM     16  C   UNL     1       3.663   1.796  -0.023  0.00  0.00    +0.102 C 
BRANCH  16  17
ATOM     17  C   UNL     1       4.840   0.818  -0.040  0.00  0.00    +0.048 C 
BRANCH  17  24
ATOM     18  C   UNL     1      10.896   4.401   2.268  0.00  0.00    +0.067 C 
ATOM     19  C   UNL     1       9.764   3.733   1.530  0.00  0.00    +0.062 A 
ATOM     20  C   UNL     1       9.629   3.667   0.152  0.00  0.00    +0.073 A 
ATOM     21  C   UNL     1       8.459   2.973  -0.123  0.00  0.00    +0.156 A 
ATOM     22  N   UNL     1       7.858   2.628  -1.270  0.00  0.00    -0.233 NA
ATOM     23  C   UNL     1       6.733   1.952  -1.263  0.00  0.00    +0.045 A 
ATOM     24  C   UNL     1       6.134   1.589  -0.048  0.00  0.00    -0.005 A 
ATOM     25  C   UNL     1       6.732   1.932   1.119  0.00  0.00    +0.047 A 
ATOM     26  N   UNL     1       7.905   2.631   1.084  0.00  0.00    -0.218 N 
ATOM     27  N   UNL     1       8.745   3.120   2.090  0.00  0.00    -0.170 NA
ATOM     28  C   UNL     1       6.111   1.549   2.437  0.00  0.00    +0.066 C 
ATOM     29  C   UNL     1       6.079   1.570  -2.566  0.00  0.00    +0.066 C 
ENDBRANCH  17  24
ENDBRANCH  16  17
ENDBRANCH   1  16
TORSDOF 5
