REMARK  Name = ZINC04530810
REMARK  5 active torsions:
REMARK  status: ('A' for Active; 'I' for Inactive)
REMARK    1  A    between atoms: C_1  and  C_2
REMARK    2  A    between atoms: N_4  and  C_5
REMARK    3  A    between atoms: C_7  and  O_28
REMARK    4  A    between atoms: C_15  and  C_18
REMARK    5  A    between atoms: C_25  and  O_27
REMARK                            x       y       z     vdW  Elec       q    Type
REMARK                         _______ _______ _______ _____ _____    ______ ____
ROOT
ATOM      1  C   UNL     1      -1.543   3.366   2.675  0.00  0.00    +0.160 C 
ATOM      2  C   UNL     1      -0.974   4.727   3.088  0.00  0.00    +0.171 C 
ATOM      3  C   UNL     1      -1.251   5.747   1.983  0.00  0.00    +0.183 C 
ATOM      4  C   UNL     1      -2.756   5.801   1.698  0.00  0.00    +0.178 C 
ATOM      5  C   UNL     1      -2.994   6.739   0.508  0.00  0.00    +0.197 C 
ATOM      6  O   UNL     1      -2.199   6.294  -0.596  0.00  0.00    -0.345 OA
ATOM      7  C   UNL     1      -0.798   6.242  -0.316  0.00  0.00    +0.282 C 
ATOM      8  O   UNL     1      -0.564   5.364   0.789  0.00  0.00    -0.339 OA
ATOM      9  O   UNL     1      -3.225   4.495   1.361  0.00  0.00    -0.341 OA
ATOM     10  C   UNL     1      -3.039   3.518   2.387  0.00  0.00    +0.270 C 
ENDROOT
BRANCH   7  11
ATOM     11  C   UNL     1      -0.063   5.731  -1.527  0.00  0.00    +0.008 A 
ATOM     12  C   UNL     1       0.693   4.576  -1.441  0.00  0.00    +0.008 A 
ATOM     13  C   UNL     1       1.365   4.105  -2.554  0.00  0.00    +0.000 A 
ATOM     14  C   UNL     1       1.288   4.793  -3.750  0.00  0.00    +0.000 A 
ATOM     15  C   UNL     1       0.536   5.950  -3.835  0.00  0.00    +0.000 A 
ATOM     16  C   UNL     1      -0.139   6.419  -2.724  0.00  0.00    +0.008 A 
ENDBRANCH   7  11
BRANCH   1  20
ATOM     17  C   UNL     1       0.793   1.451   0.323  0.00  0.00    +0.109 C 
ATOM     18  C   UNL     1       0.087   1.937   1.563  0.00  0.00    +0.210 C 
ATOM     19  O   UNL     1       0.370   1.467   2.645  0.00  0.00    -0.276 OA
ATOM     20  N   UNL     1      -0.857   2.894   1.470  0.00  0.00    -0.305 N 
ATOM     21  H   UNL     1      -1.083   3.270   0.604  0.00  0.00    +0.149 HD
ENDBRANCH   1  20
BRANCH  10  22
ATOM     22  O   UNL     1      -3.713   3.940   3.574  0.00  0.00    -0.365 OA
ATOM     23  H   UNL     1      -4.667   4.057   3.465  0.00  0.00    +0.213 HD
ENDBRANCH  10  22
BRANCH   2  24
ATOM     24  O   UNL     1       0.436   4.613   3.290  0.00  0.00    -0.387 OA
ATOM     25  H   UNL     1       0.685   3.980   3.976  0.00  0.00    +0.210 HD
ENDBRANCH   2  24
TORSDOF 4
