REMARK  Name = ZINC61847327
REMARK  2 active torsions:
REMARK  status: ('A' for Active; 'I' for Inactive)
REMARK    1  A    between atoms: C_3  and  C_14
REMARK    2  A    between atoms: C_6  and  N_7
REMARK                            x       y       z     vdW  Elec       q    Type
REMARK                         _______ _______ _______ _____ _____    ______ ____
ROOT
ATOM      1  C   UNL     1      -0.017   1.387   0.010  0.00  0.00    +0.028 A 
ATOM      2  C   UNL     1       1.165   2.094   0.002  0.00  0.00    +0.016 A 
ATOM      3  C   UNL     1       2.385   1.413  -0.013  0.00  0.00    +0.055 A 
ATOM      4  C   UNL     1       2.401   0.014  -0.021  0.00  0.00    +0.055 A 
ATOM      5  C   UNL     1       1.213  -0.686  -0.013  0.00  0.00    +0.048 A 
ATOM      6  C   UNL     1       0.002  -0.004   0.002  0.00  0.00    +0.067 A 
ATOM      7 CL   UNL     1       3.913  -0.838  -0.040  0.00  0.00    -0.083 Cl
ENDROOT
BRANCH   6   8
ATOM      8  N   UNL     1      -1.200  -0.718   0.010  0.00  0.00    -0.239 N 
ATOM      9  C   UNL     1      -1.329  -2.071   0.009  0.00  0.00    +0.129 A 
ATOM     10  C   UNL     1      -2.651  -2.357   0.018  0.00  0.00    +0.056 A 
ATOM     11  C   UNL     1      -3.354  -1.146   0.024  0.00  0.00    +0.150 A 
ATOM     12  N   UNL     1      -2.488  -0.166   0.025  0.00  0.00    -0.174 NA
ATOM     13 BR   UNL     1      -3.415  -4.086   0.021  0.00  0.00    -0.047 Br
ENDBRANCH   6   8
BRANCH   3  14
ATOM     14  C   UNL     1       3.653   2.167  -0.022  0.00  0.00    +0.243 C 
ATOM     15  O   UNL     1       4.714   1.573  -0.035  0.00  0.00    -0.270 OA
ATOM     16  N   UNL     1       3.636   3.515  -0.015  0.00  0.00    -0.325 N 
ATOM     17  H   UNL     1       2.790   3.989  -0.004  0.00  0.00    +0.145 HD
ATOM     18  H   UNL     1       4.470   4.011  -0.020  0.00  0.00    +0.145 HD
ENDBRANCH   3  14
TORSDOF 2
