REMARK  Name = ZINC07286307
REMARK  7 active torsions:
REMARK  status: ('A' for Active; 'I' for Inactive)
REMARK    1  A    between atoms: C_1  and  C_2
REMARK    2  A    between atoms: C_2  and  C_3
REMARK    3  A    between atoms: C_3  and  N_4
REMARK    4  A    between atoms: C_5  and  S_7
REMARK    5  A    between atoms: S_7  and  C_8
REMARK    6  A    between atoms: C_8  and  C_9
REMARK    7  A    between atoms: C_21  and  C_24
REMARK                            x       y       z     vdW  Elec       q    Type
REMARK                         _______ _______ _______ _____ _____    ______ ____
ROOT
ATOM      1  C   UNL     1       2.362  -6.322   3.822  0.00  0.00    +0.121 A 
ATOM      2  N   UNL     1       2.996  -6.870   4.891  0.00  0.00    -0.310 N 
ATOM      3  H   UNL     1       3.380  -6.289   5.565  0.00  0.00    +0.170 HD
ATOM      4  C   UNL     1       3.102  -8.205   5.033  0.00  0.00    +0.260 A 
ATOM      5  O   UNL     1       3.673  -8.681   5.999  0.00  0.00    -0.267 OA
ATOM      6  C   UNL     1       2.531  -9.056   4.030  0.00  0.00    +0.075 A 
ATOM      7  C   UNL     1       2.525 -10.517   3.975  0.00  0.00    -0.023 A 
ATOM      8  C   UNL     1       1.915 -11.087   2.914  0.00  0.00    -0.004 A 
ATOM      9  S   UNL     1       1.322  -9.729   1.942  0.00  0.00    -0.073 S 
ATOM     10  C   UNL     1       1.897  -8.398   2.965  0.00  0.00    +0.116 A 
ATOM     11  N   UNL     1       1.828  -7.071   2.895  0.00  0.00    -0.226 NA
ATOM     12  C   UNL     1       1.775 -12.550   2.627  0.00  0.00    +0.046 C 
ATOM     13  C   UNL     1       2.753 -13.317   3.529  0.00  0.00    -0.009 C 
ATOM     14  C   UNL     1       2.611 -12.796   4.962  0.00  0.00    +0.008 C 
ATOM     15  C   UNL     1       3.173 -11.377   5.057  0.00  0.00    +0.037 C 
ATOM     16  C   UNL     1       2.422 -14.811   3.491  0.00  0.00    +0.008 C 
ENDROOT
BRANCH   1  17
ATOM     17  C   UNL     1       2.269  -4.822   3.707  0.00  0.00    +0.151 C 
BRANCH  17  18
ATOM     18  S   UNL     1       1.369  -4.387   2.193  0.00  0.00    -0.085 S 
BRANCH  18  20
ATOM     19  N   UNL     1       0.762  -1.976   1.234  0.00  0.00    -0.368 N 
ATOM     20  C   UNL     1       1.345  -2.625   2.203  0.00  0.00    +0.126 C 
ATOM     21  N   UNL     1       1.941  -1.935   3.232  0.00  0.00    -0.339 N 
ATOM     22  H   UNL     1       1.928  -0.965   3.238  0.00  0.00    +0.144 HD
ATOM     23  H   UNL     1       2.374  -2.418   3.953  0.00  0.00    +0.144 HD
ATOM     24  H   UNL     1       0.342  -2.462   0.507  0.00  0.00    +0.161 HD
BRANCH  19  25
ATOM     25  C   UNL     1       0.742  -0.511   1.242  0.00  0.00    +0.114 C 
BRANCH  25  27
ATOM     26  C   UNL     1      -0.019   1.526   0.010  0.00  0.00    +0.005 C 
ATOM     27  C   UNL     1       0.002  -0.004   0.002  0.00  0.00    +0.018 C 
ENDBRANCH  25  27
ENDBRANCH  19  25
ENDBRANCH  18  20
ENDBRANCH  17  18
ENDBRANCH   1  17
TORSDOF 5
