REMARK  Name = ZINC08845400
REMARK  11 active torsions:
REMARK  status: ('A' for Active; 'I' for Inactive)
REMARK    1  A    between atoms: C_1  and  C_2
REMARK    2  A    between atoms: C_4  and  O_33
REMARK    3  A    between atoms: C_5  and  C_9
REMARK    4  A    between atoms: N_17  and  C_29
REMARK    5  A    between atoms: C_18  and  C_20
REMARK    6  A    between atoms: C_23  and  O_28
REMARK    7  A    between atoms: C_24  and  O_26
REMARK    8  A    between atoms: O_26  and  C_27
REMARK    9  A    between atoms: C_29  and  C_30
REMARK   10  A    between atoms: C_30  and  O_31
REMARK   11  A    between atoms: O_31  and  C_32
REMARK                            x       y       z     vdW  Elec       q    Type
REMARK                         _______ _______ _______ _____ _____    ______ ____
ROOT
ATOM      1  C   UNL     1      -0.349  -5.134  -0.205  0.00  0.00    +0.075 A 
ATOM      2  C   UNL     1       0.909  -5.618  -0.370  0.00  0.00    +0.035 A 
ATOM      3  C   UNL     1       0.773  -7.018  -0.501  0.00  0.00    +0.153 A 
ATOM      4  N   UNL     1      -0.513  -7.289  -0.411  0.00  0.00    -0.168 NA
ATOM      5  N   UNL     1      -1.189  -6.211  -0.232  0.00  0.00    -0.276 N 
ATOM      6  H   UNL     1      -2.153  -6.167  -0.134  0.00  0.00    +0.189 HD
ATOM      7  C   UNL     1       2.120  -7.588  -0.683  0.00  0.00    +0.268 C 
ATOM      8  O   UNL     1       2.359  -8.772  -0.827  0.00  0.00    -0.268 OA
ATOM      9  N   UNL     1       3.048  -6.616  -0.668  0.00  0.00    -0.283 N 
ATOM     10  C   UNL     1       2.381  -5.323  -0.475  0.00  0.00    +0.141 C 
ENDROOT
BRANCH   1  15
ATOM     11  C   UNL     1      -1.853   0.381   0.502  0.00  0.00    +0.045 C 
ATOM     12  C   UNL     1      -1.458  -1.062   0.315  0.00  0.00    -0.029 A 
ATOM     13  C   UNL     1      -0.971  -1.489  -0.907  0.00  0.00    +0.050 A 
ATOM     14  C   UNL     1      -0.608  -2.813  -1.085  0.00  0.00    +0.126 A 
ATOM     15  C   UNL     1      -0.735  -3.717  -0.024  0.00  0.00    +0.043 A 
ATOM     16  C   UNL     1      -1.226  -3.276   1.204  0.00  0.00    +0.034 A 
ATOM     17  C   UNL     1      -1.580  -1.951   1.368  0.00  0.00    +0.045 A 
ATOM     18 CL   UNL     1      -2.186  -1.401   2.900  0.00  0.00    -0.083 Cl
BRANCH  14  19
ATOM     19  O   UNL     1      -0.130  -3.234  -2.285  0.00  0.00    -0.506 OA
ATOM     20  H   UNL     1       0.820  -3.098  -2.400  0.00  0.00    +0.292 HD
ENDBRANCH  14  19
ENDBRANCH   1  15
BRANCH  10  21
ATOM     21  C   UNL     1       2.645  -4.422  -1.654  0.00  0.00    -0.019 A 
ATOM     22  C   UNL     1       2.979  -3.097  -1.447  0.00  0.00    +0.009 A 
ATOM     23  C   UNL     1       3.223  -2.266  -2.525  0.00  0.00    +0.049 A 
ATOM     24  C   UNL     1       3.132  -2.762  -3.816  0.00  0.00    +0.158 A 
ATOM     25  C   UNL     1       2.795  -4.096  -4.024  0.00  0.00    +0.162 A 
ATOM     26  C   UNL     1       2.557  -4.924  -2.939  0.00  0.00    +0.055 A 
BRANCH  25  27
ATOM     27  O   UNL     1       2.705  -4.587  -5.289  0.00  0.00    -0.491 OA
ATOM     28  C   UNL     1       2.355  -5.966  -5.426  0.00  0.00    +0.277 C 
ENDBRANCH  25  27
BRANCH  24  29
ATOM     29  O   UNL     1       3.371  -1.946  -4.878  0.00  0.00    -0.503 OA
ATOM     30  H   UNL     1       4.295  -1.929  -5.161  0.00  0.00    +0.292 HD
ENDBRANCH  24  29
ENDBRANCH  10  21
BRANCH   9  31
ATOM     31  C   UNL     1       4.491  -6.814  -0.821  0.00  0.00    +0.137 C 
BRANCH  31  32
ATOM     32  C   UNL     1       5.144  -6.893   0.560  0.00  0.00    +0.178 C 
BRANCH  32  33
ATOM     33  O   UNL     1       4.666  -8.051   1.247  0.00  0.00    -0.381 OA
ATOM     34  C   UNL     1       5.138  -8.165   2.591  0.00  0.00    +0.194 C 
ENDBRANCH  32  33
ENDBRANCH  31  32
ENDBRANCH   9  31
TORSDOF 8
