REMARK  Name = ZINC38050988
REMARK  4 active torsions:
REMARK  status: ('A' for Active; 'I' for Inactive)
REMARK    1  A    between atoms: C_3  and  N_11
REMARK    2  A    between atoms: C_4  and  N_8
REMARK    3  A    between atoms: N_11  and  C_12
REMARK    4  A    between atoms: C_18  and  N_20
REMARK                            x       y       z     vdW  Elec       q    Type
REMARK                         _______ _______ _______ _____ _____    ______ ____
ROOT
ATOM      1  N   UNL     1       3.610   1.990   0.476  0.00  0.00    -0.341 N 
ATOM      2  H   UNL     1       4.430   1.476   0.529  0.00  0.00    +0.146 HD
ENDROOT
BRANCH   1   5
ATOM      3  C   UNL     1       0.006   1.416   0.040  0.00  0.00    +0.017 A 
ATOM      4  C   UNL     1       1.205   2.058   0.279  0.00  0.00    +0.026 A 
ATOM      5  C   UNL     1       2.395   1.343   0.234  0.00  0.00    +0.058 A 
ATOM      6  C   UNL     1       2.375  -0.017  -0.051  0.00  0.00    +0.148 A 
ATOM      7  C   UNL     1       1.173  -0.653  -0.290  0.00  0.00    +0.050 A 
ATOM      8  C   UNL     1      -0.011   0.062  -0.244  0.00  0.00    +0.020 A 
ATOM      9 BR   UNL     1      -1.655  -0.813  -0.571  0.00  0.00    -0.050 Br
BRANCH   6  10
ATOM     10  N   UNL     1       3.640  -0.782  -0.101  0.00  0.00    +0.058 N 
ATOM     11  O   UNL     1       4.637  -0.274  -0.560  0.00  0.00    -0.126 OA
ATOM     12  O   UNL     1       3.678  -1.915   0.318  0.00  0.00    -0.126 OA
ENDBRANCH   6  10
ENDBRANCH   1   5
BRANCH   1  13
ATOM     13  C   UNL     1       3.643   3.444   0.648  0.00  0.00    +0.056 C 
ATOM     14  C   UNL     1       3.337   3.792   2.106  0.00  0.00    +0.020 C 
ATOM     15  C   UNL     1       4.384   3.146   3.016  0.00  0.00    +0.002 C 
ATOM     16  C   UNL     1       5.773   3.671   2.647  0.00  0.00    -0.001 C 
ATOM     17  C   UNL     1       6.080   3.323   1.189  0.00  0.00    -0.014 C 
ATOM     18  C   UNL     1       5.033   3.969   0.280  0.00  0.00    -0.055 C 
BRANCH  18  19
ATOM     19  N   UNL     1       5.327   3.635  -1.120  0.00  0.00    +0.381 N 
ATOM     20  H   UNL     1       4.636   4.061  -1.720  0.00  0.00    -0.090 HD
ATOM     21  H   UNL     1       6.243   3.981  -1.363  0.00  0.00    -0.090 HD
ATOM     22  H   UNL     1       5.304   2.633  -1.239  0.00  0.00    -0.090 HD
ENDBRANCH  18  19
ENDBRANCH   1  13
TORSDOF 4
