REMARK  Name = ZINC07405229
REMARK  4 active torsions:
REMARK  status: ('A' for Active; 'I' for Inactive)
REMARK    1  A    between atoms: C_1  and  C_2
REMARK    2  A    between atoms: N_4  and  N_5
REMARK    3  A    between atoms: N_5  and  S_6
REMARK    4  A    between atoms: S_6  and  C_9
REMARK                            x       y       z     vdW  Elec       q    Type
REMARK                         _______ _______ _______ _____ _____    ______ ____
ROOT
ATOM      1  S   UNL     1       0.825  -0.815  -1.185  0.00  0.00    +0.074 S 
ATOM      2  O   UNL     1       0.779  -2.193  -0.842  0.00  0.00    -0.152 OA
ATOM      3  O   UNL     1       0.337  -0.322  -2.426  0.00  0.00    -0.152 OA
ENDROOT
BRANCH   1   4
ATOM      4  C   UNL     1       2.513  -0.324  -1.077  0.00  0.00    +0.108 A 
ATOM      5  C   UNL     1       2.965   0.765  -1.800  0.00  0.00    +0.028 A 
ATOM      6  C   UNL     1       4.288   1.154  -1.711  0.00  0.00    +0.003 A 
ATOM      7  C   UNL     1       5.164   0.447  -0.907  0.00  0.00    +0.015 A 
ATOM      8  C   UNL     1       4.714  -0.645  -0.188  0.00  0.00    +0.020 A 
ATOM      9  C   UNL     1       3.388  -1.030  -0.273  0.00  0.00    +0.043 A 
ATOM     10 BR   UNL     1       5.911  -1.612   0.910  0.00  0.00    -0.050 Br
ENDBRANCH   1   4
BRANCH   1  11
ATOM     11  N   UNL     1       0.002  -0.004   0.002  0.00  0.00    -0.108 NA
ATOM     12  H   UNL     1      -0.467  -0.499   0.692  0.00  0.00    +0.172 HD
BRANCH  11  16
ATOM     13  C   UNL     1      -1.214   3.562   0.027  0.00  0.00    +0.110 C 
ATOM     14  C   UNL     1      -1.193   2.055   0.019  0.00  0.00    +0.225 C 
ATOM     15  O   UNL     1      -2.235   1.434   0.020  0.00  0.00    -0.275 OA
ATOM     16  N   UNL     1      -0.017   1.397   0.010  0.00  0.00    -0.232 N 
ATOM     17  H   UNL     1       0.816   1.893   0.004  0.00  0.00    +0.171 HD
ENDBRANCH  11  16
ENDBRANCH   1  11
TORSDOF 3
