REMARK  Name = ZINC58441983
REMARK  4 active torsions:
REMARK  status: ('A' for Active; 'I' for Inactive)
REMARK    1  A    between atoms: C_1  and  O_2
REMARK    2  A    between atoms: O_2  and  N_3
REMARK    3  A    between atoms: C_4  and  C_5
REMARK    4  A    between atoms: C_10  and  O_11
REMARK                            x       y       z     vdW  Elec       q    Type
REMARK                         _______ _______ _______ _____ _____    ______ ____
ROOT
ATOM      1  C   UNL     1      -2.740  -2.504   0.015  0.00  0.00    +0.039 A 
ATOM      2  C   UNL     1      -2.872  -3.895   0.014  0.00  0.00    +0.028 A 
ATOM      3  C   UNL     1      -4.127  -4.466   0.023  0.00  0.00    +0.019 A 
ATOM      4  C   UNL     1      -5.258  -3.667   0.033  0.00  0.00    +0.019 A 
ATOM      5  C   UNL     1      -5.141  -2.291   0.033  0.00  0.00    +0.047 A 
ATOM      6  C   UNL     1      -3.887  -1.700   0.030  0.00  0.00    +0.126 A 
ATOM      7 BR   UNL     1      -4.304  -6.349   0.022  0.00  0.00    -0.050 Br
ENDROOT
BRANCH   1   9
ATOM      8  N   UNL     1      -1.284  -0.598   0.011  0.00  0.00    -0.093 NA
ATOM      9  C   UNL     1      -1.401  -1.886   0.005  0.00  0.00    +0.164 C 
BRANCH   8  11
ATOM     10  C   UNL     1      -0.017   1.425   0.010  0.00  0.00    +0.313 C 
ATOM     11  O   UNL     1       0.002  -0.004   0.002  0.00  0.00    -0.397 OA
ENDBRANCH   8  11
ENDBRANCH   1   9
BRANCH   6  12
ATOM     12  O   UNL     1      -3.771  -0.347   0.037  0.00  0.00    -0.506 OA
ATOM     13  H   UNL     1      -3.745   0.050  -0.845  0.00  0.00    +0.292 HD
ENDBRANCH   6  12
TORSDOF 3
