REMARK  Name = ZINC20045915
REMARK  6 active torsions:
REMARK  status: ('A' for Active; 'I' for Inactive)
REMARK    1  A    between atoms: C_1  and  C_2
REMARK    2  A    between atoms: C_5  and  C_9
REMARK    3  A    between atoms: C_6  and  O_8
REMARK    4  A    between atoms: N_11  and  C_12
REMARK    5  A    between atoms: C_13  and  C_20
REMARK    6  A    between atoms: C_17  and  C_18
REMARK                            x       y       z     vdW  Elec       q    Type
REMARK                         _______ _______ _______ _____ _____    ______ ____
ROOT
ATOM      1  C   UNL     1       2.404   5.172  -0.181  0.00  0.00    +0.252 C 
ATOM      2  O   UNL     1       1.357   5.790  -0.216  0.00  0.00    -0.270 OA
ATOM      3  N   UNL     1       2.392   3.834  -0.022  0.00  0.00    -0.281 N 
ATOM      4  H   UNL     1       3.340   3.282   0.066  0.00  0.00    +0.155 HD
ENDROOT
BRANCH   3   5
ATOM      5  C   UNL     1       1.175   3.147   0.030  0.00  0.00    +0.040 A 
ATOM      6  C   UNL     1       0.181   3.419  -0.901  0.00  0.00    -0.028 A 
ATOM      7  C   UNL     1      -1.020   2.739  -0.846  0.00  0.00    +0.020 A 
ATOM      8  C   UNL     1      -1.236   1.792   0.138  0.00  0.00    +0.018 A 
ATOM      9  C   UNL     1      -0.245   1.514   1.064  0.00  0.00    +0.020 A 
ATOM     10  C   UNL     1       0.958   2.191   1.014  0.00  0.00    -0.028 A 
ATOM     11  C   UNL     1       2.033   1.892   2.026  0.00  0.00    +0.046 C 
ATOM     12 BR   UNL     1      -2.885   0.869   0.215  0.00  0.00    -0.050 Br
ATOM     13  C   UNL     1       0.413   4.456  -1.970  0.00  0.00    +0.046 C 
ENDBRANCH   3   5
BRANCH   1  18
ATOM     14  C   UNL     1       7.413   7.959  -0.697  0.00  0.00    +0.044 C 
ATOM     15  C   UNL     1       6.100   7.233  -0.562  0.00  0.00    -0.047 A 
ATOM     16  C   UNL     1       6.087   5.857  -0.398  0.00  0.00    +0.004 A 
ATOM     17  C   UNL     1       4.892   5.183  -0.274  0.00  0.00    +0.017 A 
ATOM     18  C   UNL     1       3.687   5.888  -0.313  0.00  0.00    +0.078 A 
ATOM     19  C   UNL     1       3.704   7.279  -0.484  0.00  0.00    +0.129 A 
ATOM     20  C   UNL     1       4.916   7.942  -0.603  0.00  0.00    +0.049 A 
BRANCH  19  21
ATOM     21  O   UNL     1       2.540   7.974  -0.529  0.00  0.00    -0.506 OA
ATOM     22  H   UNL     1       2.556   9.066  -0.664  0.00  0.00    +0.292 HD
ENDBRANCH  19  21
ENDBRANCH   1  18
TORSDOF 3
