REMARK  Name = ZINC37736490
REMARK  7 active torsions:
REMARK  status: ('A' for Active; 'I' for Inactive)
REMARK    1  A    between atoms: N_9  and  C_12
REMARK    2  A    between atoms: C_12  and  S_13
REMARK    3  A    between atoms: S_13  and  C_14
REMARK    4  A    between atoms: C_14  and  C_15
REMARK    5  A    between atoms: C_15  and  C_16
REMARK    6  A    between atoms: C_16  and  C_18
REMARK    7  A    between atoms: C_16  and  N_21
REMARK                            x       y       z     vdW  Elec       q    Type
REMARK                         _______ _______ _______ _____ _____    ______ ____
ROOT
ATOM      1  C   UNK     1       3.709  -3.428  -0.053  0.00  0.00    +0.186 C 
ENDROOT
BRANCH   1  10
ATOM      2  C   UNK     1      -0.017   1.382   0.010  0.00  0.00    +0.001 A 
ATOM      3  C   UNK     1       1.165   2.099   0.002  0.00  0.00    +0.001 A 
ATOM      4  C   UNK     1       2.385   1.442  -0.013  0.00  0.00    +0.014 A 
ATOM      5  C   UNK     1       2.420   0.056  -0.021  0.00  0.00    +0.049 A 
ATOM      6  C   UNK     1       1.215  -0.675  -0.013  0.00  0.00    +0.049 A 
ATOM      7  C   UNK     1       0.002  -0.004   0.002  0.00  0.00    +0.014 A 
ATOM      8  C   UNK     1       1.606  -2.100  -0.025  0.00  0.00    +0.255 C 
ATOM      9  O   UNK     1       0.843  -3.045  -0.023  0.00  0.00    -0.270 OA
ATOM     10  N   UNK     1       2.949  -2.175  -0.039  0.00  0.00    -0.224 N 
ATOM     11  C   UNK     1       3.503  -0.949  -0.038  0.00  0.00    +0.255 C 
ATOM     12  O   UNK     1       4.693  -0.709  -0.049  0.00  0.00    -0.270 OA
ENDBRANCH   1  10
BRANCH   1  13
ATOM     13  S   UNK     1       4.005  -3.936  -1.769  0.00  0.00    -0.141 S 
BRANCH  13  14
ATOM     14  C   UNK     1       5.306  -2.809  -2.342  0.00  0.00    +0.069 C 
BRANCH  14  15
ATOM     15  C   UNK     1       5.657  -3.132  -3.796  0.00  0.00    +0.006 C 
BRANCH  15  16
ATOM     16  C   UNK     1       6.754  -2.182  -4.279  0.00  0.00    +0.041 C 
BRANCH  16  17
ATOM     17  N   UNK     1       7.986  -2.429  -3.518  0.00  0.00    +0.387 N 
ATOM     18  H   UNK     1       8.710  -1.802  -3.837  0.00  0.00    -0.089 HD
ATOM     19  H   UNK     1       7.812  -2.271  -2.537  0.00  0.00    -0.089 HD
ATOM     20  H   UNK     1       8.282  -3.383  -3.658  0.00  0.00    -0.089 HD
ENDBRANCH  16  17
BRANCH  16  21
ATOM     21  C   UNK     1       7.013  -2.417  -5.745  0.00  0.00    +0.342 C 
ATOM     22  O   UNK     1       6.178  -2.094  -6.571  0.00  0.00    -0.248 OA
ATOM     23  O   UNK     1       8.059  -2.932  -6.104  0.00  0.00    -0.248 OA
ENDBRANCH  16  21
ENDBRANCH  15  16
ENDBRANCH  14  15
ENDBRANCH  13  14
ENDBRANCH   1  13
TORSDOF 7
