REMARK  Name = ZINC39659146
REMARK  7 active torsions:
REMARK  status: ('A' for Active; 'I' for Inactive)
REMARK    1  A    between atoms: C_1  and  C_2
REMARK    2  A    between atoms: C_2  and  C_36
REMARK    3  A    between atoms: C_5  and  C_8
REMARK    4  A    between atoms: C_8  and  N_9
REMARK    5  A    between atoms: C_10  and  C_12
REMARK    6  A    between atoms: C_23  and  C_25
REMARK    7  A    between atoms: C_28  and  C_32
REMARK                            x       y       z     vdW  Elec       q    Type
REMARK                         _______ _______ _______ _____ _____    ______ ____
ROOT
ATOM      1  C   UNL     1       3.718  -1.977   4.923  0.00  0.00    +0.100 C 
ATOM      2  C   UNL     1       2.457  -1.361   5.570  0.00  0.00    +0.121 C 
ATOM      3  N   UNL     1       1.989  -2.388   6.530  0.00  0.00    -0.296 N 
ATOM      4  C   UNL     1       3.234  -2.929   7.127  0.00  0.00    +0.115 C 
ATOM      5  C   UNL     1       4.228  -3.003   5.950  0.00  0.00    -0.004 C 
ATOM      6  C   UNL     1       5.630  -2.629   6.419  0.00  0.00    -0.010 C 
ATOM      7  C   UNL     1       6.139  -3.695   7.394  0.00  0.00    -0.082 C 
ATOM      8  N   UNL     1       6.156  -5.002   6.728  0.00  0.00    +0.379 N 
ATOM      9  C   UNL     1       4.789  -5.396   6.363  0.00  0.00    -0.082 C 
ATOM     10  C   UNL     1       4.224  -4.403   5.344  0.00  0.00    -0.010 C 
ATOM     11  C   UNL     1       0.719  -2.749   6.801  0.00  0.00    +0.249 C 
ATOM     12  O   UNL     1       0.490  -3.548   7.689  0.00  0.00    -0.270 OA
ATOM     13  H   UNL     1       6.722  -4.946   5.894  0.00  0.00    -0.086 HD
ATOM     14  H   UNL     1       6.548  -5.691   7.352  0.00  0.00    -0.086 HD
ENDROOT
BRANCH  11  15
ATOM     15  C   UNL     1      -0.394  -2.174   6.020  0.00  0.00    +0.072 A 
ATOM     16  C   UNL     1      -0.328  -0.853   5.571  0.00  0.00    +0.016 A 
ATOM     17  C   UNL     1      -1.370  -0.322   4.842  0.00  0.00    +0.013 A 
ATOM     18  C   UNL     1      -2.483  -1.094   4.553  0.00  0.00    +0.058 A 
ATOM     19  C   UNL     1      -2.559  -2.402   4.994  0.00  0.00    +0.051 A 
ATOM     20  C   UNL     1      -1.518  -2.951   5.721  0.00  0.00    +0.136 A 
ATOM     21  F   UNL     1      -1.589  -4.231   6.146  0.00  0.00    -0.205 F 
BRANCH  18  22
ATOM     22  C   UNL     1      -3.618  -0.505   3.756  0.00  0.00    +0.418 C 
ATOM     23  F   UNL     1      -3.397  -0.731   2.393  0.00  0.00    -0.166 F 
ATOM     24  F   UNL     1      -4.820  -1.109   4.140  0.00  0.00    -0.166 F 
ATOM     25  F   UNL     1      -3.691   0.872   3.995  0.00  0.00    -0.166 F 
ENDBRANCH  18  22
ENDBRANCH  11  15
BRANCH   1  27
ATOM     26  N   UNL     1       4.285  -2.775   2.652  0.00  0.00    -0.312 N 
ATOM     27  C   UNL     1       3.363  -2.662   3.629  0.00  0.00    +0.218 C 
ATOM     28  O   UNL     1       2.249  -3.112   3.466  0.00  0.00    -0.275 OA
ATOM     29  H   UNL     1       5.176  -2.416   2.782  0.00  0.00    +0.149 HD
BRANCH  26  30
ATOM     30  C   UNL     1       3.940  -3.441   1.393  0.00  0.00    +0.138 C 
BRANCH  30  35
ATOM     31  C   UNL     1       7.656  -2.251  -1.006  0.00  0.00    +0.074 C 
ATOM     32  C   UNL     1       6.143  -2.258  -1.230  0.00  0.00    +0.165 C 
ATOM     33  O   UNL     1       5.746  -3.511  -1.803  0.00  0.00    -0.347 OA
ATOM     34  C   UNL     1       4.827  -4.132  -0.881  0.00  0.00    +0.196 C 
ATOM     35  C   UNL     1       5.154  -3.434   0.463  0.00  0.00    +0.164 C 
ATOM     36  O   UNL     1       5.467  -2.089   0.028  0.00  0.00    -0.342 OA
ATOM     37  C   UNL     1       5.758  -1.119  -2.176  0.00  0.00    +0.074 C 
ENDBRANCH  30  35
ENDBRANCH  26  30
ENDBRANCH   1  27
TORSDOF 5
