REMARK  Name = ZINC16661692
REMARK  7 active torsions:
REMARK  status: ('A' for Active; 'I' for Inactive)
REMARK    1  A    between atoms: C_1  and  C_2
REMARK    2  A    between atoms: C_5  and  C_8
REMARK    3  A    between atoms: N_12  and  C_16
REMARK    4  A    between atoms: C_16  and  C_18
REMARK    5  A    between atoms: C_16  and  C_22
REMARK    6  A    between atoms: C_18  and  C_19
REMARK    7  A    between atoms: C_19  and  C_20
REMARK                            x       y       z     vdW  Elec       q    Type
REMARK                         _______ _______ _______ _____ _____    ______ ____
ROOT
ATOM      1  C   UNL     1      -0.457   7.702  -2.718  0.00  0.00    +0.028 C 
ATOM      2  C   UNL     1       0.754   7.175  -2.411  0.00  0.00    +0.077 C 
ATOM      3  C   UNL     1       1.314   6.803  -1.093  0.00  0.00    +0.259 C 
ATOM      4  O   UNL     1       0.681   6.951  -0.065  0.00  0.00    -0.269 OA
ATOM      5  N   UNL     1       2.539   6.307  -1.090  0.00  0.00    -0.241 N 
ATOM      6  C   UNL     1       3.235   6.140  -2.233  0.00  0.00    +0.121 C 
ATOM      7  S   UNL     1       4.816   5.514  -2.433  0.00  0.00    -0.027 S 
ATOM      8  S   UNL     1       2.110   6.730  -3.487  0.00  0.00    -0.061 S 
ENDROOT
BRANCH   1  13
ATOM      9  C   UNL     1      -1.562   9.424  -8.089  0.00  0.00    +0.044 C 
ATOM     10  C   UNL     1      -1.272   8.972  -6.681  0.00  0.00    -0.050 A 
ATOM     11  C   UNL     1      -2.293   8.933  -5.747  0.00  0.00    +0.004 A 
ATOM     12  C   UNL     1      -2.036   8.522  -4.456  0.00  0.00    +0.008 A 
ATOM     13  C   UNL     1      -0.739   8.142  -4.092  0.00  0.00    -0.024 A 
ATOM     14  C   UNL     1       0.288   8.190  -5.040  0.00  0.00    +0.008 A 
ATOM     15  C   UNL     1       0.013   8.598  -6.328  0.00  0.00    +0.004 A 
ENDBRANCH   1  13
BRANCH   5  16
ATOM     16  C   UNL     1       3.153   5.924   0.184  0.00  0.00    +0.196 C 
BRANCH  16  17
ATOM     17  C   UNL     1       4.414   6.721   0.394  0.00  0.00    +0.376 C 
ATOM     18  O   UNL     1       4.764   7.527  -0.435  0.00  0.00    -0.244 OA
ATOM     19  O   UNL     1       5.148   6.537   1.502  0.00  0.00    -0.244 OA
ENDBRANCH  16  17
BRANCH  16  20
ATOM     20  C   UNL     1       3.491   4.432   0.159  0.00  0.00    +0.046 C 
BRANCH  20  21
ATOM     21  C   UNL     1       2.199   3.617   0.071  0.00  0.00    +0.127 C 
BRANCH  21  22
ATOM     22  C   UNL     1       2.533   2.148   0.046  0.00  0.00    +0.356 C 
ATOM     23  O   UNL     1       3.685   1.789   0.094  0.00  0.00    -0.246 OA
ATOM     24  O   UNL     1       1.549   1.238  -0.029  0.00  0.00    -0.246 OA
ENDBRANCH  21  22
ENDBRANCH  20  21
ENDBRANCH  16  20
ENDBRANCH   5  16
TORSDOF 6
