REMARK  Name = ZINC39687890
REMARK  7 active torsions:
REMARK  status: ('A' for Active; 'I' for Inactive)
REMARK    1  A    between atoms: C_1  and  C_2
REMARK    2  A    between atoms: C_2  and  C_3
REMARK    3  A    between atoms: C_3  and  C_4
REMARK    4  A    between atoms: C_4  and  C_5
REMARK    5  A    between atoms: C_9  and  C_18
REMARK    6  A    between atoms: N_20  and  C_21
REMARK    7  A    between atoms: C_27  and  C_29
REMARK                            x       y       z     vdW  Elec       q    Type
REMARK                         _______ _______ _______ _____ _____    ______ ____
ROOT
ATOM      1  C   UNL     1      -2.974  -2.605  -0.016  0.00  0.00    +0.216 C 
ATOM      2  O   UNL     1      -3.923  -1.852   0.048  0.00  0.00    -0.276 OA
ATOM      3  N   UNL     1      -3.169  -3.938   0.011  0.00  0.00    -0.300 N 
ATOM      4  C   UNL     1      -2.144  -5.007  -0.049  0.00  0.00    +0.121 C 
ATOM      5  C   UNL     1      -2.640  -6.080   0.946  0.00  0.00    +0.100 C 
ATOM      6  C   UNL     1      -4.159  -5.853   1.043  0.00  0.00    -0.004 C 
ATOM      7  C   UNL     1      -4.456  -4.667   0.114  0.00  0.00    +0.115 C 
ATOM      8  C   UNL     1      -4.910  -7.095   0.574  0.00  0.00    -0.010 C 
ATOM      9  C   UNL     1      -6.415  -6.866   0.734  0.00  0.00    -0.082 C 
ATOM     10  N   UNL     1      -6.723  -6.587   2.142  0.00  0.00    +0.379 N 
ATOM     11  C   UNL     1      -6.070  -5.340   2.559  0.00  0.00    -0.082 C 
ATOM     12  C   UNL     1      -4.550  -5.504   2.476  0.00  0.00    -0.010 C 
ATOM     13  H   UNL     1      -7.721  -6.497   2.255  0.00  0.00    -0.086 HD
ATOM     14  H   UNL     1      -6.389  -7.348   2.715  0.00  0.00    -0.086 HD
ENDROOT
BRANCH   5  15
ATOM     15  C   UNL     1      -2.347  -7.460   0.419  0.00  0.00    +0.218 C 
ATOM     16  O   UNL     1      -2.334  -7.663  -0.777  0.00  0.00    -0.275 OA
ATOM     17  N   UNL     1      -2.098  -8.470   1.276  0.00  0.00    -0.312 N 
ATOM     18  H   UNL     1      -2.107  -8.308   2.232  0.00  0.00    +0.149 HD
BRANCH  17  19
ATOM     19  C   UNL     1      -1.812  -9.812   0.763  0.00  0.00    +0.076 C 
ATOM     20  C   UNL     1      -3.128 -10.550   0.504  0.00  0.00    +0.041 C 
ATOM     21  C   UNL     1      -2.826 -11.940  -0.064  0.00  0.00    +0.109 C 
ATOM     22  N   UNL     1      -1.913 -12.638   0.852  0.00  0.00    -0.302 N 
ATOM     23  C   UNL     1      -0.660 -11.977   1.240  0.00  0.00    +0.109 C 
ATOM     24  C   UNL     1      -0.986 -10.586   1.793  0.00  0.00    +0.041 C 
ATOM     25  C   UNL     1      -2.221 -13.860   1.329  0.00  0.00    +0.212 C 
ATOM     26  O   UNL     1      -3.259 -14.395   1.002  0.00  0.00    -0.276 OA
ATOM     27  C   UNL     1      -1.275 -14.563   2.268  0.00  0.00    +0.109 C 
ENDBRANCH  17  19
ENDBRANCH   5  15
BRANCH   1  28
ATOM     28  C   UNL     1      -1.578  -2.049  -0.126  0.00  0.00    +0.096 C 
BRANCH  28  29
ATOM     29  C   UNL     1      -1.637  -0.520  -0.136  0.00  0.00    +0.009 C 
BRANCH  29  31
ATOM     30  C   UNL     1      -0.278   1.573  -0.257  0.00  0.00    +0.004 C 
ATOM     31  C   UNL     1      -0.219   0.044  -0.247  0.00  0.00    -0.003 C 
ENDBRANCH  29  31
ENDBRANCH  28  29
ENDBRANCH   1  28
TORSDOF 5
