REMARK  Name = ZINC21808242
REMARK  3 active torsions:
REMARK  status: ('A' for Active; 'I' for Inactive)
REMARK    1  A    between atoms: C_2  and  N_13
REMARK    2  A    between atoms: C_6  and  S_7
REMARK    3  A    between atoms: S_7  and  N_10
REMARK                            x       y       z     vdW  Elec       q    Type
REMARK                         _______ _______ _______ _____ _____    ______ ____
ROOT
ATOM      1  C   UNL     1      -3.576   0.445   1.106  0.00  0.00    +0.057 A 
ATOM      2  C   UNL     1      -4.582  -0.512   1.106  0.00  0.00    +0.062 A 
ATOM      3  C   UNL     1      -4.738  -1.353   0.010  0.00  0.00    +0.147 A 
ATOM      4  C   UNL     1      -3.891  -1.234  -1.077  0.00  0.00    +0.080 A 
ATOM      5  C   UNL     1      -2.893  -0.275  -1.075  0.00  0.00    +0.152 A 
ATOM      6  C   UNL     1      -2.733   0.560   0.018  0.00  0.00    +0.142 A 
ATOM      7  F   UNL     1      -2.070  -0.156  -2.140  0.00  0.00    -0.203 F 
ATOM      8  F   UNL     1      -5.715  -2.286   0.007  0.00  0.00    -0.203 F 
ENDROOT
BRANCH   6   9
ATOM      9  S   UNL     1      -1.456   1.774   0.019  0.00  0.00    +0.059 S 
ATOM     10  O   UNL     1      -1.536   2.446   1.268  0.00  0.00    -0.153 OA
ATOM     11  O   UNL     1      -1.548   2.460  -1.223  0.00  0.00    -0.153 OA
BRANCH   9  12
ATOM     12  N   UNL     1      -0.011   0.966   0.007  0.00  0.00    -0.203 NA
ATOM     13  H   UNL     1       0.815   1.692   0.007  0.00  0.00    +0.144 HD
ATOM     14  H   UNL     1       0.051   0.339  -0.894  0.00  0.00    +0.144 HD
ENDBRANCH   9  12
ENDBRANCH   6   9
BRANCH   2  15
ATOM     15  N   UNL     1      -5.437  -0.630   2.208  0.00  0.00    -0.356 N 
ATOM     16  H   UNL     1      -6.234  -1.389   2.207  0.00  0.00    +0.142 HD
ATOM     17  H   UNL     1      -5.312   0.035   3.075  0.00  0.00    +0.142 HD
ENDBRANCH   2  15
TORSDOF 3
