REMARK  Name = ZINC12875772
REMARK  7 active torsions:
REMARK  status: ('A' for Active; 'I' for Inactive)
REMARK    1  A    between atoms: C_1  and  C_2
REMARK    2  A    between atoms: C_2  and  O_3
REMARK    3  A    between atoms: O_3  and  C_4
REMARK    4  A    between atoms: C_4  and  C_6
REMARK    5  A    between atoms: C_9  and  N_12
REMARK    6  A    between atoms: C_17  and  C_33
REMARK    7  A    between atoms: C_33  and  C_34
REMARK                            x       y       z     vdW  Elec       q    Type
REMARK                         _______ _______ _______ _____ _____    ______ ____
ROOT
ATOM      1  N   UNL     1       2.113   1.715   3.021  0.00  0.00    -0.210 N 
ATOM      2  C   UNL     1       1.441   0.700   2.466  0.00  0.00    +0.228 C 
ATOM      3  O   UNL     1       1.944  -0.242   1.891  0.00  0.00    -0.275 OA
ATOM      4  C   UNL     1      -0.043   0.910   2.665  0.00  0.00    +0.074 C 
ATOM      5  C   UNL     1      -0.706   1.196   1.301  0.00  0.00    -0.049 C 
ATOM      6  C   UNL     1      -0.798   3.224   2.459  0.00  0.00    +0.050 C 
ATOM      7  C   UNL     1      -0.114   2.259   3.435  0.00  0.00    +0.088 C 
ATOM      8  C   UNL     1       1.340   2.644   3.595  0.00  0.00    +0.229 C 
ATOM      9  O   UNL     1       1.742   3.640   4.156  0.00  0.00    -0.275 OA
ATOM     10  C   UNL     1      -2.263   3.365   2.760  0.00  0.00    -0.028 A 
ATOM     11  C   UNL     1      -3.309   2.471   2.819  0.00  0.00    +0.004 A 
ATOM     12  C   UNL     1      -4.582   2.914   3.132  0.00  0.00    +0.000 A 
ATOM     13  C   UNL     1      -4.800   4.256   3.386  0.00  0.00    +0.002 A 
ATOM     14  C   UNL     1      -3.755   5.154   3.329  0.00  0.00    +0.023 A 
ATOM     15  C   UNL     1      -2.471   4.717   3.015  0.00  0.00    +0.036 A 
ATOM     16  N   UNL     1      -1.270   5.420   2.899  0.00  0.00    -0.286 N 
ATOM     17  C   UNL     1      -0.239   4.615   2.577  0.00  0.00    +0.211 C 
ATOM     18  O   UNL     1       0.916   4.947   2.413  0.00  0.00    -0.277 OA
ATOM     19  H   UNL     1      -1.187   6.377   3.035  0.00  0.00    +0.155 HD
ATOM     20  N   UNL     1      -0.583   2.647   1.143  0.00  0.00    +0.394 N 
ATOM     21  H   UNL     1      -1.290   2.993   0.483  0.00  0.00    -0.083 HD
ATOM     22  H   UNL     1       0.354   2.888   0.798  0.00  0.00    -0.083 HD
ENDROOT
BRANCH   1  26
ATOM     23  C   UNL     1       6.274   1.962   2.967  0.00  0.00    +0.059 A 
ATOM     24  C   UNL     1       5.550   2.076   1.777  0.00  0.00    +0.017 A 
ATOM     25  C   UNL     1       4.175   1.994   1.799  0.00  0.00    +0.025 A 
ATOM     26  C   UNL     1       3.508   1.798   3.003  0.00  0.00    +0.044 A 
ATOM     27  C   UNL     1       4.224   1.689   4.190  0.00  0.00    +0.025 A 
ATOM     28  C   UNL     1       5.599   1.764   4.175  0.00  0.00    +0.017 A 
BRANCH  23  29
ATOM     29  C   UNL     1       7.746   2.049   2.948  0.00  0.00    +0.339 C 
ATOM     30  O   UNL     1       8.331   2.221   1.897  0.00  0.00    -0.245 OA
BRANCH  29  31
ATOM     31  O   UNL     1       8.443   1.938   4.096  0.00  0.00    -0.461 OA
BRANCH  31  33
ATOM     32  C   UNL     1      10.501   1.887   5.396  0.00  0.00    +0.048 C 
ATOM     33  C   UNL     1       9.889   2.034   4.002  0.00  0.00    +0.229 C 
ENDBRANCH  31  33
ENDBRANCH  29  31
ENDBRANCH  23  29
ENDBRANCH   1  26
BRANCH   5  34
ATOM     34  C   UNL     1       0.028   0.449   0.186  0.00  0.00    +0.080 C 
BRANCH  34  35
ATOM     35  C   UNL     1      -0.686   0.673  -1.123  0.00  0.00    +0.209 C 
ATOM     36  O   UNL     1      -1.683   1.363  -1.159  0.00  0.00    -0.276 OA
ATOM     37  N   UNL     1      -0.217   0.106  -2.252  0.00  0.00    -0.329 N 
ATOM     38  H   UNL     1       0.581  -0.445  -2.223  0.00  0.00    +0.145 HD
ATOM     39  H   UNL     1      -0.676   0.251  -3.094  0.00  0.00    +0.145 HD
ENDBRANCH  34  35
ENDBRANCH   5  34
TORSDOF 6
