REMARK  Name = ZINC20717355
REMARK  1 active torsions:
REMARK  status: ('A' for Active; 'I' for Inactive)
REMARK    1  A    between atoms: C_4  and  C_8
REMARK                            x       y       z     vdW  Elec       q    Type
REMARK                         _______ _______ _______ _____ _____    ______ ____
ROOT
ATOM      1  C   UNL     1       3.711  -0.711  -0.037  0.00  0.00    +0.114 C 
ATOM      2  C   UNL     1       4.155  -0.869  -1.458  0.00  0.00    +0.029 A 
ATOM      3  C   UNL     1       3.272  -0.872  -2.498  0.00  0.00    +0.111 A 
ATOM      4  N   UNL     1       3.966  -1.028  -3.638  0.00  0.00    -0.283 N 
ATOM      5  H   UNL     1       3.595  -1.066  -4.533  0.00  0.00    +0.188 HD
ATOM      6  N   UNL     1       5.317  -1.126  -3.305  0.00  0.00    -0.158 NA
ATOM      7  C   UNL     1       5.437  -1.031  -1.984  0.00  0.00    +0.151 A 
ATOM      8  N   UNL     1       6.674  -1.099  -1.373  0.00  0.00    -0.268 N 
ATOM      9  C   UNL     1       7.089  -0.999  -0.145  0.00  0.00    +0.228 C 
ATOM     10  O   UNL     1       8.295  -1.015  -0.016  0.00  0.00    -0.275 OA
ATOM     11  C   UNL     1       6.335  -0.868   1.117  0.00  0.00    +0.166 C 
ATOM     12  S   UNL     1       4.890   0.190   0.973  0.00  0.00    -0.138 S 
ATOM     13  H   UNL     1       7.396  -1.257  -2.002  0.00  0.00    +0.156 HD
ENDROOT
BRANCH   1  17
ATOM     14  C   UNL     1      -0.017   1.379   0.010  0.00  0.00    +0.018 A 
ATOM     15  C   UNL     1       1.171   2.086   0.002  0.00  0.00    +0.040 A 
ATOM     16  C   UNL     1       2.379   1.411  -0.013  0.00  0.00    +0.128 A 
ATOM     17  C   UNL     1       2.397   0.026  -0.021  0.00  0.00    +0.006 A 
ATOM     18  C   UNL     1       1.209  -0.680  -0.013  0.00  0.00    +0.023 A 
ATOM     19  C   UNL     1       0.002  -0.004   0.002  0.00  0.00    +0.018 A 
ATOM     20 BR   UNL     1      -1.623  -0.971   0.013  0.00  0.00    -0.050 Br
ATOM     21  F   UNL     1       3.539   2.102  -0.021  0.00  0.00    -0.205 F 
ENDBRANCH   1  17
TORSDOF 1
