REMARK  Name = ZINC44458079
REMARK  3 active torsions:
REMARK  status: ('A' for Active; 'I' for Inactive)
REMARK    1  A    between atoms: C_6  and  N_8
REMARK    2  A    between atoms: C_9  and  C_11
REMARK    3  A    between atoms: N_19  and  C_20
REMARK                            x       y       z     vdW  Elec       q    Type
REMARK                         _______ _______ _______ _____ _____    ______ ____
ROOT
ATOM      1  C   UNL     1      -3.008  -2.238   0.771  0.00  0.00    +0.078 C 
ATOM      2  C   UNL     1      -2.917  -2.290   2.297  0.00  0.00    +0.032 C 
ATOM      3  C   UNL     1      -4.254  -2.775   2.868  0.00  0.00    +0.110 C 
ATOM      4  N   UNL     1      -4.598  -4.058   2.240  0.00  0.00    -0.286 N 
ATOM      5  C   UNL     1      -4.625  -4.142   0.773  0.00  0.00    +0.110 C 
ATOM      6  C   UNL     1      -3.284  -3.641   0.226  0.00  0.00    +0.032 C 
ATOM      7  C   UNL     1      -4.884  -5.137   2.994  0.00  0.00    +0.302 C 
ATOM      8  O   UNL     1      -5.256  -6.167   2.466  0.00  0.00    -0.253 OA
ATOM      9  N   UNL     1      -4.757  -5.075   4.335  0.00  0.00    -0.296 N 
ATOM     10  H   UNL     1      -4.532  -4.234   4.762  0.00  0.00    +0.151 HD
ENDROOT
BRANCH   1  12
ATOM     11  N   UNL     1      -1.256  -0.505   0.551  0.00  0.00    -0.305 N 
ATOM     12  C   UNL     1      -1.706  -1.729   0.208  0.00  0.00    +0.217 C 
ATOM     13  O   UNL     1      -1.063  -2.420  -0.554  0.00  0.00    -0.275 OA
ATOM     14  H   UNL     1      -1.771   0.047   1.160  0.00  0.00    +0.149 HD
BRANCH  11  20
ATOM     15  C   UNL     1      -0.010   1.520   0.011  0.00  0.00    +0.042 C 
ATOM     16  C   UNL     1       1.458   2.009   0.001  0.00  0.00    +0.079 C 
ATOM     17  S   UNL     1       2.312   0.642   0.877  0.00  0.00    -0.086 S 
ATOM     18  C   UNL     1       1.150  -0.567   0.822  0.00  0.00    +0.209 C 
ATOM     19  O   UNL     1       1.213  -1.664   1.336  0.00  0.00    -0.283 OA
ATOM     20  C   UNL     1       0.009  -0.010   0.003  0.00  0.00    +0.151 C 
ENDBRANCH  11  20
ENDBRANCH   1  12
BRANCH   9  21
ATOM     21  C   UNL     1      -4.960  -6.278   5.146  0.00  0.00    +0.075 C 
ATOM     22  C   UNL     1      -5.782  -6.135   6.428  0.00  0.00    +0.024 C 
ATOM     23  C   UNL     1      -4.268  -6.335   6.509  0.00  0.00    +0.024 C 
ENDBRANCH   9  21
TORSDOF 3
