REMARK  Name = ZINC19510619
REMARK  5 active torsions:
REMARK  status: ('A' for Active; 'I' for Inactive)
REMARK    1  A    between atoms: C_1  and  C_2
REMARK    2  A    between atoms: C_4  and  N_9
REMARK    3  A    between atoms: N_9  and  S_10
REMARK    4  A    between atoms: S_10  and  C_13
REMARK    5  A    between atoms: C_18  and  N_19
REMARK                            x       y       z     vdW  Elec       q    Type
REMARK                         _______ _______ _______ _____ _____    ______ ____
ROOT
ATOM      1  S   UNL     1       0.158   1.431  -0.089  0.00  0.00    +0.074 S 
ATOM      2  O   UNL     1       0.374   0.027  -0.145  0.00  0.00    -0.150 OA
ATOM      3  O   UNL     1       1.224   2.369  -0.156  0.00  0.00    -0.150 OA
ENDROOT
BRANCH   1   4
ATOM      4  C   UNL     1      -0.699   1.749   1.417  0.00  0.00    +0.129 A 
ATOM      5  C   UNL     1      -0.248   2.733   2.275  0.00  0.00    +0.031 A 
ATOM      6  C   UNL     1      -0.923   2.987   3.455  0.00  0.00    +0.002 A 
ATOM      7  C   UNL     1      -2.045   2.249   3.785  0.00  0.00    +0.002 A 
ATOM      8  C   UNL     1      -2.498   1.260   2.935  0.00  0.00    +0.025 A 
ATOM      9  C   UNL     1      -1.826   1.006   1.746  0.00  0.00    +0.052 A 
BRANCH   9  10
ATOM     10  N   UNL     1      -2.281   0.006   0.884  0.00  0.00    -0.356 N 
ATOM     11  H   UNL     1      -3.174  -0.581   1.145  0.00  0.00    +0.142 HD
ATOM     12  H   UNL     1      -1.747  -0.194  -0.057  0.00  0.00    +0.142 HD
ENDBRANCH   9  10
ENDBRANCH   1   4
BRANCH   1  13
ATOM     13  N   UNL     1      -0.876   1.801  -1.329  0.00  0.00    -0.216 N 
ATOM     14  H   UNL     1      -1.255   1.004  -1.985  0.00  0.00    +0.174 HD
BRANCH  13  18
ATOM     15  C   UNL     1      -1.655   5.536  -4.426  0.00  0.00    +0.045 C 
ATOM     16  C   UNL     1      -1.654   4.963  -3.033  0.00  0.00    -0.035 A 
ATOM     17  C   UNL     1      -1.267   3.653  -2.826  0.00  0.00    +0.029 A 
ATOM     18  C   UNL     1      -1.266   3.126  -1.541  0.00  0.00    +0.048 A 
ATOM     19  C   UNL     1      -1.659   3.916  -0.468  0.00  0.00    +0.025 A 
ATOM     20  C   UNL     1      -2.040   5.226  -0.680  0.00  0.00    +0.017 A 
ATOM     21  C   UNL     1      -2.040   5.749  -1.962  0.00  0.00    +0.021 A 
ATOM     22 BR   UNL     1      -2.568   7.542  -2.249  0.00  0.00    -0.050 Br
ENDBRANCH  13  18
ENDBRANCH   1  13
TORSDOF 4
