REMARK  Name = ZINC39446491
REMARK  7 active torsions:
REMARK  status: ('A' for Active; 'I' for Inactive)
REMARK    1  A    between atoms: C_1  and  C_2
REMARK    2  A    between atoms: C_5  and  C_30
REMARK    3  A    between atoms: C_12  and  N_15
REMARK    4  A    between atoms: C_16  and  C_18
REMARK    5  A    between atoms: C_18  and  O_19
REMARK    6  A    between atoms: O_19  and  C_20
REMARK    7  A    between atoms: C_20  and  C_22
REMARK                            x       y       z     vdW  Elec       q    Type
REMARK                         _______ _______ _______ _____ _____    ______ ____
ROOT
ATOM      1  N   UNL     1      -0.606   0.540   2.937  0.00  0.00    -0.283 N 
ATOM      2  C   UNL     1      -0.064   0.624   4.168  0.00  0.00    +0.253 C 
ATOM      3  O   UNL     1       0.572  -0.307   4.615  0.00  0.00    -0.272 OA
ATOM      4  H   UNL     1      -1.114   1.284   2.579  0.00  0.00    +0.152 HD
ENDROOT
BRANCH   1  15
ATOM      5  C   UNL     1      -0.019   1.526   0.010  0.00  0.00    +0.043 C 
ATOM      6  C   UNL     1       0.002  -0.004   0.002  0.00  0.00    +0.150 C 
ATOM      7  C   UNL     1      -1.405  -0.543   0.038  0.00  0.00    +0.016 A 
ATOM      8  C   UNL     1      -2.412  -0.692  -0.924  0.00  0.00    +0.065 A 
ATOM      9  N   UNL     1      -3.565  -1.206  -0.589  0.00  0.00    -0.176 NA
ATOM     10  N   UNL     1      -3.830  -1.592   0.607  0.00  0.00    -0.243 N 
ATOM     11  C   UNL     1      -2.926  -1.489   1.603  0.00  0.00    +0.272 A 
ATOM     12  O   UNL     1      -3.201  -1.863   2.732  0.00  0.00    -0.266 OA
ATOM     13  C   UNL     1      -1.661  -0.945   1.319  0.00  0.00    +0.072 A 
ATOM     14  H   UNL     1      -4.704  -1.966   0.800  0.00  0.00    +0.192 HD
ATOM     15  C   UNL     1      -0.427  -0.676   2.139  0.00  0.00    +0.243 C 
ATOM     16  O   UNL     1       0.646  -0.498   1.192  0.00  0.00    -0.347 OA
ATOM     17  C   UNL     1      -2.165  -0.259  -2.346  0.00  0.00    +0.068 C 
ENDBRANCH   1  15
BRANCH   2  18
ATOM     18  C   UNL     1      -0.247   1.875   4.988  0.00  0.00    +0.328 C 
BRANCH  18  19
ATOM     19  O   UNL     1       0.415   1.722   6.245  0.00  0.00    -0.452 OA
BRANCH  19  20
ATOM     20  C   UNL     1       0.347   2.758   7.102  0.00  0.00    +0.342 C 
ATOM     21  O   UNL     1      -0.259   3.765   6.792  0.00  0.00    -0.245 OA
BRANCH  20  22
ATOM     22  C   UNL     1       1.007   2.671   8.419  0.00  0.00    +0.095 A 
ATOM     23  C   UNL     1       2.330   3.096   8.571  0.00  0.00    +0.056 A 
ATOM     24  C   UNL     1       2.941   3.012   9.806  0.00  0.00    +0.021 A 
ATOM     25  C   UNL     1       2.248   2.509  10.892  0.00  0.00    +0.003 A 
ATOM     26  C   UNL     1       0.938   2.086  10.750  0.00  0.00    +0.021 A 
ATOM     27  C   UNL     1       0.311   2.169   9.523  0.00  0.00    +0.056 A 
ATOM     28 CL   UNL     1      -1.334   1.644   9.348  0.00  0.00    -0.083 Cl
ATOM     29 CL   UNL     1       3.203   3.728   7.210  0.00  0.00    -0.083 Cl
ENDBRANCH  20  22
ENDBRANCH  19  20
ENDBRANCH  18  19
ENDBRANCH   2  18
TORSDOF 5
