REMARK  Name = ZINC64871092
REMARK  5 active torsions:
REMARK  status: ('A' for Active; 'I' for Inactive)
REMARK    1  A    between atoms: C_1  and  C_2
REMARK    2  A    between atoms: C_6  and  C_8
REMARK    3  A    between atoms: C_11  and  C_15
REMARK    4  A    between atoms: N_25  and  C_28
REMARK    5  A    between atoms: C_28  and  C_29
REMARK                            x       y       z     vdW  Elec       q    Type
REMARK                         _______ _______ _______ _____ _____    ______ ____
ROOT
ATOM      1  C   UNL     1      -2.000  -5.470   3.885  0.00  0.00    -0.000 A 
ATOM      2  C   UNL     1      -0.919  -6.319   4.063  0.00  0.00    +0.008 A 
ATOM      3  C   UNL     1      -1.097  -7.569   4.618  0.00  0.00    +0.016 A 
ATOM      4  C   UNL     1      -2.373  -7.974   5.001  0.00  0.00    +0.063 A 
ATOM      5  C   UNL     1      -3.469  -7.112   4.820  0.00  0.00    +0.056 A 
ATOM      6  C   UNL     1      -3.269  -5.857   4.265  0.00  0.00    +0.034 A 
ATOM      7  N   UNL     1      -4.728  -7.543   5.211  0.00  0.00    -0.307 N 
ATOM      8  H   UNL     1      -5.494  -6.959   5.092  0.00  0.00    +0.170 HD
ATOM      9  C   UNL     1      -4.899  -8.761   5.752  0.00  0.00    +0.330 A 
ATOM     10  O   UNL     1      -6.019  -9.101   6.080  0.00  0.00    -0.246 OA
ATOM     11  N   UNL     1      -3.885  -9.620   5.945  0.00  0.00    -0.256 N 
ATOM     12  C   UNL     1      -2.619  -9.299   5.599  0.00  0.00    +0.265 A 
ATOM     13  O   UNL     1      -1.706 -10.082   5.777  0.00  0.00    -0.267 OA
ENDROOT
BRANCH   1  16
ATOM     14  C   UNL     1       0.054  -2.845   2.489  0.00  0.00    +0.180 C 
ATOM     15  N   UNL     1      -0.647  -4.137   2.333  0.00  0.00    -0.265 NA
ATOM     16  C   UNL     1      -1.786  -4.107   3.277  0.00  0.00    +0.242 C 
ATOM     17  O   UNL     1      -1.398  -3.155   4.293  0.00  0.00    -0.274 OA
ATOM     18  N   UNL     1      -0.697  -2.099   3.526  0.00  0.00    -0.177 NA
ATOM     19  H   UNL     1      -0.966  -4.263   1.384  0.00  0.00    +0.127 HD
ATOM     20  H   UNL     1      -1.356  -1.460   3.107  0.00  0.00    +0.156 HD
BRANCH  14  26
ATOM     21  C   UNL     1      -0.018   1.503   0.010  0.00  0.00    +0.044 C 
ATOM     22  C   UNL     1       0.002  -0.004   0.002  0.00  0.00    -0.050 A 
ATOM     23  C   UNL     1       0.006  -0.689  -1.199  0.00  0.00    +0.003 A 
ATOM     24  C   UNL     1       0.025  -2.071  -1.207  0.00  0.00    +0.001 A 
ATOM     25  C   UNL     1       0.040  -2.768  -0.013  0.00  0.00    +0.006 A 
ATOM     26  C   UNL     1       0.037  -2.084   1.188  0.00  0.00    -0.014 A 
ATOM     27  C   UNL     1       0.023  -0.702   1.195  0.00  0.00    +0.010 A 
ENDBRANCH  14  26
ENDBRANCH   1  16
BRANCH  11  28
ATOM     28  C   UNL     1      -4.156 -10.930   6.541  0.00  0.00    +0.165 C 
BRANCH  28  29
ATOM     29  C   UNL     1      -4.465 -11.924   5.451  0.00  0.00    -0.026 A 
ATOM     30  C   UNL     1      -5.768 -12.100   5.025  0.00  0.00    +0.005 A 
ATOM     31  C   UNL     1      -6.052 -13.011   4.025  0.00  0.00    +0.002 A 
ATOM     32  C   UNL     1      -5.032 -13.748   3.452  0.00  0.00    +0.020 A 
ATOM     33  C   UNL     1      -3.728 -13.573   3.878  0.00  0.00    +0.041 A 
ATOM     34  C   UNL     1      -3.444 -12.655   4.875  0.00  0.00    +0.025 A 
ATOM     35 CL   UNL     1      -2.447 -14.498   3.159  0.00  0.00    -0.084 Cl
ENDBRANCH  28  29
ENDBRANCH  11  28
TORSDOF 4
