REMARK  Name = ZINC61594918
REMARK  9 active torsions:
REMARK  status: ('A' for Active; 'I' for Inactive)
REMARK    1  A    between atoms: C_1  and  C_2
REMARK    2  A    between atoms: C_2  and  C_3
REMARK    3  A    between atoms: C_3  and  N_4
REMARK    4  A    between atoms: C_10  and  S_11
REMARK    5  A    between atoms: S_11  and  C_12
REMARK    6  A    between atoms: C_12  and  C_14
REMARK    7  A    between atoms: C_12  and  C_21
REMARK    8  A    between atoms: C_21  and  C_23
REMARK    9  A    between atoms: C_21  and  N_24
REMARK                            x       y       z     vdW  Elec       q    Type
REMARK                         _______ _______ _______ _____ _____    ______ ____
ROOT
ATOM      1  C   UNL     1      -1.389  -3.672   3.959  0.00  0.00    +0.071 C 
ENDROOT
BRANCH   1   2
ATOM      2  C   UNL     1      -1.409  -3.383   5.438  0.00  0.00    -0.022 A 
ATOM      3  C   UNL     1      -0.826  -2.228   5.925  0.00  0.00    +0.006 A 
ATOM      4  C   UNL     1      -0.845  -1.963   7.282  0.00  0.00    +0.000 A 
ATOM      5  C   UNL     1      -1.448  -2.852   8.152  0.00  0.00    +0.001 A 
ATOM      6  C   UNL     1      -2.031  -4.007   7.666  0.00  0.00    +0.015 A 
ATOM      7  C   UNL     1      -2.017  -4.271   6.308  0.00  0.00    +0.022 A 
ATOM      8 BR   UNL     1      -2.822  -5.847   5.642  0.00  0.00    -0.050 Br
ENDBRANCH   1   2
BRANCH   1   9
ATOM      9  C   UNL     1      -0.200  -4.578   3.633  0.00  0.00    -0.060 C 
ATOM     10  C   UNL     1       1.102  -3.857   3.985  0.00  0.00    -0.013 C 
BRANCH   9  11
ATOM     11  N   UNL     1      -0.300  -5.818   4.415  0.00  0.00    +0.381 N 
ATOM     12  H   UNL     1      -1.113  -6.338   4.118  0.00  0.00    -0.090 HD
ATOM     13  H   UNL     1       0.528  -6.376   4.269  0.00  0.00    -0.090 HD
ATOM     14  H   UNL     1      -0.385  -5.592   5.395  0.00  0.00    -0.090 HD
ENDBRANCH   9  11
ENDBRANCH   1   9
BRANCH   1  15
ATOM     15  S   UNL     1      -1.233  -2.116   3.041  0.00  0.00    -0.080 S 
BRANCH  15  22
ATOM     16  N   UNL     1      -1.522  -1.727   0.286  0.00  0.00    -0.271 N 
ATOM     17  C   UNL     1      -1.721  -2.456  -0.831  0.00  0.00    +0.345 A 
ATOM     18  O   UNL     1      -1.807  -2.024  -1.967  0.00  0.00    -0.245 OA
ATOM     19  N   UNL     1      -1.808  -3.751  -0.462  0.00  0.00    -0.226 N 
ATOM     20  H   UNL     1      -1.949  -4.507  -1.052  0.00  0.00    +0.194 HD
ATOM     21  N   UNL     1      -1.655  -3.801   0.930  0.00  0.00    -0.145 NA
ATOM     22  C   UNL     1      -1.480  -2.585   1.361  0.00  0.00    +0.193 A 
BRANCH  16  23
ATOM     23  C   UNL     1      -1.371  -0.271   0.344  0.00  0.00    +0.129 C 
BRANCH  23  25
ATOM     24  C   UNL     1       0.265   1.615   0.255  0.00  0.00    +0.005 C 
ATOM     25  C   UNL     1       0.107   0.095   0.195  0.00  0.00    +0.018 C 
ENDBRANCH  23  25
ENDBRANCH  16  23
ENDBRANCH  15  22
ENDBRANCH   1  15
TORSDOF 7
