REMARK  Name = ZINC03170625
REMARK  6 active torsions:
REMARK  status: ('A' for Active; 'I' for Inactive)
REMARK    1  A    between atoms: C_1  and  C_2
REMARK    2  A    between atoms: C_2  and  C_3
REMARK    3  A    between atoms: C_8  and  N_9
REMARK    4  A    between atoms: C_10  and  C_12
REMARK    5  A    between atoms: N_14  and  N_15
REMARK    6  A    between atoms: C_16  and  C_17
REMARK                            x       y       z     vdW  Elec       q    Type
REMARK                         _______ _______ _______ _____ _____    ______ ____
ROOT
ATOM      1  C   UNL     1       0.894   2.346   0.043  0.00  0.00    +0.318 C 
ATOM      2  O   UNL     1       2.017   1.883   0.015  0.00  0.00    -0.263 OA
ATOM      3  N   UNL     1      -0.173   1.524   0.049  0.00  0.00    -0.199 N 
ATOM      4  H   UNL     1      -1.070   1.894   0.068  0.00  0.00    +0.178 HD
ENDROOT
BRANCH   1   6
ATOM      5  N   UNL     1       1.766   4.645   0.064  0.00  0.00    -0.277 N 
ATOM      6  C   UNL     1       0.698   3.823   0.070  0.00  0.00    +0.305 C 
ATOM      7  O   UNL     1      -0.424   4.286   0.099  0.00  0.00    -0.265 OA
ATOM      8  H   UNL     1       2.660   4.278  -0.017  0.00  0.00    +0.155 HD
BRANCH   5  14
ATOM      9  C   UNL     1       2.603   6.823   0.684  0.00  0.00    -0.026 A 
ATOM     10  C   UNL     1       2.420   8.188   0.792  0.00  0.00    +0.005 A 
ATOM     11  C   UNL     1       1.227   8.761   0.393  0.00  0.00    +0.000 A 
ATOM     12  C   UNL     1       0.212   7.971  -0.116  0.00  0.00    +0.002 A 
ATOM     13  C   UNL     1       0.390   6.607  -0.231  0.00  0.00    +0.023 A 
ATOM     14  C   UNL     1       1.585   6.026   0.174  0.00  0.00    +0.037 A 
BRANCH   9  16
ATOM     15  C   UNL     1       4.827   6.050  -0.091  0.00  0.00    +0.009 C 
ATOM     16  C   UNL     1       3.904   6.199   1.119  0.00  0.00    +0.033 C 
ENDBRANCH   9  16
ENDBRANCH   5  14
ENDBRANCH   1   6
BRANCH   3  17
ATOM     17  N   UNL     1       0.011   0.136   0.023  0.00  0.00    -0.187 NA
ATOM     18  C   UNL     1      -1.022  -0.659   0.030  0.00  0.00    +0.139 C 
BRANCH  18  19
ATOM     19  C   UNL     1      -0.829  -2.111   0.003  0.00  0.00    +0.010 A 
ATOM     20  C   UNL     1      -1.932  -2.980   0.137  0.00  0.00    -0.009 A 
ATOM     21  C   UNL     1      -3.236  -2.479   0.287  0.00  0.00    +0.009 A 
ATOM     22  C   UNL     1      -4.279  -3.345   0.407  0.00  0.00    +0.001 A 
ATOM     23  C   UNL     1      -4.090  -4.725   0.381  0.00  0.00    +0.001 A 
ATOM     24  C   UNL     1      -2.856  -5.273   0.233  0.00  0.00    +0.008 A 
ATOM     25  C   UNL     1      -1.731  -4.430   0.103  0.00  0.00    -0.017 A 
ATOM     26  C   UNL     1      -0.450  -4.961  -0.051  0.00  0.00    +0.017 A 
ATOM     27  C   UNL     1       0.648  -4.109  -0.179  0.00  0.00    -0.017 A 
ATOM     28  C   UNL     1       0.463  -2.656  -0.152  0.00  0.00    -0.009 A 
ATOM     29  C   UNL     1       1.590  -1.827  -0.284  0.00  0.00    +0.009 A 
ATOM     30  C   UNL     1       2.822  -2.385  -0.433  0.00  0.00    +0.001 A 
ATOM     31  C   UNL     1       3.000  -3.767  -0.458  0.00  0.00    +0.001 A 
ATOM     32  C   UNL     1       1.953  -4.623  -0.335  0.00  0.00    +0.008 A 
ENDBRANCH  18  19
ENDBRANCH   3  17
TORSDOF 5
