REMARK  Name = ZINC39686729
REMARK  13 active torsions:
REMARK  status: ('A' for Active; 'I' for Inactive)
REMARK    1  A    between atoms: C_1  and  C_2
REMARK    2  A    between atoms: C_2  and  C_4
REMARK    3  A    between atoms: C_2  and  N_13
REMARK    4  A    between atoms: C_4  and  C_5
REMARK    5  A    between atoms: C_10  and  O_11
REMARK    6  A    between atoms: O_11  and  C_12
REMARK    7  A    between atoms: C_14  and  C_16
REMARK    8  A    between atoms: C_27  and  C_29
REMARK    9  A    between atoms: C_29  and  C_31
REMARK   10  A    between atoms: C_29  and  O_34
REMARK   11  A    between atoms: C_31  and  C_32
REMARK   12  A    between atoms: C_31  and  C_33
REMARK   13  A    between atoms: O_34  and  C_35
REMARK                            x       y       z     vdW  Elec       q    Type
REMARK                         _______ _______ _______ _____ _____    ______ ____
ROOT
ATOM      1  C   UNL     1      -3.611  -0.978  -1.940  0.00  0.00    +0.100 C 
ATOM      2  C   UNL     1      -3.572  -2.362  -1.254  0.00  0.00    +0.121 C 
ATOM      3  N   UNL     1      -4.605  -3.158  -1.958  0.00  0.00    -0.297 N 
ATOM      4  C   UNL     1      -4.469  -2.762  -3.381  0.00  0.00    +0.115 C 
ATOM      5  C   UNL     1      -4.199  -1.245  -3.335  0.00  0.00    -0.004 C 
ATOM      6  C   UNL     1      -3.194  -0.855  -4.415  0.00  0.00    -0.010 C 
ATOM      7  C   UNL     1      -3.823  -1.075  -5.794  0.00  0.00    -0.082 C 
ATOM      8  N   UNL     1      -5.040  -0.262  -5.914  0.00  0.00    +0.379 N 
ATOM      9  C   UNL     1      -6.037  -0.706  -4.932  0.00  0.00    -0.082 C 
ATOM     10  C   UNL     1      -5.501  -0.471  -3.516  0.00  0.00    -0.010 C 
ATOM     11  C   UNL     1      -5.472  -4.041  -1.426  0.00  0.00    +0.257 C 
ATOM     12  O   UNL     1      -5.521  -4.194  -0.224  0.00  0.00    -0.272 OA
ATOM     13  H   UNL     1      -4.814   0.707  -5.747  0.00  0.00    -0.086 HD
ATOM     14  H   UNL     1      -5.419  -0.361  -6.844  0.00  0.00    -0.086 HD
ENDROOT
BRANCH   1  16
ATOM     15  N   UNL     1      -2.041   0.920  -2.169  0.00  0.00    -0.312 N 
ATOM     16  C   UNL     1      -2.219  -0.411  -2.056  0.00  0.00    +0.218 C 
ATOM     17  O   UNL     1      -1.260  -1.153  -2.049  0.00  0.00    -0.275 OA
ATOM     18  H   UNL     1      -2.809   1.513  -2.175  0.00  0.00    +0.149 HD
BRANCH  15  20
ATOM     19  C   UNL     1      -0.244   1.436  -3.746  0.00  0.00    +0.028 C 
ATOM     20  C   UNL     1      -0.689   1.471  -2.282  0.00  0.00    +0.074 C 
BRANCH  20  21
ATOM     21  C   UNL     1      -0.683   2.917  -1.783  0.00  0.00    +0.060 C 
BRANCH  21  22
ATOM     22  C   UNL     1      -1.001   2.941  -0.310  0.00  0.00    -0.004 A 
ATOM     23  C   UNL     1      -2.301   3.142   0.114  0.00  0.00    +0.007 A 
ATOM     24  C   UNL     1      -2.594   3.164   1.465  0.00  0.00    +0.000 A 
ATOM     25  C   UNL     1      -1.586   2.986   2.396  0.00  0.00    +0.004 A 
ATOM     26  C   UNL     1      -0.285   2.784   1.977  0.00  0.00    +0.046 A 
ATOM     27  C   UNL     1       0.010   2.756   0.622  0.00  0.00    +0.123 A 
BRANCH  27  28
ATOM     28  O   UNL     1       1.288   2.553   0.207  0.00  0.00    -0.495 OA
ATOM     29  C   UNL     1       2.277   2.370   1.222  0.00  0.00    +0.277 C 
ENDBRANCH  27  28
ENDBRANCH  21  22
ENDBRANCH  20  21
ENDBRANCH  15  20
ENDBRANCH   1  16
BRANCH  11  30
ATOM     30  C   UNL     1      -6.382  -4.839  -2.325  0.00  0.00    +0.261 C 
BRANCH  30  31
ATOM     31  C   UNL     1      -5.543  -5.769  -3.204  0.00  0.00    +0.033 C 
ATOM     32  C   UNL     1      -4.830  -6.797  -2.323  0.00  0.00    +0.011 C 
ATOM     33  C   UNL     1      -6.454  -6.493  -4.196  0.00  0.00    +0.011 C 
ENDBRANCH  30  31
BRANCH  30  34
ATOM     34  O   UNL     1      -7.277  -5.617  -1.528  0.00  0.00    -0.479 OA
BRANCH  34  35
ATOM     35  C   UNL     1      -8.542  -5.776  -1.997  0.00  0.00    +0.122 A 
ATOM     36  C   UNL     1      -9.468  -6.505  -1.266  0.00  0.00    +0.045 A 
ATOM     37  C   UNL     1     -10.754  -6.665  -1.745  0.00  0.00    +0.004 A 
ATOM     38  C   UNL     1     -11.118  -6.098  -2.953  0.00  0.00    +0.000 A 
ATOM     39  C   UNL     1     -10.197  -5.372  -3.684  0.00  0.00    +0.004 A 
ATOM     40  C   UNL     1      -8.911  -5.204  -3.206  0.00  0.00    +0.045 A 
ENDBRANCH  34  35
ENDBRANCH  30  34
ENDBRANCH  11  30
TORSDOF 9
