REMARK  Name = ZINC03654247
REMARK  3 active torsions:
REMARK  status: ('A' for Active; 'I' for Inactive)
REMARK    1  A    between atoms: C_4  and  S_7
REMARK    2  A    between atoms: S_7  and  N_10
REMARK    3  A    between atoms: C_12  and  C_20
REMARK                            x       y       z     vdW  Elec       q    Type
REMARK                         _______ _______ _______ _____ _____    ______ ____
ROOT
ATOM      1  N   UNL     1      -2.566   3.559   0.045  0.00  0.00    -0.217 N 
ATOM      2  C   UNL     1      -3.383   2.479   0.047  0.00  0.00    +0.126 A 
ATOM      3  C   UNL     1      -2.639   1.337   0.034  0.00  0.00    +0.064 A 
ATOM      4  C   UNL     1      -1.226   1.759   0.017  0.00  0.00    +0.014 A 
ATOM      5  C   UNL     1      -1.244   3.163   0.030  0.00  0.00    +0.074 A 
ATOM      6  C   UNL     1      -0.041   3.861   0.023  0.00  0.00    +0.048 A 
ATOM      7  C   UNL     1       1.154   3.172   0.008  0.00  0.00    +0.043 A 
ATOM      8  C   UNL     1       1.169   1.784   0.001  0.00  0.00    +0.021 A 
ATOM      9  C   UNL     1      -0.013   1.076   0.008  0.00  0.00    +0.012 A 
ATOM     10 CL   UNL     1       2.652   4.049  -0.002  0.00  0.00    -0.083 Cl
ENDROOT
BRANCH   3  11
ATOM     11  C   UNL     1      -3.144  -0.043   0.032  0.00  0.00    +0.244 C 
ATOM     12  O   UNL     1      -2.365  -0.977   0.020  0.00  0.00    -0.270 OA
ATOM     13  N   UNL     1      -4.472  -0.274   0.043  0.00  0.00    -0.325 N 
ATOM     14  H   UNL     1      -5.094   0.471   0.053  0.00  0.00    +0.145 HD
ATOM     15  H   UNL     1      -4.806  -1.184   0.042  0.00  0.00    +0.145 HD
ENDBRANCH   3  11
BRANCH   1  16
ATOM     16  S   UNL     1      -3.080   5.133   0.058  0.00  0.00    +0.084 S 
ATOM     17  O   UNL     1      -2.364   5.803  -0.972  0.00  0.00    -0.148 OA
ATOM     18  O   UNL     1      -4.500   5.097   0.098  0.00  0.00    -0.148 OA
BRANCH  16  22
ATOM     19  C   UNL     1      -1.720   6.955   3.972  0.00  0.00    +0.000 A 
ATOM     20  C   UNL     1      -0.901   7.016   2.860  0.00  0.00    +0.002 A 
ATOM     21  C   UNL     1      -1.316   6.460   1.665  0.00  0.00    +0.029 A 
ATOM     22  C   UNL     1      -2.550   5.842   1.581  0.00  0.00    +0.111 A 
ATOM     23  C   UNL     1      -3.372   5.786   2.692  0.00  0.00    +0.029 A 
ATOM     24  C   UNL     1      -2.954   6.338   3.889  0.00  0.00    +0.002 A 
ENDBRANCH  16  22
ENDBRANCH   1  16
TORSDOF 3
