REMARK  Name = ZINC39607818
REMARK  10 active torsions:
REMARK  status: ('A' for Active; 'I' for Inactive)
REMARK    1  A    between atoms: C_1  and  C_2
REMARK    2  A    between atoms: C_2  and  C_3
REMARK    3  A    between atoms: C_3  and  O_4
REMARK    4  A    between atoms: O_4  and  C_5
REMARK    5  A    between atoms: C_5  and  C_6
REMARK    6  A    between atoms: C_6  and  N_7
REMARK    7  A    between atoms: C_8  and  C_10
REMARK    8  A    between atoms: C_21  and  C_23
REMARK    9  A    between atoms: C_25  and  C_29
REMARK   10  A    between atoms: N_26  and  C_28
REMARK                            x       y       z     vdW  Elec       q    Type
REMARK                         _______ _______ _______ _____ _____    ______ ____
ROOT
ATOM      1  C   UNL     1      -1.047  -6.286   2.741  0.00  0.00    +0.100 C 
ATOM      2  C   UNL     1       0.424  -5.815   2.786  0.00  0.00    +0.121 C 
ATOM      3  N   UNL     1       1.156  -6.933   3.428  0.00  0.00    -0.295 N 
ATOM      4  C   UNL     1       0.532  -8.154   2.863  0.00  0.00    +0.115 C 
ATOM      5  C   UNL     1      -0.972  -7.822   2.792  0.00  0.00    -0.004 C 
ATOM      6  C   UNL     1      -1.688  -8.345   4.033  0.00  0.00    -0.010 C 
ATOM      7  C   UNL     1      -1.649  -9.876   4.031  0.00  0.00    -0.082 C 
ATOM      8  N   UNL     1      -2.299 -10.382   2.816  0.00  0.00    +0.379 N 
ATOM      9  C   UNL     1      -1.550  -9.950   1.630  0.00  0.00    -0.082 C 
ATOM     10  C   UNL     1      -1.584  -8.423   1.530  0.00  0.00    -0.010 C 
ATOM     11  C   UNL     1       2.161  -6.857   4.322  0.00  0.00    +0.267 C 
ATOM     12  O   UNL     1       2.663  -7.874   4.760  0.00  0.00    -0.268 OA
ATOM     13  H   UNL     1      -2.326 -11.390   2.846  0.00  0.00    -0.086 HD
ATOM     14  H   UNL     1      -3.241 -10.024   2.766  0.00  0.00    -0.086 HD
ENDROOT
BRANCH  11  15
ATOM     15  C   UNL     1       2.653  -5.538   4.770  0.00  0.00    +0.147 A 
ATOM     16  C   UNL     1       3.698  -5.298   5.694  0.00  0.00    +0.057 A 
ATOM     17  C   UNL     1       3.792  -3.952   5.792  0.00  0.00    +0.037 A 
ATOM     18  N   UNL     1       2.856  -3.425   4.973  0.00  0.00    -0.271 N 
ATOM     19  N   UNL     1       2.205  -4.361   4.382  0.00  0.00    -0.167 NA
ATOM     20  C   UNL     1       2.621  -1.991   4.783  0.00  0.00    +0.172 C 
ATOM     21  C   UNL     1       4.760  -3.184   6.654  0.00  0.00    +0.065 C 
ENDBRANCH  11  15
BRANCH   1  23
ATOM     22  N   UNL     1      -3.031  -5.608   1.430  0.00  0.00    -0.313 N 
ATOM     23  C   UNL     1      -1.703  -5.835   1.462  0.00  0.00    +0.218 C 
ATOM     24  O   UNL     1      -1.036  -5.676   0.462  0.00  0.00    -0.275 OA
ATOM     25  H   UNL     1      -3.565  -5.735   2.230  0.00  0.00    +0.149 HD
BRANCH  22  26
ATOM     26  C   UNL     1      -3.670  -5.169   0.187  0.00  0.00    +0.132 C 
BRANCH  26  27
ATOM     27  C   UNL     1      -5.170  -4.985   0.421  0.00  0.00    +0.178 C 
BRANCH  27  28
ATOM     28  O   UNL     1      -5.380  -3.920   1.350  0.00  0.00    -0.378 OA
BRANCH  28  29
ATOM     29  C   UNL     1      -6.756  -3.664   1.640  0.00  0.00    +0.159 C 
BRANCH  29  31
ATOM     30  C   UNL     1      -8.334  -2.237   2.951  0.00  0.00    +0.006 C 
ATOM     31  C   UNL     1      -6.861  -2.511   2.640  0.00  0.00    +0.025 C 
ENDBRANCH  29  31
ENDBRANCH  28  29
ENDBRANCH  27  28
ENDBRANCH  26  27
ENDBRANCH  22  26
ENDBRANCH   1  23
TORSDOF 7
