REMARK  Name = ZINC02997511
REMARK  11 active torsions:
REMARK  status: ('A' for Active; 'I' for Inactive)
REMARK    1  A    between atoms: C_6  and  S_7
REMARK    2  A    between atoms: S_7  and  N_10
REMARK    3  A    between atoms: N_10  and  C_11
REMARK    4  A    between atoms: C_11  and  C_12
REMARK    5  A    between atoms: C_12  and  O_13
REMARK    6  A    between atoms: N_15  and  N_16
REMARK    7  A    between atoms: C_21  and  S_23
REMARK    8  A    between atoms: S_23  and  N_26
REMARK    9  A    between atoms: N_26  and  C_27
REMARK   10  A    between atoms: C_27  and  C_28
REMARK   11  A    between atoms: C_28  and  O_29
REMARK                            x       y       z     vdW  Elec       q    Type
REMARK                         _______ _______ _______ _____ _____    ______ ____
ROOT
ATOM      1  C   UNL     1       0.070   1.284   1.098  0.00  0.00    +0.029 A 
ATOM      2  C   UNL     1       1.239   2.011   1.008  0.00  0.00    +0.011 A 
ATOM      3  C   UNL     1       2.439   1.367   0.708  0.00  0.00    -0.008 A 
ATOM      4  C   UNL     1       2.443  -0.024   0.501  0.00  0.00    +0.012 A 
ATOM      5  C   UNL     1       1.253  -0.742   0.596  0.00  0.00    +0.039 A 
ATOM      6  C   UNL     1       0.076  -0.086   0.893  0.00  0.00    +0.106 A 
ATOM      7  C   UNL     1       3.832  -0.433   0.204  0.00  0.00    +0.097 C 
ATOM      8  N   UNL     1       4.248  -1.648  -0.048  0.00  0.00    -0.189 NA
ATOM      9  C   UNL     1       4.662   0.789   0.245  0.00  0.00    +0.012 A 
ATOM     10  C   UNL     1       3.818   1.873   0.549  0.00  0.00    -0.008 A 
ATOM     11  C   UNL     1       4.358   3.154   0.648  0.00  0.00    +0.011 A 
ATOM     12  C   UNL     1       5.709   3.350   0.449  0.00  0.00    +0.029 A 
ATOM     13  C   UNL     1       6.539   2.282   0.149  0.00  0.00    +0.106 A 
ATOM     14  C   UNL     1       6.023   1.006   0.046  0.00  0.00    +0.039 A 
ENDROOT
BRANCH   6  15
ATOM     15  S   UNL     1      -1.428  -0.996   1.013  0.00  0.00    +0.058 S 
ATOM     16  O   UNL     1      -1.069  -2.337   1.317  0.00  0.00    -0.153 OA
ATOM     17  O   UNL     1      -2.299  -0.235   1.839  0.00  0.00    -0.153 OA
BRANCH  15  18
ATOM     18  N   UNL     1      -2.108  -1.020  -0.497  0.00  0.00    -0.188 NA
ATOM     19  H   UNL     1      -2.955  -0.574  -0.654  0.00  0.00    +0.148 HD
BRANCH  18  20
ATOM     20  C   UNL     1      -1.430  -1.713  -1.595  0.00  0.00    +0.133 C 
BRANCH  20  21
ATOM     21  C   UNL     1      -2.408  -1.911  -2.755  0.00  0.00    +0.172 C 
BRANCH  21  22
ATOM     22  O   UNL     1      -2.782  -0.638  -3.285  0.00  0.00    -0.394 OA
ATOM     23  H   UNL     1      -3.402  -0.687  -4.025  0.00  0.00    +0.209 HD
ENDBRANCH  21  22
ENDBRANCH  20  21
ENDBRANCH  18  20
ENDBRANCH  15  18
ENDBRANCH   6  15
BRANCH   8  24
ATOM     24  N   UNL     1       5.620  -1.908  -0.168  0.00  0.00    -0.282 N 
ATOM     25  H   UNL     1       6.264  -1.311   0.243  0.00  0.00    +0.164 HD
ATOM     26  H   UNL     1       5.924  -2.685  -0.662  0.00  0.00    +0.164 HD
ENDBRANCH   8  24
BRANCH  13  27
ATOM     27  S   UNL     1       8.261   2.554  -0.104  0.00  0.00    +0.058 S 
ATOM     28  O   UNL     1       8.728   1.480  -0.908  0.00  0.00    -0.153 OA
ATOM     29  O   UNL     1       8.405   3.914  -0.491  0.00  0.00    -0.153 OA
BRANCH  27  30
ATOM     30  N   UNL     1       9.002   2.400   1.369  0.00  0.00    -0.188 NA
ATOM     31  H   UNL     1       9.435   3.167   1.777  0.00  0.00    +0.148 HD
BRANCH  30  32
ATOM     32  C   UNL     1       9.005   1.106   2.056  0.00  0.00    +0.133 C 
BRANCH  32  33
ATOM     33  C   UNL     1      10.044   1.127   3.178  0.00  0.00    +0.172 C 
BRANCH  33  34
ATOM     34  O   UNL     1       9.656   2.080   4.170  0.00  0.00    -0.394 OA
ATOM     35  H   UNL     1      10.271   2.147   4.913  0.00  0.00    +0.209 HD
ENDBRANCH  33  34
ENDBRANCH  32  33
ENDBRANCH  30  32
ENDBRANCH  27  30
ENDBRANCH  13  27
TORSDOF 11
