REMARK  Name = ZINC37622733
REMARK  4 active torsions:
REMARK  status: ('A' for Active; 'I' for Inactive)
REMARK    1  A    between atoms: C_10  and  C_12
REMARK    2  A    between atoms: C_12  and  C_14
REMARK    3  A    between atoms: C_12  and  N_18
REMARK    4  A    between atoms: C_14  and  C_15
REMARK                            x       y       z     vdW  Elec       q    Type
REMARK                         _______ _______ _______ _____ _____    ______ ____
ROOT
ATOM      1  C   UNL     1      -0.017   1.390   0.010  0.00  0.00    +0.013 A 
ATOM      2  C   UNL     1       1.145   2.082   0.002  0.00  0.00    +0.046 A 
ATOM      3  S   UNL     1       2.356   0.769  -0.017  0.00  0.00    -0.101 S 
ATOM      4  C   UNL     1       1.226  -0.598  -0.017  0.00  0.00    -0.004 A 
ATOM      5  C   UNL     1       0.002  -0.004   0.002  0.00  0.00    -0.020 A 
ATOM      6  C   UNL     1      -1.264  -0.858   0.019  0.00  0.00    +0.143 C 
ATOM      7  N   UNL     1      -0.879  -2.239  -0.305  0.00  0.00    -0.298 N 
ATOM      8  C   UNL     1       0.278  -2.837   0.378  0.00  0.00    +0.113 C 
ATOM      9  C   UNL     1       1.537  -2.060  -0.036  0.00  0.00    +0.061 C 
ATOM     10  C   UNL     1      -1.577  -2.947  -1.215  0.00  0.00    +0.202 C 
ATOM     11  O   UNL     1      -1.251  -4.086  -1.476  0.00  0.00    -0.277 OA
ENDROOT
BRANCH  10  12
ATOM     12  C   UNL     1      -2.761  -2.324  -1.909  0.00  0.00    +0.022 C 
BRANCH  12  13
ATOM     13  N   UNL     1      -3.048  -3.062  -3.146  0.00  0.00    +0.386 N 
ATOM     14  H   UNL     1      -3.841  -2.645  -3.610  0.00  0.00    -0.089 HD
ATOM     15  H   UNL     1      -2.244  -3.024  -3.754  0.00  0.00    -0.089 HD
ATOM     16  H   UNL     1      -3.257  -4.024  -2.923  0.00  0.00    -0.089 HD
ENDBRANCH  12  13
BRANCH  12  17
ATOM     17  C   UNL     1      -3.980  -2.381  -0.986  0.00  0.00    +0.088 C 
BRANCH  17  18
ATOM     18  C   UNL     1      -5.131  -1.650  -1.628  0.00  0.00    +0.209 C 
ATOM     19  O   UNL     1      -4.990  -1.134  -2.716  0.00  0.00    -0.276 OA
ATOM     20  N   UNL     1      -6.317  -1.569  -0.993  0.00  0.00    -0.329 N 
ATOM     21  H   UNL     1      -6.430  -1.982  -0.122  0.00  0.00    +0.145 HD
ATOM     22  H   UNL     1      -7.057  -1.099  -1.406  0.00  0.00    +0.145 HD
ENDBRANCH  17  18
ENDBRANCH  12  17
ENDBRANCH  10  12
TORSDOF 4
