REMARK  Name = ZINC37629118
REMARK  5 active torsions:
REMARK  status: ('A' for Active; 'I' for Inactive)
REMARK    1  A    between atoms: C_10  and  N_11
REMARK    2  A    between atoms: C_12  and  C_14
REMARK    3  A    between atoms: C_14  and  N_15
REMARK    4  A    between atoms: C_16  and  C_18
REMARK    5  A    between atoms: C_18  and  N_19
REMARK                            x       y       z     vdW  Elec       q    Type
REMARK                         _______ _______ _______ _____ _____    ______ ____
ROOT
ATOM      1  N   UNL     1       2.913  -1.940  -0.036  0.00  0.00    -0.311 N 
ATOM      2  C   UNL     1       3.872  -2.597  -0.718  0.00  0.00    +0.230 C 
ATOM      3  O   UNL     1       4.718  -1.976  -1.326  0.00  0.00    -0.274 OA
ATOM      4  H   UNL     1       2.237  -2.437   0.450  0.00  0.00    +0.149 HD
ENDROOT
BRANCH   1  14
ATOM      5  C   UNL     1      -0.019   1.526   0.010  0.00  0.00    +0.007 C 
ATOM      6  C   UNL     1       1.417   2.055  -0.000  0.00  0.00    -0.010 C 
ATOM      7  C   UNL     1       2.157   1.548   1.239  0.00  0.00    +0.009 C 
ATOM      8  C   UNL     1       2.178   0.019   1.231  0.00  0.00    +0.010 C 
ATOM      9  C   UNL     1       0.742  -0.511   1.242  0.00  0.00    +0.009 C 
ATOM     10  C   UNL     1       0.002  -0.004   0.002  0.00  0.00    -0.010 C 
ATOM     11  C   UNL     1       0.718  -0.497  -1.257  0.00  0.00    +0.009 C 
ATOM     12  C   UNL     1       2.154   0.032  -1.268  0.00  0.00    +0.010 C 
ATOM     13  C   UNL     1       2.133   1.562  -1.259  0.00  0.00    +0.009 C 
ATOM     14  C   UNL     1       2.894  -0.475  -0.028  0.00  0.00    +0.079 C 
ENDBRANCH   1  14
BRANCH   2  15
ATOM     15  C   UNL     1       3.893  -4.104  -0.727  0.00  0.00    +0.200 C 
BRANCH  15  16
ATOM     16  N   UNL     1       5.023  -4.572  -1.532  0.00  0.00    -0.308 N 
ATOM     17  C   UNL     1       5.241  -5.894  -1.683  0.00  0.00    +0.196 C 
ATOM     18  O   UNL     1       4.502  -6.695  -1.151  0.00  0.00    -0.278 OA
ATOM     19  H   UNL     1       5.614  -3.932  -1.957  0.00  0.00    +0.149 HD
BRANCH  17  20
ATOM     20  C   UNL     1       6.404  -6.376  -2.511  0.00  0.00    +0.011 C 
BRANCH  20  21
ATOM     21  N   UNL     1       6.424  -7.845  -2.519  0.00  0.00    +0.384 N 
ATOM     22  H   UNL     1       5.563  -8.190  -2.915  0.00  0.00    -0.089 HD
ATOM     23  H   UNL     1       7.202  -8.167  -3.074  0.00  0.00    -0.089 HD
ATOM     24  H   UNL     1       6.520  -8.185  -1.575  0.00  0.00    -0.089 HD
ENDBRANCH  20  21
ENDBRANCH  17  20
ENDBRANCH  15  16
ENDBRANCH   2  15
TORSDOF 5
