REMARK  Name = ZINC42272418
REMARK  4 active torsions:
REMARK  status: ('A' for Active; 'I' for Inactive)
REMARK    1  A    between atoms: C_4  and  N_20
REMARK    2  A    between atoms: C_6  and  S_7
REMARK    3  A    between atoms: S_7  and  N_10
REMARK    4  A    between atoms: C_15  and  C_17
REMARK                            x       y       z     vdW  Elec       q    Type
REMARK                         _______ _______ _______ _____ _____    ______ ____
ROOT
ATOM      1  S   UNL     1      -2.491  -1.691   0.096  0.00  0.00    +0.062 S 
ATOM      2  O   UNL     1      -2.981  -0.447   0.576  0.00  0.00    -0.153 OA
ATOM      3  O   UNL     1      -1.238  -2.224   0.502  0.00  0.00    -0.153 OA
ENDROOT
BRANCH   1   9
ATOM      4  C   UNL     1      -3.344  -4.229   0.621  0.00  0.00    +0.030 A 
ATOM      5  C   UNL     1      -4.295  -5.183   0.938  0.00  0.00    +0.024 A 
ATOM      6  C   UNL     1      -5.611  -4.809   1.133  0.00  0.00    +0.062 A 
ATOM      7  C   UNL     1      -5.978  -3.474   1.011  0.00  0.00    +0.045 A 
ATOM      8  C   UNL     1      -5.021  -2.521   0.693  0.00  0.00    +0.052 A 
ATOM      9  C   UNL     1      -3.707  -2.901   0.499  0.00  0.00    +0.107 A 
ATOM     10 CL   UNL     1      -6.804  -6.006   1.530  0.00  0.00    -0.082 Cl
BRANCH   7  11
ATOM     11  N   UNL     1      -7.308  -3.093   1.207  0.00  0.00    -0.357 N 
ATOM     12  H   UNL     1      -7.977  -3.760   1.429  0.00  0.00    +0.142 HD
ATOM     13  H   UNL     1      -7.563  -2.161   1.122  0.00  0.00    +0.142 HD
ENDBRANCH   7  11
ENDBRANCH   1   9
BRANCH   1  14
ATOM     14  N   UNL     1      -2.443  -1.576  -1.555  0.00  0.00    -0.165 NA
ATOM     15  C   UNL     1      -3.428  -0.758  -2.277  0.00  0.00    +0.110 C 
ATOM     16  C   UNL     1      -4.095  -1.623  -3.352  0.00  0.00    +0.017 C 
ATOM     17  C   UNL     1      -3.016  -2.242  -4.244  0.00  0.00    +0.003 C 
ATOM     18  C   UNL     1      -2.105  -3.136  -3.400  0.00  0.00    +0.030 C 
ATOM     19  C   UNL     1      -1.413  -2.284  -2.326  0.00  0.00    +0.165 C 
BRANCH  19  20
ATOM     20  C   UNL     1      -0.618  -3.175  -1.407  0.00  0.00    +0.229 C 
ATOM     21  O   UNL     1      -1.143  -4.140  -0.893  0.00  0.00    -0.274 OA
ATOM     22  N   UNL     1       0.678  -2.900  -1.156  0.00  0.00    -0.328 N 
ATOM     23  H   UNL     1       1.098  -2.128  -1.567  0.00  0.00    +0.145 HD
ATOM     24  H   UNL     1       1.190  -3.473  -0.564  0.00  0.00    +0.145 HD
ENDBRANCH  19  20
ENDBRANCH   1  14
TORSDOF 4
