REMARK  Name = ZINC07267959
REMARK  15 active torsions:
REMARK  status: ('A' for Active; 'I' for Inactive)
REMARK    1  A    between atoms: C_1  and  C_2
REMARK    2  A    between atoms: C_6  and  N_9
REMARK    3  A    between atoms: C_7  and  C_8
REMARK    4  A    between atoms: C_10  and  C_12
REMARK    5  A    between atoms: C_12  and  N_58
REMARK    6  A    between atoms: C_13  and  N_58
REMARK    7  A    between atoms: C_14  and  C_16
REMARK    8  A    between atoms: C_14  and  C_17
REMARK    9  A    between atoms: C_14  and  N_58
REMARK   10  A    between atoms: C_17  and  C_19
REMARK   11  A    between atoms: C_20  and  C_30
REMARK   12  A    between atoms: C_21  and  C_26
REMARK   13  A    between atoms: C_22  and  C_25
REMARK   14  A    between atoms: C_26  and  O_28
REMARK   15  A    between atoms: O_28  and  C_29
REMARK                            x       y       z     vdW  Elec       q    Type
REMARK                         _______ _______ _______ _____ _____    ______ ____
ROOT
ATOM      1  C   UNL     1       1.711   2.038   4.174  0.00  0.00    +0.003 C 
ATOM      2  C   UNL     1       1.727   3.558   4.350  0.00  0.00    -0.005 C 
ENDROOT
BRANCH   1   4
ATOM      3  C   UNL     1       4.023   2.191   3.474  0.00  0.00    -0.095 C 
ATOM      4  N   UNL     1       3.069   1.482   4.351  0.00  0.00    +0.390 N 
ATOM      5  H   UNL     1       3.057   0.487   4.096  0.00  0.00    -0.081 HD
BRANCH   4   6
ATOM      6  C   UNL     1       3.488   1.611   5.763  0.00  0.00    +0.019 C 
BRANCH   6   8
ATOM      7  N   UNL     1       5.346   0.798   7.179  0.00  0.00    -0.287 N 
ATOM      8  C   UNL     1       4.771   0.845   5.961  0.00  0.00    +0.201 C 
ATOM      9  O   UNL     1       5.285   0.271   5.025  0.00  0.00    -0.278 OA
ATOM     10  H   UNL     1       4.979   1.322   7.909  0.00  0.00    +0.155 HD
BRANCH   7  16
ATOM     11  C   UNL     1       9.438  -0.168   9.727  0.00  0.00    +0.044 C 
ATOM     12  C   UNL     1       8.472  -0.497   8.618  0.00  0.00    -0.046 A 
ATOM     13  C   UNL     1       8.697  -1.595   7.809  0.00  0.00    +0.004 A 
ATOM     14  C   UNL     1       7.813  -1.900   6.791  0.00  0.00    +0.002 A 
ATOM     15  C   UNL     1       6.701  -1.109   6.580  0.00  0.00    +0.023 A 
ATOM     16  C   UNL     1       6.471  -0.005   7.391  0.00  0.00    +0.036 A 
ATOM     17  C   UNL     1       7.365   0.302   8.408  0.00  0.00    -0.026 A 
ATOM     18  C   UNL     1       7.123   1.502   9.287  0.00  0.00    +0.046 C 
ENDBRANCH   7  16
ENDBRANCH   6   8
ENDBRANCH   4   6
ENDBRANCH   1   4
BRANCH   1  19
ATOM     19  C   UNL     1       1.222   1.697   2.790  0.00  0.00    +0.166 C 
ATOM     20  O   UNL     1       2.009   1.325   1.943  0.00  0.00    -0.292 OA
BRANCH  19  21
ATOM     21  C   UNL     1      -0.153   1.812   2.477  0.00  0.00    +0.084 A 
ATOM     22  C   UNL     1      -0.732   1.534   1.257  0.00  0.00    -0.008 A 
ATOM     23  C   UNL     1      -2.113   1.790   1.392  0.00  0.00    +0.083 A 
ATOM     24  C   UNL     1      -2.326   2.207   2.695  0.00  0.00    +0.028 A 
ATOM     25  N   UNL     1      -1.150   2.221   3.339  0.00  0.00    -0.355 N 
ATOM     26  H   UNL     1      -1.020   2.479   4.265  0.00  0.00    +0.166 HD
ATOM     27  C   UNL     1      -3.658   2.587   3.289  0.00  0.00    +0.064 C 
ATOM     28  C   UNL     1      -0.024   1.056   0.015  0.00  0.00    +0.047 C 
BRANCH  23  29
ATOM     29  C   UNL     1      -3.137   1.639   0.344  0.00  0.00    +0.341 C 
ATOM     30  O   UNL     1      -3.715   0.579   0.208  0.00  0.00    -0.245 OA
BRANCH  29  31
ATOM     31  O   UNL     1      -3.432   2.676  -0.464  0.00  0.00    -0.464 OA
ATOM     32  C   UNL     1      -4.451   2.456  -1.474  0.00  0.00    +0.280 C 
ENDBRANCH  29  31
ENDBRANCH  23  29
ENDBRANCH  19  21
ENDBRANCH   1  19
TORSDOF 8
