REMARK  Name = ZINC39886344
REMARK  4 active torsions:
REMARK  status: ('A' for Active; 'I' for Inactive)
REMARK    1  A    between atoms: C_6  and  C_7
REMARK    2  A    between atoms: C_7  and  C_9
REMARK    3  A    between atoms: C_9  and  C_10
REMARK    4  A    between atoms: N_16  and  N_17
REMARK                            x       y       z     vdW  Elec       q    Type
REMARK                         _______ _______ _______ _____ _____    ______ ____
ROOT
ATOM      1  C   UNL     1      -3.721  -1.051   0.022  0.00  0.00    +0.147 C 
ATOM      2  C   UNL     1      -5.074  -0.357   0.005  0.00  0.00    +0.232 C 
ATOM      3  O   UNL     1      -5.422   0.353  -0.914  0.00  0.00    -0.274 OA
ATOM      4  N   UNL     1      -5.847  -0.576   1.055  0.00  0.00    -0.263 N 
ATOM      5  C   UNL     1      -5.457  -1.385   2.105  0.00  0.00    +0.183 C 
ATOM      6  N   UNL     1      -6.127  -1.680   3.193  0.00  0.00    -0.125 NA
ATOM      7  S   UNL     1      -3.823  -1.937   1.632  0.00  0.00    -0.075 S 
ATOM      8  H   UNL     1      -6.720  -0.155   1.089  0.00  0.00    +0.157 HD
ENDROOT
BRANCH   6   9
ATOM      9  N   UNL     1      -7.408  -1.148   3.392  0.00  0.00    -0.136 NA
ATOM     10  C   UNL     1      -8.073  -1.440   4.471  0.00  0.00    +0.123 C 
ATOM     11  C   UNL     1      -7.438  -2.348   5.491  0.00  0.00    +0.084 C 
ATOM     12  C   UNL     1      -8.417  -3.490   5.806  0.00  0.00    +0.084 C 
ATOM     13  S   UNL     1      -9.909  -2.754   6.541  0.00  0.00    -0.102 S 
ATOM     14  C   UNL     1     -10.251  -1.388   5.479  0.00  0.00    +0.112 C 
ATOM     15  S   UNL     1     -11.798  -0.658   5.527  0.00  0.00    -0.028 S 
ATOM     16  N   UNL     1      -9.326  -0.905   4.641  0.00  0.00    -0.290 N 
ATOM     17  H   UNL     1      -9.558  -0.125   4.114  0.00  0.00    +0.154 HD
ENDBRANCH   6   9
BRANCH   1  18
ATOM     18  C   UNL     1      -2.577  -0.035   0.019  0.00  0.00    +0.103 C 
BRANCH  18  19
ATOM     19  C   UNL     1      -1.258  -0.764   0.006  0.00  0.00    +0.165 C 
ATOM     20  O   UNL     1      -1.236  -1.976  -0.000  0.00  0.00    -0.292 OA
BRANCH  19  26
ATOM     21  C   UNL     1      -0.017   1.394   0.010  0.00  0.00    +0.011 A 
ATOM     22  C   UNL     1       1.170   2.090   0.002  0.00  0.00    +0.004 A 
ATOM     23  C   UNL     1       2.389   1.419  -0.012  0.00  0.00    -0.044 A 
ATOM     24  C   UNL     1       2.415   0.040  -0.014  0.00  0.00    -0.044 A 
ATOM     25  C   UNL     1       1.227  -0.673  -0.010  0.00  0.00    +0.015 A 
ATOM     26  C   UNL     1       0.002  -0.004   0.002  0.00  0.00    +0.018 A 
ATOM     27  C   UNL     1       3.701  -0.746  -0.012  0.00  0.00    +0.035 C 
ATOM     28  C   UNL     1       4.870   0.136  -0.445  0.00  0.00    +0.005 C 
ATOM     29  C   UNL     1       4.849   1.416   0.398  0.00  0.00    +0.005 C 
ATOM     30  C   UNL     1       3.644   2.252  -0.027  0.00  0.00    +0.035 C 
ENDBRANCH  19  26
ENDBRANCH  18  19
ENDBRANCH   1  18
TORSDOF 4
