REMARK  Name = ZINC31168901
REMARK  16 active torsions:
REMARK  status: ('A' for Active; 'I' for Inactive)
REMARK    1  A    between atoms: C_1  and  C_2
REMARK    2  A    between atoms: C_3  and  C_4
REMARK    3  A    between atoms: C_3  and  C_5
REMARK    4  A    between atoms: C_5  and  O_7
REMARK    5  A    between atoms: O_7  and  C_8
REMARK    6  A    between atoms: C_10  and  O_40
REMARK    7  A    between atoms: C_12  and  O_39
REMARK    8  A    between atoms: C_14  and  C_38
REMARK    9  A    between atoms: C_17  and  O_19
REMARK   10  A    between atoms: O_19  and  C_20
REMARK   11  A    between atoms: C_20  and  C_37
REMARK   12  A    between atoms: C_23  and  O_36
REMARK   13  A    between atoms: C_25  and  C_35
REMARK   14  A    between atoms: C_29  and  C_32
REMARK   15  A    between atoms: C_32  and  C_33
REMARK   16  A    between atoms: C_32  and  C_34
REMARK                            x       y       z     vdW  Elec       q    Type
REMARK                         _______ _______ _______ _____ _____    ______ ____
ROOT
ATOM      1  C   UNL     1      -0.272  -0.160   0.596  0.00  0.00    +0.263 C 
ATOM      2  C   UNL     1       0.756  -0.815  -0.332  0.00  0.00    +0.191 C 
ATOM      3  C   UNL     1       2.161  -0.373   0.088  0.00  0.00    +0.175 C 
ATOM      4  C   UNL     1       2.239   1.155   0.054  0.00  0.00    +0.149 C 
ATOM      5  O   UNL     1       1.237   1.701   0.914  0.00  0.00    -0.342 OA
ATOM      6  C   UNL     1      -0.100   1.361   0.542  0.00  0.00    +0.295 C 
ATOM      7  C   UNL     1       2.006   1.646  -1.377  0.00  0.00    +0.041 C 
ENDROOT
BRANCH   3   8
ATOM      8  O   UNL     1       3.124  -0.920  -0.815  0.00  0.00    -0.387 OA
ATOM      9  H   UNL     1       4.194  -0.710  -0.672  0.00  0.00    +0.210 HD
ENDBRANCH   3   8
BRANCH   2  10
ATOM     10  O   UNL     1       0.510  -0.409  -1.680  0.00  0.00    -0.385 OA
ATOM     11  H   UNL     1       1.152  -0.781  -2.492  0.00  0.00    +0.210 HD
ENDBRANCH   2  10
BRANCH   1  12
ATOM     12  O   UNL     1      -1.612  -0.513   0.162  0.00  0.00    -0.450 OA
BRANCH  12  13
ATOM     13  C   UNL     1      -2.154  -1.626   0.694  0.00  0.00    +0.335 C 
ATOM     14  O   UNL     1      -1.525  -2.283   1.500  0.00  0.00    -0.245 OA
BRANCH  13  17
ATOM     15  C   UNL     1      -3.262  -3.958   1.826  0.00  0.00    +0.036 C 
ATOM     16  C   UNL     1      -4.043  -3.143   0.828  0.00  0.00    -0.020 C 
ATOM     17  C   UNL     1      -3.507  -2.044   0.301  0.00  0.00    +0.029 C 
ATOM     18  C   UNL     1      -4.288  -1.229  -0.697  0.00  0.00    +0.051 C 
ENDBRANCH  13  17
ENDBRANCH  12  13
ENDBRANCH   1  12
BRANCH   6  19
ATOM     19  O   UNL     1      -1.018   1.976   1.447  0.00  0.00    -0.341 OA
BRANCH  19  20
ATOM     20  C   UNL     1      -1.177   3.404   1.247  0.00  0.00    +0.074 C 
ATOM     21  C   UNL     1      -1.737   3.595  -0.156  0.00  0.00    +0.037 C 
ATOM     22  C   UNL     1      -2.234   5.014  -0.395  0.00  0.00    +0.035 C 
ATOM     23  C   UNL     1      -3.295   5.383   0.641  0.00  0.00    +0.121 C 
ATOM     24  C   UNL     1      -2.714   5.279   2.045  0.00  0.00    +0.003 C 
ATOM     25  C   UNL     1      -2.143   3.902   2.325  0.00  0.00    +0.033 C 
ATOM     26  C   UNL     1      -3.242   2.836   2.422  0.00  0.00    +0.037 C 
ATOM     27  C   UNL     1      -4.475   3.315   3.110  0.00  0.00    -0.070 C 
ATOM     28  C   UNL     1      -4.714   4.553   3.394  0.00  0.00    -0.027 C 
ATOM     29  C   UNL     1      -3.772   5.665   3.084  0.00  0.00    +0.036 C 
ATOM     30  C   UNL     1      -1.617   6.358   2.190  0.00  0.00    +0.014 C 
ATOM     31  C   UNL     1       0.214   4.018   1.373  0.00  0.00    +0.042 C 
BRANCH  27  32
ATOM     32  C   UNL     1      -5.518   2.294   3.493  0.00  0.00    +0.008 C 
ATOM     33  C   UNL     1      -6.011   1.573   2.237  0.00  0.00    +0.012 C 
ATOM     34  C   UNL     1      -4.905   1.277   4.458  0.00  0.00    +0.012 C 
ENDBRANCH  27  32
BRANCH  23  35
ATOM     35  O   UNL     1      -4.430   4.529   0.498  0.00  0.00    -0.391 OA
ATOM     36  H   UNL     1      -5.297   4.651   1.163  0.00  0.00    +0.210 HD
ENDBRANCH  23  35
ENDBRANCH  19  20
ENDBRANCH   6  19
TORSDOF 9
