REMARK  Name = ZINC13116054
REMARK  4 active torsions:
REMARK  status: ('A' for Active; 'I' for Inactive)
REMARK    1  A    between atoms: C_1  and  C_2
REMARK    2  A    between atoms: C_2  and  C_26
REMARK    3  A    between atoms: C_6  and  C_18
REMARK    4  A    between atoms: C_9  and  C_10
REMARK                            x       y       z     vdW  Elec       q    Type
REMARK                         _______ _______ _______ _____ _____    ______ ____
ROOT
ATOM      1  C   UNL     1       0.257   0.883  -0.010  0.00  0.00    +0.041 C 
ATOM      2  C   UNL     1       0.064  -0.628   0.128  0.00  0.00    +0.068 C 
ATOM      3  C   UNL     1      -1.431  -0.956   0.151  0.00  0.00    +0.071 C 
ATOM      4  C   UNL     1      -2.033  -0.489   1.449  0.00  0.00    -0.022 A 
ATOM      5  C   UNL     1      -1.251  -0.188   2.540  0.00  0.00    +0.008 A 
ATOM      6  C   UNL     1      -1.865   0.236   3.722  0.00  0.00    +0.079 A 
ATOM      7  N   UNL     1      -3.183   0.355   3.804  0.00  0.00    -0.231 NA
ATOM      8  C   UNL     1      -3.971   0.080   2.779  0.00  0.00    +0.134 A 
ATOM      9  C   UNL     1      -3.424  -0.354   1.558  0.00  0.00    +0.080 A 
ATOM     10  N   UNL     1      -5.341   0.219   2.908  0.00  0.00    -0.315 N 
ATOM     11  C   UNL     1      -6.332  -0.056   1.857  0.00  0.00    +0.106 C 
ATOM     12  C   UNL     1      -7.723   0.264   2.445  0.00  0.00    +0.020 C 
ATOM     13  C   UNL     1      -7.394   1.239   3.606  0.00  0.00    +0.020 C 
ATOM     14  C   UNL     1      -6.049   0.662   4.122  0.00  0.00    +0.106 C 
ATOM     15  C   UNL     1       0.249  -0.299   2.486  0.00  0.00    +0.198 C 
ATOM     16  O   UNL     1       0.646  -1.078   1.357  0.00  0.00    -0.369 OA
ATOM     17  C   UNL     1       0.733  -1.342  -1.048  0.00  0.00    +0.041 C 
ENDROOT
BRANCH   6  18
ATOM     18  C   UNL     1      -1.028   0.557   4.903  0.00  0.00    +0.001 A 
ATOM     19  C   UNL     1       0.122   1.331   4.756  0.00  0.00    +0.010 A 
ATOM     20  C   UNL     1       0.897   1.627   5.859  0.00  0.00    +0.001 A 
ATOM     21  C   UNL     1       0.533   1.158   7.109  0.00  0.00    +0.000 A 
ATOM     22  C   UNL     1      -0.607   0.390   7.261  0.00  0.00    +0.001 A 
ATOM     23  C   UNL     1      -1.392   0.092   6.166  0.00  0.00    +0.010 A 
ENDBRANCH   6  18
BRANCH   9  24
ATOM     24  C   UNL     1      -4.298  -0.663   0.414  0.00  0.00    +0.245 C 
ATOM     25  O   UNL     1      -4.730  -1.790   0.265  0.00  0.00    -0.270 OA
ATOM     26  N   UNL     1      -4.619   0.304  -0.469  0.00  0.00    -0.325 N 
ATOM     27  H   UNL     1      -4.274   1.203  -0.350  0.00  0.00    +0.145 HD
ATOM     28  H   UNL     1      -5.195   0.101  -1.222  0.00  0.00    +0.145 HD
ENDBRANCH   9  24
TORSDOF 2
