REMARK  Name = ZINC27126971
REMARK  9 active torsions:
REMARK  status: ('A' for Active; 'I' for Inactive)
REMARK    1  A    between atoms: C_1  and  C_2
REMARK    2  A    between atoms: C_2  and  C_3
REMARK    3  A    between atoms: C_3  and  C_5
REMARK    4  A    between atoms: C_3  and  C_6
REMARK    5  A    between atoms: C_6  and  C_8
REMARK    6  A    between atoms: C_6  and  N_26
REMARK    7  A    between atoms: N_13  and  C_16
REMARK    8  A    between atoms: C_16  and  C_17
REMARK    9  A    between atoms: N_19  and  C_20
REMARK                            x       y       z     vdW  Elec       q    Type
REMARK                         _______ _______ _______ _____ _____    ______ ____
ROOT
ATOM      1  C   UNL     1      -5.340  -4.896   2.126  0.00  0.00    +0.236 C 
ATOM      2  O   UNL     1      -5.381  -6.076   1.850  0.00  0.00    -0.274 OA
ATOM      3  N   UNL     1      -4.598  -4.055   1.378  0.00  0.00    -0.303 N 
ATOM      4  C   UNL     1      -3.831  -4.548   0.224  0.00  0.00    +0.089 C 
ATOM      5  C   UNL     1      -2.386  -4.055   0.353  0.00  0.00    -0.059 C 
ATOM      6  N   UNL     1      -2.383  -2.596   0.524  0.00  0.00    +0.387 N 
ATOM      7  C   UNL     1      -3.060  -2.204   1.766  0.00  0.00    -0.059 C 
ATOM      8  C   UNL     1      -4.533  -2.620   1.695  0.00  0.00    +0.089 C 
ATOM      9  H   UNL     1      -2.945  -2.160  -0.316  0.00  0.00    -0.081 HD
ENDROOT
BRANCH   1  10
ATOM     10  C   UNL     1      -6.117  -4.370   3.304  0.00  0.00    +0.163 C 
BRANCH  10  11
ATOM     11  N   UNL     1      -7.180  -5.317   3.651  0.00  0.00    -0.288 N 
ATOM     12  C   UNL     1      -8.329  -5.328   2.948  0.00  0.00    +0.298 C 
ATOM     13  O   UNL     1      -8.450  -4.615   1.970  0.00  0.00    -0.253 OA
ATOM     14  N   UNL     1      -9.345  -6.128   3.328  0.00  0.00    -0.313 N 
ATOM     15  H   UNL     1      -7.039  -6.020   4.485  0.00  0.00    +0.151 HD
ATOM     16  H   UNL     1     -10.283  -6.136   2.754  0.00  0.00    +0.146 HD
ATOM     17  H   UNL     1      -9.235  -6.772   4.213  0.00  0.00    +0.146 HD
ENDBRANCH  10  11
BRANCH  10  18
ATOM     18  C   UNL     1      -5.178  -4.197   4.499  0.00  0.00    +0.015 C 
ATOM     19  C   UNL     1      -4.647  -5.565   4.933  0.00  0.00    +0.010 C 
BRANCH  18  21
ATOM     20  C   UNL     1      -4.974  -3.268   6.810  0.00  0.00    +0.004 C 
ATOM     21  C   UNL     1      -5.941  -3.555   5.660  0.00  0.00    +0.002 C 
ENDBRANCH  18  21
ENDBRANCH  10  18
ENDBRANCH   1  10
BRANCH   6  22
ATOM     22  C   UNL     1      -1.014  -2.064   0.479  0.00  0.00    +0.019 C 
BRANCH  22  23
ATOM     23  C   UNL     1      -1.062  -0.559   0.410  0.00  0.00    +0.201 C 
ATOM     24  O   UNL     1      -2.131   0.013   0.399  0.00  0.00    -0.278 OA
ATOM     25  N   UNL     1       0.083   0.150   0.361  0.00  0.00    -0.287 N 
ATOM     26  H   UNL     1       1.050  -0.370   0.298  0.00  0.00    +0.155 HD
BRANCH  25  27
ATOM     27  C   UNL     1       0.041   1.548   0.389  0.00  0.00    +0.033 A 
ATOM     28  C   UNL     1      -0.996   2.227  -0.239  0.00  0.00    +0.023 A 
ATOM     29  C   UNL     1      -1.036   3.607  -0.205  0.00  0.00    +0.002 A 
ATOM     30  C   UNL     1      -0.041   4.314   0.444  0.00  0.00    +0.000 A 
ATOM     31  C   UNL     1       0.996   3.641   1.065  0.00  0.00    +0.002 A 
ATOM     32  C   UNL     1       1.039   2.261   1.040  0.00  0.00    +0.023 A 
ENDBRANCH  25  27
ENDBRANCH  22  23
ENDBRANCH   6  22
TORSDOF 7
