REMARK  Name = ZINC66317859
REMARK  7 active torsions:
REMARK  status: ('A' for Active; 'I' for Inactive)
REMARK    1  A    between atoms: C_1  and  C_2
REMARK    2  A    between atoms: C_6  and  C_21
REMARK    3  A    between atoms: C_10  and  C_12
REMARK    4  A    between atoms: C_12  and  N_13
REMARK    5  A    between atoms: C_14  and  C_16
REMARK    6  A    between atoms: C_16  and  N_17
REMARK    7  A    between atoms: C_18  and  C_20
REMARK                            x       y       z     vdW  Elec       q    Type
REMARK                         _______ _______ _______ _____ _____    ______ ____
ROOT
ATOM      1  C   UNL     1      -0.017   1.526   0.009  0.00  0.00    +0.028 C 
ATOM      2  C   UNL     1       0.003  -0.004   0.001  0.00  0.00    +0.073 C 
ATOM      3  C   UNL     1      -1.426  -0.537   0.144  0.00  0.00    +0.023 C 
ATOM      4  C   UNL     1      -1.387  -2.061   0.276  0.00  0.00    +0.016 C 
ATOM      5  C   UNL     1      -0.600  -2.447   1.530  0.00  0.00    +0.092 C 
ATOM      6  C   UNL     1       0.838  -1.935   1.403  0.00  0.00    +0.120 C 
ATOM      7  N   UNL     1       0.808  -0.492   1.130  0.00  0.00    -0.297 N 
ATOM      8  C   UNL     1       1.502   0.368   1.901  0.00  0.00    +0.233 C 
ATOM      9  O   UNL     1       1.393   1.563   1.725  0.00  0.00    -0.274 OA
ENDROOT
BRANCH   5  10
ATOM     10  C   UNL     1      -0.590  -3.946   1.677  0.00  0.00    +0.215 C 
ATOM     11  O   UNL     1      -1.157  -4.639   0.859  0.00  0.00    -0.276 OA
ATOM     12  N   UNL     1       0.048  -4.518   2.718  0.00  0.00    -0.329 N 
ATOM     13  H   UNL     1       0.501  -3.963   3.372  0.00  0.00    +0.145 HD
ATOM     14  H   UNL     1       0.054  -5.483   2.812  0.00  0.00    +0.145 HD
ENDBRANCH   5  10
BRANCH   8  15
ATOM     15  C   UNL     1       2.412  -0.154   2.982  0.00  0.00    +0.200 C 
BRANCH  15  16
ATOM     16  N   UNL     1       3.046   0.971   3.673  0.00  0.00    -0.305 N 
ATOM     17  C   UNL     1       3.907   0.742   4.685  0.00  0.00    +0.231 C 
ATOM     18  O   UNL     1       4.156  -0.396   5.023  0.00  0.00    -0.274 OA
ATOM     19  H   UNL     1       2.846   1.881   3.403  0.00  0.00    +0.149 HD
BRANCH  17  20
ATOM     20  C   UNL     1       4.559   1.900   5.396  0.00  0.00    +0.200 C 
BRANCH  20  21
ATOM     21  N   UNL     1       5.444   1.392   6.447  0.00  0.00    -0.307 N 
ATOM     22  C   UNL     1       6.138   2.252   7.218  0.00  0.00    +0.210 C 
ATOM     23  O   UNL     1       6.029   3.447   7.042  0.00  0.00    -0.276 OA
ATOM     24  C   UNL     1       7.048   1.729   8.299  0.00  0.00    +0.109 C 
ATOM     25  H   UNL     1       5.530   0.436   6.588  0.00  0.00    +0.149 HD
ENDBRANCH  20  21
ENDBRANCH  17  20
ENDBRANCH  15  16
ENDBRANCH   8  15
TORSDOF 5
