REMARK  Name = ZINC32084417
REMARK  8 active torsions:
REMARK  status: ('A' for Active; 'I' for Inactive)
REMARK    1  A    between atoms: C_1  and  C_2
REMARK    2  A    between atoms: C_5  and  S_11
REMARK    3  A    between atoms: C_7  and  C_8
REMARK    4  A    between atoms: S_11  and  N_14
REMARK    5  A    between atoms: N_14  and  C_15
REMARK    6  A    between atoms: C_20  and  S_21
REMARK    7  A    between atoms: S_21  and  C_22
REMARK    8  A    between atoms: N_26  and  C_27
REMARK                            x       y       z     vdW  Elec       q    Type
REMARK                         _______ _______ _______ _____ _____    ______ ____
ROOT
ATOM      1  S   UNL     1      -1.238   1.453   0.426  0.00  0.00    +0.072 S 
ATOM      2  O   UNL     1      -2.245   0.461   0.569  0.00  0.00    -0.150 OA
ATOM      3  O   UNL     1      -1.107   2.541   1.330  0.00  0.00    -0.150 OA
ENDROOT
BRANCH   1   8
ATOM      4  C   UNL     1      -1.929   3.877  -5.066  0.00  0.00    +0.044 C 
ATOM      5  C   UNL     1      -1.759   3.270  -3.698  0.00  0.00    -0.038 A 
ATOM      6  C   UNL     1      -1.134   3.985  -2.697  0.00  0.00    +0.006 A 
ATOM      7  C   UNL     1      -0.981   3.430  -1.439  0.00  0.00    +0.029 A 
ATOM      8  C   UNL     1      -1.444   2.152  -1.178  0.00  0.00    +0.109 A 
ATOM      9  C   UNL     1      -2.070   1.427  -2.170  0.00  0.00    +0.042 A 
ATOM     10  C   UNL     1      -2.232   1.982  -3.440  0.00  0.00    +0.041 A 
BRANCH  10  11
ATOM     11  C   UNL     1      -2.903   1.210  -4.508  0.00  0.00    +0.242 C 
ATOM     12  O   UNL     1      -2.985   1.670  -5.630  0.00  0.00    -0.270 OA
ATOM     13  N   UNL     1      -3.422  -0.003  -4.238  0.00  0.00    -0.325 N 
ATOM     14  H   UNL     1      -3.921  -0.578  -5.032  0.00  0.00    +0.145 HD
ATOM     15  H   UNL     1      -3.348  -0.420  -3.222  0.00  0.00    +0.145 HD
ENDBRANCH  10  11
ENDBRANCH   1   8
BRANCH   1  16
ATOM     16  N   UNL     1       0.215   0.657   0.430  0.00  0.00    -0.215 N 
ATOM     17  H   UNL     1       0.243  -0.436   0.556  0.00  0.00    +0.174 HD
BRANCH  16  18
ATOM     18  C   UNL     1       1.406   1.374   0.274  0.00  0.00    +0.062 A 
ATOM     19  C   UNL     1       1.530   2.644   0.818  0.00  0.00    +0.025 A 
ATOM     20  C   UNL     1       2.708   3.351   0.663  0.00  0.00    +0.002 A 
ATOM     21  C   UNL     1       3.766   2.795  -0.034  0.00  0.00    +0.001 A 
ATOM     22  C   UNL     1       3.651   1.530  -0.579  0.00  0.00    +0.017 A 
ATOM     23  C   UNL     1       2.475   0.812  -0.424  0.00  0.00    +0.038 A 
BRANCH  23  24
ATOM     24  S   UNL     1       2.329  -0.804  -1.111  0.00  0.00    -0.048 S 
BRANCH  24  25
ATOM     25  C   UNL     1       2.499  -1.775   0.349  0.00  0.00    +0.196 A 
ATOM     26  N   UNL     1       2.597  -1.325   1.579  0.00  0.00    -0.122 NA
ATOM     27  N   UNL     1       2.705  -2.310   2.397  0.00  0.00    -0.137 NA
ATOM     28  C   UNL     1       2.692  -3.437   1.744  0.00  0.00    +0.225 A 
ATOM     29  N   UNL     1       2.561  -3.137   0.416  0.00  0.00    -0.311 N 
ATOM     30  C   UNL     1       2.500  -4.082  -0.702  0.00  0.00    +0.152 C 
ENDBRANCH  24  25
ENDBRANCH  23  24
ENDBRANCH  16  18
ENDBRANCH   1  16
TORSDOF 6
