REMARK  Name = ZINC01123990
REMARK  5 active torsions:
REMARK  status: ('A' for Active; 'I' for Inactive)
REMARK    1  A    between atoms: C_1  and  C_2
REMARK    2  A    between atoms: N_9  and  C_31
REMARK    3  A    between atoms: C_14  and  C_25
REMARK    4  A    between atoms: C_20  and  N_24
REMARK    5  A    between atoms: C_21  and  C_22
REMARK                            x       y       z     vdW  Elec       q    Type
REMARK                         _______ _______ _______ _____ _____    ______ ____
ROOT
ATOM      1  C   UNL     1       0.793   1.147   0.050  0.00  0.00    +0.044 C 
ATOM      2  C   UNL     1       0.596  -0.346   0.001  0.00  0.00    -0.049 A 
ATOM      3  C   UNL     1       0.399  -0.967  -1.228  0.00  0.00    +0.010 A 
ATOM      4  C   UNL     1       0.224  -2.334  -1.218  0.00  0.00    +0.000 A 
ATOM      5  C   UNL     1       0.241  -3.079  -0.032  0.00  0.00    +0.055 A 
ATOM      6  C   UNL     1       0.439  -2.444   1.195  0.00  0.00    +0.040 A 
ATOM      7  C   UNL     1       0.620  -1.069   1.176  0.00  0.00    +0.020 A 
ATOM      8 BR   UNL     1       0.469  -3.419   2.815  0.00  0.00    -0.048 Br
ATOM      9  N   UNL     1       0.042  -4.421  -0.305  0.00  0.00    -0.272 N 
ATOM     10  C   UNL     1      -0.114  -4.652  -1.626  0.00  0.00    +0.240 C 
ATOM     11  O   UNL     1      -0.304  -5.727  -2.153  0.00  0.00    -0.274 OA
ATOM     12  C   UNL     1      -0.006  -3.314  -2.323  0.00  0.00    +0.145 C 
ATOM     13  C   UNL     1      -1.273  -3.012  -3.072  0.00  0.00    +0.066 A 
ATOM     14  C   UNL     1      -2.603  -3.110  -2.653  0.00  0.00    +0.101 A 
ATOM     15  N   UNL     1      -3.374  -2.739  -3.658  0.00  0.00    -0.171 NA
ATOM     16  N   UNL     1      -2.553  -2.394  -4.742  0.00  0.00    -0.246 N 
ATOM     17  H   UNL     1      -2.855  -2.085  -5.610  0.00  0.00    +0.192 HD
ATOM     18  C   UNL     1      -1.270  -2.567  -4.364  0.00  0.00    +0.224 A 
ATOM     19  O   UNL     1      -0.125  -2.365  -5.064  0.00  0.00    -0.423 OA
ATOM     20  C   UNL     1       1.021  -2.864  -4.559  0.00  0.00    +0.201 C 
ATOM     21  C   UNL     1       1.145  -3.324  -3.292  0.00  0.00    +0.110 C 
ATOM     22  C   UNL     1       0.004  -5.468   0.719  0.00  0.00    +0.138 C 
ENDROOT
BRANCH  14  23
ATOM     23  C   UNL     1      -3.066  -3.554  -1.315  0.00  0.00    +0.003 A 
ATOM     24  C   UNL     1      -2.529  -2.981  -0.164  0.00  0.00    +0.010 A 
ATOM     25  C   UNL     1      -2.963  -3.397   1.078  0.00  0.00    +0.001 A 
ATOM     26  C   UNL     1      -3.929  -4.382   1.182  0.00  0.00    +0.000 A 
ATOM     27  C   UNL     1      -4.465  -4.955   0.043  0.00  0.00    +0.001 A 
ATOM     28  C   UNL     1      -4.043  -4.541  -1.205  0.00  0.00    +0.010 A 
ENDBRANCH  14  23
BRANCH  20  29
ATOM     29  N   UNL     1       2.124  -2.908  -5.375  0.00  0.00    -0.328 N 
ATOM     30  H   UNL     1       2.065  -2.586  -6.288  0.00  0.00    +0.145 HD
ATOM     31  H   UNL     1       2.962  -3.262  -5.039  0.00  0.00    +0.145 HD
ENDBRANCH  20  29
BRANCH  21  32
ATOM     32  C   UNL     1       2.411  -3.835  -2.860  0.00  0.00    +0.102 C 
ATOM     33  N   UNL     1       3.416  -4.240  -2.517  0.00  0.00    -0.191 NA
ENDBRANCH  21  32
TORSDOF 3
