REMARK  Name = ZINC37037335
REMARK  5 active torsions:
REMARK  status: ('A' for Active; 'I' for Inactive)
REMARK    1  A    between atoms: C_1  and  C_2
REMARK    2  A    between atoms: C_10  and  C_12
REMARK    3  A    between atoms: C_12  and  S_13
REMARK    4  A    between atoms: S_13  and  C_14
REMARK    5  A    between atoms: C_19  and  N_20
REMARK                            x       y       z     vdW  Elec       q    Type
REMARK                         _______ _______ _______ _____ _____    ______ ____
ROOT
ATOM      1  C   UNL     1       1.903  -6.085  -0.039  0.00  0.00    +0.139 C 
ENDROOT
BRANCH   1  11
ATOM      2  C   UNL     1      -0.018   1.503   0.010  0.00  0.00    +0.066 C 
ATOM      3  C   UNL     1       0.002  -0.004   0.002  0.00  0.00    +0.046 A 
ATOM      4  C   UNL     1      -1.175  -0.722   0.004  0.00  0.00    +0.095 A 
ATOM      5  C   UNL     1      -1.136  -2.116  -0.004  0.00  0.00    +0.275 A 
ATOM      6  O   UNL     1      -2.175  -2.758  -0.003  0.00  0.00    -0.266 OA
ATOM      7  N   UNL     1       0.067  -2.763  -0.013  0.00  0.00    -0.171 N 
ATOM      8  C   UNL     1       1.185  -1.974  -0.014  0.00  0.00    +0.199 A 
ATOM      9  N   UNL     1       1.157  -0.665  -0.013  0.00  0.00    -0.227 NA
ATOM     10  S   UNL     1       2.500  -3.172  -0.026  0.00  0.00    -0.032 S 
ATOM     11  C   UNL     1       1.481  -4.639  -0.029  0.00  0.00    +0.113 A 
ATOM     12  N   UNL     1       0.283  -4.137  -0.021  0.00  0.00    -0.158 NA
ENDBRANCH   1  11
BRANCH   1  13
ATOM     13  S   UNL     1       0.430  -7.144  -0.038  0.00  0.00    -0.117 S 
BRANCH  13  14
ATOM     14  C   UNL     1       1.082  -8.781  -0.050  0.00  0.00    +0.029 A 
ATOM     15  C   UNL     1       2.455  -8.983  -0.052  0.00  0.00    +0.018 A 
ATOM     16  C   UNL     1       2.964 -10.268  -0.061  0.00  0.00    +0.021 A 
ATOM     17  C   UNL     1       2.109 -11.356  -0.069  0.00  0.00    +0.043 A 
ATOM     18  C   UNL     1       0.739 -11.163  -0.067  0.00  0.00    +0.043 A 
ATOM     19  C   UNL     1       0.220  -9.878  -0.052  0.00  0.00    +0.040 A 
ATOM     20 CL   UNL     1       2.757 -12.966  -0.082  0.00  0.00    -0.083 Cl
BRANCH  19  21
ATOM     21  N   UNL     1      -1.166  -9.681  -0.045  0.00  0.00    -0.357 N 
ATOM     22  H   UNL     1      -1.528  -8.781  -0.038  0.00  0.00    +0.142 HD
ATOM     23  H   UNL     1      -1.765 -10.444  -0.047  0.00  0.00    +0.142 HD
ENDBRANCH  19  21
ENDBRANCH  13  14
ENDBRANCH   1  13
TORSDOF 4
