REMARK  Name = ZINC43741822
REMARK  6 active torsions:
REMARK  status: ('A' for Active; 'I' for Inactive)
REMARK    1  A    between atoms: C_1  and  C_2
REMARK    2  A    between atoms: N_6  and  N_7
REMARK    3  A    between atoms: N_7  and  C_8
REMARK    4  A    between atoms: C_8  and  N_10
REMARK    5  A    between atoms: C_22  and  C_33
REMARK    6  A    between atoms: C_26  and  C_27
REMARK                            x       y       z     vdW  Elec       q    Type
REMARK                         _______ _______ _______ _____ _____    ______ ____
ROOT
ATOM      1  C   UNL     1      -0.727   2.398  -0.641  0.00  0.00    +0.012 C 
ATOM      2  C   UNL     1      -0.371   0.911  -0.664  0.00  0.00    -0.025 C 
ATOM      3  C   UNL     1       0.216   0.548  -2.032  0.00  0.00    +0.013 C 
ATOM      4  C   UNL     1       1.432   1.433  -2.323  0.00  0.00    +0.053 C 
ATOM      5  C   UNL     1       2.409   1.288  -1.177  0.00  0.00    +0.037 C 
ATOM      6  N   UNL     1       3.638   1.001  -1.392  0.00  0.00    -0.190 NA
ATOM      7  C   UNL     1       1.893   1.494   0.229  0.00  0.00    +0.056 C 
ATOM      8  C   UNL     1       0.652   0.615   0.434  0.00  0.00    +0.001 C 
ATOM      9  C   UNL     1       0.043   0.944   1.800  0.00  0.00    +0.005 C 
ATOM     10  C   UNL     1      -1.214   0.111   2.029  0.00  0.00    +0.008 C 
ATOM     11  C   UNL     1      -1.477  -0.790   0.819  0.00  0.00    +0.019 C 
ATOM     12  C   UNL     1      -1.632   0.082  -0.436  0.00  0.00    +0.002 C 
ATOM     13  C   UNL     1      -2.856   0.982  -0.313  0.00  0.00    +0.006 C 
ATOM     14  C   UNL     1      -4.146   0.156  -0.241  0.00  0.00    +0.016 C 
ATOM     15  C   UNL     1      -4.113  -0.683   1.038  0.00  0.00    +0.015 C 
ATOM     16  C   UNL     1      -2.814  -1.470   1.011  0.00  0.00    -0.056 C 
ATOM     17  C   UNL     1      -3.120  -2.743   1.165  0.00  0.00    +0.001 C 
ATOM     18  C   UNL     1      -4.568  -2.923   1.195  0.00  0.00    +0.005 C 
ATOM     19  C   UNL     1      -5.194  -1.727   1.078  0.00  0.00    -0.031 C 
ATOM     20  C   UNL     1      -4.191   0.218   2.272  0.00  0.00    +0.021 C 
ENDROOT
BRANCH  19  21
ATOM     21  C   UNL     1      -6.584  -1.505   1.013  0.00  0.00    +0.000 C 
ATOM     22  C   UNL     1      -7.217  -0.307   0.894  0.00  0.00    +0.098 C 
ATOM     23  C   UNL     1      -8.610  -0.513   0.862  0.00  0.00    +0.333 C 
ATOM     24  O   UNL     1      -9.436   0.374   0.761  0.00  0.00    -0.246 OA
ATOM     25  O   UNL     1      -8.905  -1.823   0.958  0.00  0.00    -0.457 OA
ATOM     26  C   UNL     1      -7.676  -2.551   1.054  0.00  0.00    +0.268 C 
ENDBRANCH  19  21
BRANCH   6  27
ATOM     27  N   UNL     1       4.073   0.716  -2.693  0.00  0.00    -0.219 N 
ATOM     28  H   UNL     1       3.462   0.808  -3.440  0.00  0.00    +0.176 HD
BRANCH  27  29
ATOM     29  C   UNL     1       5.342   0.314  -2.906  0.00  0.00    +0.147 C 
ATOM     30  S   UNL     1       5.874  -0.034  -4.495  0.00  0.00    -0.017 S 
BRANCH  29  31
ATOM     31  N   UNL     1       6.192   0.186  -1.868  0.00  0.00    -0.339 N 
ATOM     32  H   UNL     1       5.890   0.383  -0.967  0.00  0.00    +0.144 HD
ATOM     33  H   UNL     1       7.105  -0.104  -2.021  0.00  0.00    +0.144 HD
ENDBRANCH  29  31
ENDBRANCH  27  29
ENDBRANCH   6  27
TORSDOF 4
