REMARK  Name = ZINC57898616
REMARK  6 active torsions:
REMARK  status: ('A' for Active; 'I' for Inactive)
REMARK    1  A    between atoms: C_2  and  C_3
REMARK    2  A    between atoms: C_3  and  O_4
REMARK    3  A    between atoms: O_4  and  C_5
REMARK    4  A    between atoms: C_8  and  C_12
REMARK    5  A    between atoms: C_10  and  N_11
REMARK    6  A    between atoms: C_13  and  C_14
REMARK                            x       y       z     vdW  Elec       q    Type
REMARK                         _______ _______ _______ _____ _____    ______ ____
ROOT
ATOM      1  C   UNL     1       2.217  -2.922   0.731  0.00  0.00    +0.142 A 
ATOM      2  C   UNL     1       2.715  -3.071   2.018  0.00  0.00    +0.048 A 
ATOM      3  C   UNL     1       3.900  -3.741   2.229  0.00  0.00    +0.011 A 
ATOM      4  C   UNL     1       4.605  -4.275   1.144  0.00  0.00    -0.023 A 
ATOM      5  C   UNL     1       4.103  -4.126  -0.153  0.00  0.00    +0.034 A 
ATOM      6  C   UNL     1       2.911  -3.456  -0.356  0.00  0.00    +0.067 A 
ENDROOT
BRANCH   6   7
ATOM      7  N   UNL     1       2.402  -3.309  -1.652  0.00  0.00    -0.355 N 
ATOM      8  H   UNL     1       1.568  -2.836  -1.795  0.00  0.00    +0.142 HD
ATOM      9  H   UNL     1       2.885  -3.680  -2.408  0.00  0.00    +0.142 HD
ENDBRANCH   6   7
BRANCH   4  10
ATOM     10  C   UNL     1       5.870  -4.990   1.368  0.00  0.00    +0.013 C 
ATOM     11  C   UNL     1       6.925  -4.764   0.557  0.00  0.00    +0.068 C 
BRANCH  11  12
ATOM     12  C   UNL     1       6.893  -3.652  -0.393  0.00  0.00    +0.239 C 
ATOM     13  O   UNL     1       5.970  -2.860  -0.370  0.00  0.00    -0.271 OA
ATOM     14  N   UNL     1       7.885  -3.506  -1.293  0.00  0.00    -0.300 N 
ATOM     15  C   UNL     1       9.041  -4.424  -1.234  0.00  0.00    +0.106 C 
ATOM     16  C   UNL     1       9.469  -4.867  -2.646  0.00  0.00    -0.000 C 
ATOM     17  C   UNL     1       8.239  -5.116  -3.490  0.00  0.00    -0.081 C 
ATOM     18  N   UNL     1       7.908  -3.901  -4.232  0.00  0.00    +0.380 N 
ATOM     19  C   UNL     1       7.068  -2.996  -3.547  0.00  0.00    -0.063 C 
ATOM     20  C   UNL     1       7.777  -2.459  -2.288  0.00  0.00    +0.089 C 
ATOM     21  H   UNL     1       8.768  -3.426  -4.463  0.00  0.00    -0.086 HD
ATOM     22  H   UNL     1       7.455  -4.168  -5.093  0.00  0.00    -0.086 HD
ENDBRANCH  11  12
ENDBRANCH   4  10
BRANCH   1  23
ATOM     23  O   UNL     1       1.048  -2.260   0.529  0.00  0.00    -0.486 OA
BRANCH  23  24
ATOM     24  C   UNL     1       0.390  -1.739   1.685  0.00  0.00    +0.256 C 
BRANCH  24  26
ATOM     25  C   UNL     1      -1.989  -1.249   1.935  0.00  0.00    +0.007 C 
ATOM     26  C   UNL     1      -0.881  -1.043   1.269  0.00  0.00    +0.006 C 
ENDBRANCH  24  26
ENDBRANCH  23  24
ENDBRANCH   1  23
TORSDOF 6
