REMARK  Name = ZINC38670327
REMARK  11 active torsions:
REMARK  status: ('A' for Active; 'I' for Inactive)
REMARK    1  A    between atoms: C_1  and  C_2
REMARK    2  A    between atoms: C_2  and  O_3
REMARK    3  A    between atoms: O_3  and  C_4
REMARK    4  A    between atoms: C_7  and  N_10
REMARK    5  A    between atoms: N_13  and  C_14
REMARK    6  A    between atoms: C_14  and  C_15
REMARK    7  A    between atoms: C_15  and  C_17
REMARK    8  A    between atoms: C_15  and  N_28
REMARK    9  A    between atoms: N_26  and  C_27
REMARK   10  A    between atoms: N_28  and  C_29
REMARK   11  A    between atoms: N_28  and  C_30
REMARK                            x       y       z     vdW  Elec       q    Type
REMARK                         _______ _______ _______ _____ _____    ______ ____
ROOT
ATOM      1  C   UNL     1       2.561  -8.462  -4.484  0.00  0.00    +0.095 C 
ENDROOT
BRANCH   1   5
ATOM      2  N   UNL     1       0.536  -6.509  -6.852  0.00  0.00    -0.269 N 
ATOM      3  C   UNL     1       1.353  -6.827  -5.828  0.00  0.00    +0.304 C 
ATOM      4  O   UNL     1       1.799  -5.952  -5.112  0.00  0.00    -0.253 OA
ATOM      5  N   UNL     1       1.674  -8.116  -5.598  0.00  0.00    -0.300 N 
ATOM      6  H   UNL     1       0.122  -7.210  -7.378  0.00  0.00    +0.156 HD
ATOM      7  H   UNL     1       1.317  -8.814  -6.169  0.00  0.00    +0.150 HD
BRANCH   2  11
ATOM      8  C   UNL     1      -0.207  -2.507  -7.760  0.00  0.00    +0.121 A 
ATOM      9  C   UNL     1       1.040  -2.891  -7.290  0.00  0.00    +0.047 A 
ATOM     10  C   UNL     1       1.287  -4.216  -6.989  0.00  0.00    +0.027 A 
ATOM     11  C   UNL     1       0.286  -5.164  -7.157  0.00  0.00    +0.035 A 
ATOM     12  C   UNL     1      -0.962  -4.779  -7.627  0.00  0.00    +0.027 A 
ATOM     13  C   UNL     1      -1.209  -3.453  -7.923  0.00  0.00    +0.047 A 
BRANCH   8  14
ATOM     14  O   UNL     1      -0.449  -1.202  -8.056  0.00  0.00    -0.492 OA
BRANCH  14  16
ATOM     15  C   UNL     1       0.170   1.126  -8.248  0.00  0.00    +0.048 C 
ATOM     16  C   UNL     1       0.628  -0.283  -7.865  0.00  0.00    +0.225 C 
ENDBRANCH  14  16
ENDBRANCH   8  14
ENDBRANCH   2  11
ENDBRANCH   1   5
BRANCH   1  17
ATOM     17  C   UNL     1       2.868  -9.960  -4.524  0.00  0.00    -0.021 C 
BRANCH  17  18
ATOM     18  C   UNL     1       3.620 -10.286  -5.789  0.00  0.00    -0.059 A 
ATOM     19  C   UNL     1       4.980 -10.045  -5.864  0.00  0.00    +0.004 A 
ATOM     20  C   UNL     1       5.668 -10.341  -7.023  0.00  0.00    +0.023 A 
ATOM     21  C   UNL     1       4.995 -10.883  -8.113  0.00  0.00    +0.033 A 
ATOM     22  C   UNL     1       3.633 -11.127  -8.036  0.00  0.00    -0.026 A 
ATOM     23  C   UNL     1       2.950 -10.829  -6.868  0.00  0.00    +0.007 A 
ATOM     24  C   UNL     1       2.873 -11.722  -9.192  0.00  0.00    +0.038 C 
ATOM     25  C   UNL     1       3.639 -11.517 -10.498  0.00  0.00    +0.024 C 
ATOM     26  C   UNL     1       5.080 -12.009 -10.310  0.00  0.00    +0.105 C 
ATOM     27  N   UNL     1       5.710 -11.172  -9.280  0.00  0.00    -0.333 N 
ATOM     28  C   UNL     1       7.065 -10.648  -9.473  0.00  0.00    +0.129 C 
ENDBRANCH  17  18
BRANCH  17  29
ATOM     29  N   UNL     1       3.688 -10.323  -3.360  0.00  0.00    +0.382 N 
ATOM     30  C   UNL     1       2.927 -10.073  -2.128  0.00  0.00    -0.096 C 
ATOM     31  C   UNL     1       4.044 -11.746  -3.436  0.00  0.00    -0.096 C 
ATOM     32  H   UNL     1       4.529  -9.765  -3.354  0.00  0.00    -0.082 HD
ENDBRANCH  17  29
ENDBRANCH   1  17
TORSDOF 7
