REMARK  Name = ZINC00995023
REMARK  4 active torsions:
REMARK  status: ('A' for Active; 'I' for Inactive)
REMARK    1  A    between atoms: C_6  and  C_7
REMARK    2  A    between atoms: C_8  and  C_9
REMARK    3  A    between atoms: N_11  and  C_12
REMARK    4  A    between atoms: C_13  and  C_23
REMARK                            x       y       z     vdW  Elec       q    Type
REMARK                         _______ _______ _______ _____ _____    ______ ____
ROOT
ATOM      1  C   UNL     1      -0.842   1.487   3.728  0.00  0.00    +0.085 A 
ATOM      2  C   UNL     1      -0.160   1.131   2.580  0.00  0.00    +0.068 A 
ATOM      3  C   UNL     1      -0.701   1.565   1.287  0.00  0.00    -0.023 A 
ATOM      4  C   UNL     1      -1.788   2.345   1.389  0.00  0.00    -0.004 A 
ATOM      5  S   UNL     1      -2.164   2.414   3.122  0.00  0.00    -0.077 S 
ATOM      6  C   UNL     1      -2.552   3.039   0.296  0.00  0.00    +0.043 C 
ATOM      7  C   UNL     1      -1.769   4.320  -0.045  0.00  0.00    +0.005 C 
ATOM      8  C   UNL     1      -0.319   3.927  -0.358  0.00  0.00    +0.000 C 
ATOM      9  C   UNL     1      -0.400   3.026  -1.571  0.00  0.00    +0.000 C 
ATOM     10  C   UNL     1      -0.723   1.577  -1.247  0.00  0.00    +0.005 C 
ATOM     11  C   UNL     1      -0.013   1.086   0.008  0.00  0.00    +0.037 C 
ENDROOT
BRANCH   2  12
ATOM     12  C   UNL     1       1.073   0.340   2.652  0.00  0.00    +0.244 C 
ATOM     13  O   UNL     1       2.150   0.899   2.744  0.00  0.00    -0.270 OA
ATOM     14  N   UNL     1       1.013  -1.006   2.618  0.00  0.00    -0.325 N 
ATOM     15  H   UNL     1       0.154  -1.451   2.545  0.00  0.00    +0.145 HD
ATOM     16  H   UNL     1       1.828  -1.529   2.666  0.00  0.00    +0.145 HD
ENDBRANCH   2  12
BRANCH   1  19
ATOM     17  C   UNL     1      -1.330   1.619   6.040  0.00  0.00    +0.241 C 
ATOM     18  O   UNL     1      -2.313   2.290   5.785  0.00  0.00    -0.270 OA
ATOM     19  N   UNL     1      -0.537   1.178   5.044  0.00  0.00    -0.276 N 
ATOM     20  H   UNL     1       0.246   0.643   5.247  0.00  0.00    +0.156 HD
BRANCH  17  22
ATOM     21  C   UNL     1      -1.803   1.736   8.427  0.00  0.00    +0.013 C 
ATOM     22  C   UNL     1      -1.009   1.293   7.429  0.00  0.00    +0.068 C 
BRANCH  21  28
ATOM     23  C   UNL     1      -0.350   0.637  10.120  0.00  0.00    +0.012 A 
ATOM     24  C   UNL     1      -0.050   0.331  11.429  0.00  0.00    +0.050 A 
ATOM     25  C   UNL     1      -0.864   0.785  12.458  0.00  0.00    +0.166 A 
ATOM     26  C   UNL     1      -1.993   1.555  12.170  0.00  0.00    +0.167 A 
ATOM     27  C   UNL     1      -2.298   1.870  10.861  0.00  0.00    +0.057 A 
ATOM     28  C   UNL     1      -1.480   1.407   9.823  0.00  0.00    -0.021 A 
ATOM     29  O   UNL     1      -2.615   1.871  13.343  0.00  0.00    -0.453 OA
ATOM     30  C   UNL     1      -1.636   1.636  14.372  0.00  0.00    +0.466 C 
ATOM     31  O   UNL     1      -0.784   0.621  13.809  0.00  0.00    -0.453 OA
ENDBRANCH  21  28
ENDBRANCH  17  22
ENDBRANCH   1  19
TORSDOF 4
