REMARK  Name = ZINC54124365
REMARK  4 active torsions:
REMARK  status: ('A' for Active; 'I' for Inactive)
REMARK    1  A    between atoms: C_3  and  N_18
REMARK    2  A    between atoms: C_6  and  C_7
REMARK    3  A    between atoms: C_7  and  N_8
REMARK    4  A    between atoms: C_22  and  C_25
REMARK                            x       y       z     vdW  Elec       q    Type
REMARK                         _______ _______ _______ _____ _____    ______ ____
ROOT
ATOM      1  C   UNL     1      -0.017   1.379   0.026  0.00  0.00    +0.007 A 
ATOM      2  C   UNL     1       1.169   2.087   0.018  0.00  0.00    +0.023 A 
ATOM      3  C   UNL     1       2.381   1.409  -0.013  0.00  0.00    +0.030 A 
ATOM      4  C   UNL     1       2.396   0.020  -0.037  0.00  0.00    +0.023 A 
ATOM      5  C   UNL     1       1.207  -0.682  -0.029  0.00  0.00    +0.007 A 
ATOM      6  C   UNL     1       0.002  -0.004   0.002  0.00  0.00    -0.030 A 
ENDROOT
BRANCH   3   7
ATOM      7  N   UNL     1       3.582   2.122  -0.021  0.00  0.00    -0.329 N 
ATOM      8  C   UNL     1       4.870   1.420   0.067  0.00  0.00    +0.105 C 
ATOM      9  C   UNL     1       5.753   1.862  -1.104  0.00  0.00    +0.020 C 
ATOM     10  C   UNL     1       5.867   3.388  -1.105  0.00  0.00    +0.016 C 
ATOM     11  C   UNL     1       4.479   4.005  -1.287  0.00  0.00    +0.092 C 
ATOM     12  C   UNL     1       3.582   3.588  -0.124  0.00  0.00    +0.117 C 
BRANCH  11  13
ATOM     13  C   UNL     1       4.597   5.508  -1.320  0.00  0.00    +0.215 C 
ATOM     14  O   UNL     1       4.018   6.180  -0.493  0.00  0.00    -0.276 OA
ATOM     15  N   UNL     1       5.345   6.104  -2.269  0.00  0.00    -0.329 N 
ATOM     16  H   UNL     1       5.808   5.566  -2.931  0.00  0.00    +0.145 HD
ATOM     17  H   UNL     1       5.421   7.071  -2.291  0.00  0.00    +0.145 HD
ENDBRANCH  11  13
ENDBRANCH   3   7
BRANCH   6  18
ATOM     18  C   UNL     1      -1.294  -0.773   0.011  0.00  0.00    +0.138 C 
BRANCH  18  19
ATOM     19  N   UNL     1      -1.737  -0.999  -1.367  0.00  0.00    -0.324 N 
ATOM     20  C   UNL     1      -2.910  -1.689  -1.612  0.00  0.00    +0.130 A 
ATOM     21  C   UNL     1      -3.346  -1.919  -2.947  0.00  0.00    +0.047 A 
ATOM     22  C   UNL     1      -2.732  -1.528  -4.204  0.00  0.00    +0.021 A 
ATOM     23  C   UNL     1      -3.333  -1.860  -5.356  0.00  0.00    +0.048 A 
ATOM     24  S   UNL     1      -4.793  -2.736  -4.828  0.00  0.00    -0.077 S 
ATOM     25  C   UNL     1      -4.556  -2.634  -3.074  0.00  0.00    +0.113 A 
ATOM     26  N   UNL     1      -5.222  -3.052  -2.015  0.00  0.00    -0.228 NA
ATOM     27  C   UNL     1      -4.767  -2.808  -0.802  0.00  0.00    +0.224 A 
ATOM     28  N   UNL     1      -3.639  -2.149  -0.608  0.00  0.00    -0.220 NA
ATOM     29  H   UNL     1      -1.207  -0.665  -2.108  0.00  0.00    +0.148 HD
ENDBRANCH  18  19
ENDBRANCH   6  18
TORSDOF 4
