REMARK  Name = ZINC49716146
REMARK  4 active torsions:
REMARK  status: ('A' for Active; 'I' for Inactive)
REMARK    1  A    between atoms: C_2  and  N_20
REMARK    2  A    between atoms: C_4  and  S_16
REMARK    3  A    between atoms: C_6  and  N_7
REMARK    4  A    between atoms: S_16  and  N_19
REMARK                            x       y       z     vdW  Elec       q    Type
REMARK                         _______ _______ _______ _____ _____    ______ ____
ROOT
ATOM      1  C   UNL     1      -0.017   1.383   0.010  0.00  0.00    +0.046 A 
ATOM      2  C   UNL     1       1.177   2.091   0.002  0.00  0.00    +0.028 A 
ATOM      3  C   UNL     1       2.388   1.407  -0.013  0.00  0.00    +0.051 A 
ATOM      4  C   UNL     1       2.403   0.026  -0.021  0.00  0.00    +0.108 A 
ATOM      5  C   UNL     1       1.216  -0.681  -0.014  0.00  0.00    +0.051 A 
ATOM      6  C   UNL     1       0.002  -0.004   0.002  0.00  0.00    +0.034 A 
ENDROOT
BRANCH   6   7
ATOM      7  N   UNL     1      -1.197  -0.720   0.010  0.00  0.00    -0.326 N 
ATOM      8  C   UNL     1      -1.348  -2.190   0.010  0.00  0.00    +0.109 C 
ATOM      9  C   UNL     1      -2.887  -2.445  -0.003  0.00  0.00    +0.008 C 
ATOM     10  C   UNL     1      -3.349  -2.030   1.430  0.00  0.00    +0.007 C 
ATOM     11  C   UNL     1      -3.125  -0.500   1.470  0.00  0.00    +0.023 C 
ATOM     12  C   UNL     1      -2.575  -0.148   0.027  0.00  0.00    +0.074 C 
ATOM     13  C   UNL     1      -3.348  -1.202  -0.848  0.00  0.00    +0.027 C 
ENDBRANCH   6   7
BRANCH   4  14
ATOM     14  S   UNL     1       3.939  -0.836  -0.040  0.00  0.00    +0.056 S 
ATOM     15  O   UNL     1       3.679  -2.118  -0.595  0.00  0.00    -0.153 OA
ATOM     16  O   UNL     1       4.897   0.054  -0.595  0.00  0.00    -0.153 OA
BRANCH  14  17
ATOM     17  N   UNL     1       4.381  -1.084   1.536  0.00  0.00    -0.204 NA
ATOM     18  H   UNL     1       3.813  -0.766   2.255  0.00  0.00    +0.144 HD
ATOM     19  H   UNL     1       5.208  -1.548   1.741  0.00  0.00    +0.144 HD
ENDBRANCH  14  17
ENDBRANCH   4  14
BRANCH   2  20
ATOM     20  N   UNL     1       1.163   3.487   0.009  0.00  0.00    -0.358 N 
ATOM     21  H   UNL     1       0.318   3.963   0.019  0.00  0.00    +0.142 HD
ATOM     22  H   UNL     1       1.998   3.981   0.004  0.00  0.00    +0.142 HD
ENDBRANCH   2  20
TORSDOF 4
