REMARK  Name = ZINC65380785
REMARK  8 active torsions:
REMARK  status: ('A' for Active; 'I' for Inactive)
REMARK    1  A    between atoms: C_1  and  C_2
REMARK    2  A    between atoms: C_2  and  C_3
REMARK    3  A    between atoms: C_3  and  C_28
REMARK    4  A    between atoms: C_8  and  C_11
REMARK    5  A    between atoms: C_18  and  O_21
REMARK    6  A    between atoms: N_24  and  C_27
REMARK    7  A    between atoms: C_28  and  O_30
REMARK    8  A    between atoms: O_30  and  C_31
REMARK                            x       y       z     vdW  Elec       q    Type
REMARK                         _______ _______ _______ _____ _____    ______ ____
ROOT
ATOM      1  C   UNL     1      -1.433  -0.534   0.013  0.00  0.00    +0.129 C 
ATOM      2  C   UNL     1      -1.496  -2.070  -0.112  0.00  0.00    +0.120 C 
ATOM      3  C   UNL     1      -1.657  -2.340  -1.632  0.00  0.00    +0.112 C 
ATOM      4  C   UNL     1      -1.661  -0.942  -2.284  0.00  0.00    +0.116 C 
ATOM      5  N   UNL     1      -2.125  -0.028  -1.200  0.00  0.00    -0.292 NA
ATOM      6  C   UNL     1      -3.035  -2.955  -1.734  0.00  0.00    +0.227 C 
ATOM      7  O   UNL     1      -3.564  -3.322  -2.761  0.00  0.00    -0.275 OA
ATOM      8  N   UNL     1      -3.578  -3.032  -0.513  0.00  0.00    -0.245 N 
ATOM      9  C   UNL     1      -2.794  -2.565   0.486  0.00  0.00    +0.228 C 
ATOM     10  O   UNL     1      -3.076  -2.542   1.665  0.00  0.00    -0.275 OA
ATOM     11  C   UNL     1      -4.914  -3.583  -0.274  0.00  0.00    +0.141 C 
ATOM     12  H   UNL     1      -3.127  -0.066  -1.087  0.00  0.00    +0.124 HD
ENDROOT
BRANCH   4  13
ATOM     13  C   UNL     1      -2.630  -0.902  -3.438  0.00  0.00    +0.060 A 
ATOM     14  C   UNL     1      -3.623   0.075  -3.456  0.00  0.00    +0.025 A 
ATOM     15  C   UNL     1      -4.510   0.125  -4.493  0.00  0.00    +0.012 A 
ATOM     16  C   UNL     1      -4.384  -0.828  -5.522  0.00  0.00    +0.004 A 
ATOM     17  C   UNL     1      -5.258  -0.838  -6.620  0.00  0.00    +0.010 A 
ATOM     18  C   UNL     1      -5.106  -1.774  -7.597  0.00  0.00    +0.004 A 
ATOM     19  C   UNL     1      -4.093  -2.727  -7.523  0.00  0.00    +0.047 A 
ATOM     20  C   UNL     1      -3.223  -2.748  -6.470  0.00  0.00    +0.143 A 
ATOM     21  C   UNL     1      -3.351  -1.793  -5.440  0.00  0.00    +0.113 A 
ATOM     22  N   UNL     1      -2.512  -1.784  -4.400  0.00  0.00    -0.246 NA
BRANCH  20  23
ATOM     23  O   UNL     1      -2.241  -3.685  -6.415  0.00  0.00    -0.505 OA
ATOM     24  H   UNL     1      -1.414  -3.413  -6.836  0.00  0.00    +0.292 HD
ENDBRANCH  20  23
ENDBRANCH   4  13
BRANCH   1  26
ATOM     25  C   UNL     1       0.059   1.469   0.076  0.00  0.00    +0.006 C 
ATOM     26  C   UNL     1       0.021  -0.059   0.034  0.00  0.00    +0.031 C 
ENDBRANCH   1  26
BRANCH   1  27
ATOM     27  C   UNL     1      -2.151  -0.076   1.256  0.00  0.00    +0.328 C 
ATOM     28  O   UNL     1      -1.532   0.114   2.276  0.00  0.00    -0.249 OA
BRANCH  27  29
ATOM     29  O   UNL     1      -3.479   0.121   1.230  0.00  0.00    -0.467 OA
ATOM     30  C   UNL     1      -4.094   0.555   2.445  0.00  0.00    +0.280 C 
ENDBRANCH  27  29
ENDBRANCH   1  27
TORSDOF 5
