REMARK  Name = ZINC01039594
REMARK  2 active torsions:
REMARK  status: ('A' for Active; 'I' for Inactive)
REMARK    1  A    between atoms: C_5  and  S_6
REMARK    2  A    between atoms: S_6  and  N_9
REMARK                            x       y       z     vdW  Elec       q    Type
REMARK                         _______ _______ _______ _____ _____    ______ ____
ROOT
ATOM      1  C   UNL     1      -0.013   1.076   0.008  0.00  0.00    +0.053 A 
ATOM      2  C   UNL     1      -1.214   1.761   0.017  0.00  0.00    +0.045 A 
ATOM      3  C   UNL     1      -1.196   3.118   0.029  0.00  0.00    +0.094 A 
ATOM      4  S   UNL     1       0.556   3.464   0.015  0.00  0.00    -0.056 S 
ATOM      5  C   UNL     1       1.146   1.779   0.001  0.00  0.00    +0.145 A 
ATOM      6 CL   UNL     1      -2.529   4.229   0.047  0.00  0.00    -0.075 Cl
ATOM      7 BR   UNL     1      -2.855   0.823   0.020  0.00  0.00    -0.048 Br
ENDROOT
BRANCH   5   8
ATOM      8  S   UNL     1       2.804   1.185  -0.018  0.00  0.00    +0.062 S 
ATOM      9  O   UNL     1       3.612   2.217   0.530  0.00  0.00    -0.153 OA
ATOM     10  O   UNL     1       2.772  -0.127   0.526  0.00  0.00    -0.153 OA
BRANCH   8  11
ATOM     11  N   UNL     1       3.250   1.028  -1.605  0.00  0.00    -0.203 NA
ATOM     12  H   UNL     1       2.623   1.254  -2.310  0.00  0.00    +0.144 HD
ATOM     13  H   UNL     1       4.138   0.710  -1.831  0.00  0.00    +0.144 HD
ENDBRANCH   8  11
ENDBRANCH   5   8
TORSDOF 2
