REMARK  Name = ZINC42028415
REMARK  6 active torsions:
REMARK  status: ('A' for Active; 'I' for Inactive)
REMARK    1  A    between atoms: C_1  and  C_2
REMARK    2  A    between atoms: C_2  and  C_4
REMARK    3  A    between atoms: C_2  and  N_7
REMARK    4  A    between atoms: C_8  and  C_12
REMARK    5  A    between atoms: C_14  and  N_19
REMARK    6  A    between atoms: C_16  and  N_18
REMARK                            x       y       z     vdW  Elec       q    Type
REMARK                         _______ _______ _______ _____ _____    ______ ____
ROOT
ATOM      1  C   UNL     1       2.456  -1.939   0.063  0.00  0.00    +0.024 A 
ATOM      2  C   UNL     1       3.239  -3.080   0.232  0.00  0.00    +0.034 A 
ATOM      3  C   UNL     1       3.876  -3.651  -0.861  0.00  0.00    +0.027 A 
ATOM      4  C   UNL     1       3.734  -3.087  -2.122  0.00  0.00    +0.045 A 
ATOM      5  C   UNL     1       2.955  -1.950  -2.293  0.00  0.00    +0.027 A 
ATOM      6  C   UNL     1       2.311  -1.379  -1.205  0.00  0.00    +0.034 A 
ENDROOT
BRANCH   1   8
ATOM      7  N   UNL     1       0.598  -0.656   1.210  0.00  0.00    -0.222 N 
ATOM      8  C   UNL     1       1.776  -1.328   1.227  0.00  0.00    +0.182 A 
ATOM      9  N   UNL     1       2.199  -1.335   2.473  0.00  0.00    -0.108 NA
ATOM     10  N   UNL     1       1.369  -0.715   3.233  0.00  0.00    -0.023 NA
ATOM     11  N   UNL     1       0.376  -0.269   2.544  0.00  0.00    -0.043 NA
BRANCH   7  13
ATOM     12  C   UNL     1      -0.233   1.111  -0.262  0.00  0.00    +0.033 C 
ATOM     13  C   UNL     1      -0.257  -0.386   0.051  0.00  0.00    +0.111 C 
BRANCH  13  14
ATOM     14  C   UNL     1      -1.691  -0.819   0.363  0.00  0.00    +0.013 C 
ATOM     15  C   UNL     1      -2.245  -2.026  -0.397  0.00  0.00    +0.006 C 
ATOM     16  C   UNL     1      -2.742  -0.618  -0.730  0.00  0.00    +0.006 C 
ENDBRANCH  13  14
ENDBRANCH   7  13
ENDBRANCH   1   8
BRANCH   5  17
ATOM     17  N   UNL     1       2.815  -1.385  -3.563  0.00  0.00    -0.358 N 
ATOM     18  H   UNL     1       3.261  -1.787  -4.324  0.00  0.00    +0.142 HD
ATOM     19  H   UNL     1       2.271  -0.591  -3.683  0.00  0.00    +0.142 HD
ENDBRANCH   5  17
BRANCH   3  20
ATOM     20  N   UNL     1       4.660  -4.794  -0.692  0.00  0.00    -0.358 N 
ATOM     21  H   UNL     1       4.760  -5.189   0.188  0.00  0.00    +0.142 HD
ATOM     22  H   UNL     1       5.106  -5.194  -1.456  0.00  0.00    +0.142 HD
ENDBRANCH   3  20
TORSDOF 5
