REMARK  Name = ZINC63571962
REMARK  6 active torsions:
REMARK  status: ('A' for Active; 'I' for Inactive)
REMARK    1  A    between atoms: C_1  and  C_2
REMARK    2  A    between atoms: C_2  and  C_3
REMARK    3  A    between atoms: C_8  and  N_9
REMARK    4  A    between atoms: C_25  and  C_27
REMARK    5  A    between atoms: C_30  and  O_33
REMARK    6  A    between atoms: O_33  and  C_34
REMARK                            x       y       z     vdW  Elec       q    Type
REMARK                         _______ _______ _______ _____ _____    ______ ____
ROOT
ATOM      1  N   UNL     1       2.770  -0.050   0.153  0.00  0.00    -0.269 N 
ATOM      2  C   UNL     1       4.082  -0.349   0.080  0.00  0.00    +0.307 C 
ATOM      3  O   UNL     1       4.545  -0.809  -0.946  0.00  0.00    -0.252 OA
ATOM      4  N   UNL     1       4.881  -0.140   1.145  0.00  0.00    -0.276 N 
ATOM      5  C   UNL     1       4.297   0.307   2.414  0.00  0.00    +0.114 C 
ATOM      6  C   UNL     1       4.949   1.635   2.839  0.00  0.00    +0.052 C 
ATOM      7  C   UNL     1       6.436   1.469   2.646  0.00  0.00    -0.035 C 
ATOM      8  C   UNL     1       7.457   1.678   3.468  0.00  0.00    -0.001 A 
ATOM      9  C   UNL     1       7.522   2.249   4.823  0.00  0.00    +0.010 A 
ATOM     10  C   UNL     1       8.755   2.298   5.393  0.00  0.00    +0.001 A 
ATOM     11  C   UNL     1       9.915   1.843   4.759  0.00  0.00    +0.002 A 
ATOM     12  C   UNL     1       9.949   1.312   3.511  0.00  0.00    +0.026 A 
ATOM     13  C   UNL     1       8.714   1.214   2.806  0.00  0.00    +0.043 A 
ATOM     14  N   UNL     1       8.462   0.776   1.608  0.00  0.00    -0.375 N 
ATOM     15  C   UNL     1       7.035   0.962   1.339  0.00  0.00    +0.131 C 
ATOM     16  C   UNL     1       6.330  -0.366   1.023  0.00  0.00    +0.134 C 
ATOM     17  H   UNL     1       2.414   0.379   0.947  0.00  0.00    +0.156 HD
ATOM     18  H   UNL     1       9.109   0.391   0.996  0.00  0.00    +0.160 HD
ENDROOT
BRANCH   1  24
ATOM     19  C   UNL     1       0.584  -0.643  -0.684  0.00  0.00    -0.026 A 
ATOM     20  C   UNL     1      -0.253  -0.940  -1.742  0.00  0.00    +0.005 A 
ATOM     21  C   UNL     1       0.244  -0.959  -3.033  0.00  0.00    +0.000 A 
ATOM     22  C   UNL     1       1.578  -0.681  -3.268  0.00  0.00    +0.002 A 
ATOM     23  C   UNL     1       2.419  -0.383  -2.214  0.00  0.00    +0.023 A 
ATOM     24  C   UNL     1       1.922  -0.357  -0.917  0.00  0.00    +0.038 A 
BRANCH  19  26
ATOM     25  C   UNL     1      -0.350   0.808   1.097  0.00  0.00    +0.009 C 
ATOM     26  C   UNL     1       0.042  -0.622   0.722  0.00  0.00    +0.033 C 
ENDBRANCH  19  26
ENDBRANCH   1  24
BRANCH  16  27
ATOM     27  C   UNL     1       6.765  -1.425   2.004  0.00  0.00    -0.024 A 
ATOM     28  C   UNL     1       7.383  -2.575   1.550  0.00  0.00    +0.009 A 
ATOM     29  C   UNL     1       7.783  -3.546   2.447  0.00  0.00    +0.046 A 
ATOM     30  C   UNL     1       7.563  -3.367   3.805  0.00  0.00    +0.120 A 
ATOM     31  C   UNL     1       6.943  -2.212   4.258  0.00  0.00    +0.046 A 
ATOM     32  C   UNL     1       6.551  -1.241   3.358  0.00  0.00    +0.009 A 
BRANCH  30  33
ATOM     33  O   UNL     1       7.955  -4.322   4.689  0.00  0.00    -0.495 OA
ATOM     34  C   UNL     1       7.697  -4.070   6.072  0.00  0.00    +0.277 C 
ENDBRANCH  30  33
ENDBRANCH  16  27
TORSDOF 4
