REMARK  Name = ZINC31919317
REMARK  6 active torsions:
REMARK  status: ('A' for Active; 'I' for Inactive)
REMARK    1  A    between atoms: C_1  and  C_2
REMARK    2  A    between atoms: N_6  and  C_21
REMARK    3  A    between atoms: C_9  and  C_14
REMARK    4  A    between atoms: C_14  and  C_16
REMARK    5  A    between atoms: C_14  and  N_20
REMARK    6  A    between atoms: C_21  and  C_22
REMARK                            x       y       z     vdW  Elec       q    Type
REMARK                         _______ _______ _______ _____ _____    ______ ____
ROOT
ATOM      1  C   UNL     1       0.055  -0.521   1.441  0.00  0.00    +0.062 C 
ATOM      2  C   UNL     1       0.002  -0.004   0.002  0.00  0.00    +0.256 C 
ATOM      3  C   UNL     1      -0.018   1.503   0.010  0.00  0.00    +0.261 C 
ATOM      4  O   UNL     1      -1.076   2.098   0.018  0.00  0.00    -0.271 OA
ATOM      5  N   UNL     1       1.145   2.189   0.003  0.00  0.00    -0.256 N 
ATOM      6  C   UNL     1       2.353   1.478  -0.049  0.00  0.00    +0.079 A 
ATOM      7  C   UNL     1       3.553   2.098   0.258  0.00  0.00    +0.032 A 
ATOM      8  C   UNL     1       4.733   1.379   0.200  0.00  0.00    -0.020 A 
ATOM      9  C   UNL     1       4.717   0.044  -0.163  0.00  0.00    +0.009 A 
ATOM     10  C   UNL     1       3.521  -0.580  -0.470  0.00  0.00    +0.048 A 
ATOM     11  C   UNL     1       2.337   0.133  -0.414  0.00  0.00    +0.143 A 
ATOM     12  O   UNL     1       1.152  -0.465  -0.712  0.00  0.00    -0.478 OA
ENDROOT
BRANCH   8  13
ATOM     13  C   UNL     1       6.040   2.051   0.534  0.00  0.00    +0.187 C 
BRANCH  13  14
ATOM     14  C   UNL     1       6.762   2.433  -0.760  0.00  0.00    +0.409 C 
ATOM     15  F   UNL     1       5.961   3.310  -1.500  0.00  0.00    -0.169 F 
ATOM     16  F   UNL     1       7.975   3.057  -0.451  0.00  0.00    -0.169 F 
ATOM     17  F   UNL     1       7.009   1.280  -1.514  0.00  0.00    -0.169 F 
ENDBRANCH  13  14
BRANCH  13  18
ATOM     18  N   UNL     1       6.880   1.129   1.310  0.00  0.00    -0.317 NA
ATOM     19  H   UNL     1       7.834   1.620   1.554  0.00  0.00    +0.119 HD
ATOM     20  H   UNL     1       6.361   0.855   2.240  0.00  0.00    +0.119 HD
ENDBRANCH  13  18
ENDBRANCH   8  13
BRANCH   5  21
ATOM     21  C   UNL     1       1.146   3.654   0.048  0.00  0.00    +0.209 C 
BRANCH  21  22
ATOM     22  C   UNL     1       1.181   4.112   1.483  0.00  0.00    +0.228 C 
ATOM     23  O   UNL     1       1.203   3.296   2.380  0.00  0.00    -0.274 OA
ATOM     24  N   UNL     1       1.187   5.429   1.769  0.00  0.00    -0.328 N 
ATOM     25  H   UNL     1       1.213   5.764   2.817  0.00  0.00    +0.145 HD
ATOM     26  H   UNL     1       1.167   6.169   0.956  0.00  0.00    +0.145 HD
ENDBRANCH  21  22
ENDBRANCH   5  21
TORSDOF 5
