REMARK  Name = ZINC08790416
REMARK  6 active torsions:
REMARK  status: ('A' for Active; 'I' for Inactive)
REMARK    1  A    between atoms: C_1  and  C_2
REMARK    2  A    between atoms: C_2  and  C_4
REMARK    3  A    between atoms: C_2  and  O_34
REMARK    4  A    between atoms: N_12  and  C_15
REMARK    5  A    between atoms: C_15  and  C_16
REMARK    6  A    between atoms: C_16  and  C_17
REMARK                            x       y       z     vdW  Elec       q    Type
REMARK                         _______ _______ _______ _____ _____    ______ ____
ROOT
ATOM      1  C   UNL     1       0.002  -0.004   0.002  0.00  0.00    -0.028 C 
ATOM      2  C   UNL     1      -1.437  -0.560  -0.025  0.00  0.00    +0.075 C 
ATOM      3  C   UNL     1      -1.366  -1.808  -0.950  0.00  0.00    +0.088 C 
ATOM      4  C   UNL     1      -2.235  -1.420  -2.125  0.00  0.00    +0.225 C 
ATOM      5  O   UNL     1      -2.463  -2.120  -3.088  0.00  0.00    -0.275 OA
ATOM      6  N   UNL     1      -2.713  -0.185  -1.937  0.00  0.00    -0.241 N 
ATOM      7  C   UNL     1      -2.326   0.392  -0.792  0.00  0.00    +0.224 C 
ATOM      8  O   UNL     1      -2.640   1.504  -0.428  0.00  0.00    -0.275 OA
ATOM      9  C   UNL     1       0.101  -1.875  -1.393  0.00  0.00    +0.050 C 
ATOM     10  C   UNL     1       0.881  -2.857  -0.566  0.00  0.00    -0.026 A 
ATOM     11  C   UNL     1       1.147  -2.960   0.781  0.00  0.00    +0.024 A 
ATOM     12  C   UNL     1       1.918  -4.008   1.256  0.00  0.00    +0.041 A 
ATOM     13  C   UNL     1       2.420  -4.948   0.373  0.00  0.00    +0.022 A 
ATOM     14  C   UNL     1       2.156  -4.847  -0.977  0.00  0.00    +0.025 A 
ATOM     15  C   UNL     1       1.382  -3.796  -1.463  0.00  0.00    +0.036 A 
ATOM     16  N   UNL     1       0.982  -3.482  -2.764  0.00  0.00    -0.286 N 
ATOM     17  C   UNL     1       0.226  -2.368  -2.808  0.00  0.00    +0.211 C 
ATOM     18  O   UNL     1      -0.259  -1.861  -3.798  0.00  0.00    -0.277 OA
ATOM     19 CL   UNL     1       2.255  -4.141   2.954  0.00  0.00    -0.084 Cl
ATOM     20  H   UNL     1       1.221  -4.006  -3.545  0.00  0.00    +0.155 HD
ATOM     21  N   UNL     1       0.608  -0.524  -1.226  0.00  0.00    +0.396 N 
ATOM     22  H   UNL     1       1.631  -0.537  -1.139  0.00  0.00    -0.083 HD
ATOM     23  H   UNL     1       0.340   0.058  -2.028  0.00  0.00    -0.083 HD
ENDROOT
BRANCH   1  25
ATOM     24  C   UNL     1       1.417   2.055  -0.000  0.00  0.00    +0.036 C 
ATOM     25  C   UNL     1      -0.019   1.526   0.010  0.00  0.00    +0.098 C 
BRANCH  25  26
ATOM     26  O   UNL     1      -0.688   1.987   1.186  0.00  0.00    -0.394 OA
ATOM     27  H   UNL     1      -0.272   1.702   2.012  0.00  0.00    +0.210 HD
ENDBRANCH  25  26
ENDBRANCH   1  25
BRANCH   6  28
ATOM     28  C   UNL     1      -3.588   0.483  -2.904  0.00  0.00    +0.121 C 
BRANCH  28  29
ATOM     29  C   UNL     1      -2.737   1.264  -3.907  0.00  0.00    +0.054 C 
BRANCH  29  30
ATOM     30  C   UNL     1      -3.637   1.950  -4.902  0.00  0.00    -0.046 A 
ATOM     31  C   UNL     1      -3.996   1.304  -6.070  0.00  0.00    +0.004 A 
ATOM     32  C   UNL     1      -4.825   1.932  -6.981  0.00  0.00    +0.000 A 
ATOM     33  C   UNL     1      -5.287   3.210  -6.727  0.00  0.00    +0.000 A 
ATOM     34  C   UNL     1      -4.924   3.858  -5.562  0.00  0.00    +0.000 A 
ATOM     35  C   UNL     1      -4.098   3.229  -4.649  0.00  0.00    +0.004 A 
ENDBRANCH  29  30
ENDBRANCH  28  29
ENDBRANCH   6  28
TORSDOF 5
