REMARK  Name = ZINC04009147
REMARK  5 active torsions:
REMARK  status: ('A' for Active; 'I' for Inactive)
REMARK    1  A    between atoms: C_1  and  C_2
REMARK    2  A    between atoms: C_2  and  C_4
REMARK    3  A    between atoms: C_6  and  C_18
REMARK    4  A    between atoms: C_12  and  C_13
REMARK    5  A    between atoms: C_12  and  O_17
REMARK                            x       y       z     vdW  Elec       q    Type
REMARK                         _______ _______ _______ _____ _____    ______ ____
ROOT
ATOM      1  C   UNL     1      -1.599  -0.708  -0.000  0.00  0.00    +0.139 C 
ATOM      2  C   UNL     1      -1.474  -2.147  -0.513  0.00  0.00    +0.120 C 
ATOM      3  N   UNL     1      -2.660  -2.904  -0.110  0.00  0.00    -0.292 N 
ATOM      4  C   UNL     1      -3.339  -2.596   1.005  0.00  0.00    +0.302 C 
ATOM      5  O   UNL     1      -4.311  -3.265   1.299  0.00  0.00    -0.253 OA
ATOM      6  N   UNL     1      -2.989  -1.581   1.808  0.00  0.00    -0.264 N 
ATOM      7  C   UNL     1      -1.824  -0.743   1.515  0.00  0.00    +0.243 C 
ATOM      8  H   UNL     1      -2.961  -3.644  -0.661  0.00  0.00    +0.151 HD
ATOM      9  H   UNL     1      -3.519  -1.395   2.598  0.00  0.00    +0.153 HD
ENDROOT
BRANCH   2  10
ATOM     10  C   UNL     1      -1.366  -2.138  -2.016  0.00  0.00    -0.026 A 
ATOM     11  C   UNL     1      -2.502  -1.993  -2.789  0.00  0.00    +0.007 A 
ATOM     12  C   UNL     1      -2.404  -1.985  -4.168  0.00  0.00    +0.020 A 
ATOM     13  C   UNL     1      -1.168  -2.123  -4.774  0.00  0.00    +0.041 A 
ATOM     14  C   UNL     1      -0.031  -2.268  -3.999  0.00  0.00    +0.020 A 
ATOM     15  C   UNL     1      -0.130  -2.270  -2.620  0.00  0.00    +0.007 A 
ATOM     16 CL   UNL     1      -1.044  -2.114  -6.505  0.00  0.00    -0.084 Cl
ENDBRANCH   2  10
BRANCH   7  17
ATOM     17  C   UNL     1      -2.068   0.677   2.029  0.00  0.00    +0.436 C 
ATOM     18  F   UNL     1      -3.120   1.258   1.313  0.00  0.00    -0.166 F 
ATOM     19  F   UNL     1      -2.399   0.630   3.388  0.00  0.00    -0.166 F 
ATOM     20  F   UNL     1      -0.909   1.441   1.858  0.00  0.00    -0.166 F 
ENDBRANCH   7  17
BRANCH   1  22
ATOM     21  C   UNL     1      -0.278   0.979  -1.491  0.00  0.00    +0.086 C 
ATOM     22  C   UNL     1      -0.332   0.050  -0.306  0.00  0.00    +0.140 C 
ATOM     23  O   UNL     1       0.639  -0.087   0.399  0.00  0.00    -0.297 OA
ENDBRANCH   1  22
BRANCH   7  24
ATOM     24  O   UNL     1      -0.671  -1.293   2.157  0.00  0.00    -0.364 OA
ATOM     25  H   UNL     1      -0.745  -1.346   3.119  0.00  0.00    +0.212 HD
ENDBRANCH   7  24
TORSDOF 4
