REMARK  Name = ZINC48733779
REMARK  9 active torsions:
REMARK  status: ('A' for Active; 'I' for Inactive)
REMARK    1  A    between atoms: C_1  and  N_2
REMARK    2  A    between atoms: N_2  and  C_3
REMARK    3  A    between atoms: N_2  and  C_4
REMARK    4  A    between atoms: C_4  and  C_6
REMARK    5  A    between atoms: C_4  and  C_25
REMARK    6  A    between atoms: C_6  and  N_7
REMARK    7  A    between atoms: C_8  and  C_10
REMARK    8  A    between atoms: N_12  and  C_13
REMARK    9  A    between atoms: C_18  and  N_19
REMARK                            x       y       z     vdW  Elec       q    Type
REMARK                         _______ _______ _______ _____ _____    ______ ____
ROOT
ATOM      1  C   UNL     1      -0.365  -4.888   2.776  0.00  0.00    +0.303 C 
ATOM      2  O   UNL     1       0.213  -4.196   3.588  0.00  0.00    -0.265 OA
ATOM      3  N   UNL     1      -0.457  -6.218   2.968  0.00  0.00    -0.276 N 
ATOM      4  H   UNL     1      -0.858  -6.780   2.286  0.00  0.00    +0.155 HD
ENDROOT
BRANCH   3   5
ATOM      5  C   UNL     1       0.027  -6.789   4.149  0.00  0.00    +0.055 A 
ATOM      6  C   UNL     1       1.045  -6.167   4.857  0.00  0.00    +0.025 A 
ATOM      7  C   UNL     1       1.521  -6.733   6.024  0.00  0.00    +0.002 A 
ATOM      8  C   UNL     1       0.986  -7.920   6.490  0.00  0.00    +0.002 A 
ATOM      9  C   UNL     1      -0.028  -8.548   5.792  0.00  0.00    +0.025 A 
ATOM     10  C   UNL     1      -0.517  -7.984   4.622  0.00  0.00    +0.057 A 
BRANCH  10  11
ATOM     11  N   UNL     1      -1.549  -8.614   3.916  0.00  0.00    -0.270 N 
ATOM     12  C   UNL     1      -1.340  -9.617   2.865  0.00  0.00    +0.114 C 
ATOM     13  C   UNL     1      -2.702 -10.327   2.696  0.00  0.00    +0.029 C 
ATOM     14  C   UNL     1      -3.687  -9.240   3.187  0.00  0.00    +0.098 C 
ATOM     15  C   UNL     1      -2.857  -8.384   4.118  0.00  0.00    +0.220 C 
ATOM     16  O   UNL     1      -3.308  -7.601   4.928  0.00  0.00    -0.275 OA
ENDBRANCH  10  11
ENDBRANCH   3   5
BRANCH   1  18
ATOM     17  N   UNL     1      -0.884  -2.933   1.372  0.00  0.00    -0.309 N 
ATOM     18  C   UNL     1      -0.976  -4.264   1.564  0.00  0.00    +0.299 C 
ATOM     19  O   UNL     1      -1.554  -4.956   0.752  0.00  0.00    -0.265 OA
ATOM     20  H   UNL     1      -0.422  -2.380   2.021  0.00  0.00    +0.149 HD
BRANCH  17  21
ATOM     21  C   UNL     1      -1.483  -2.321   0.183  0.00  0.00    +0.097 C 
BRANCH  21  22
ATOM     22  C   UNL     1      -1.349  -0.800   0.270  0.00  0.00    +0.016 C 
BRANCH  22  23
ATOM     23  C   UNL     1       0.108  -0.419   0.210  0.00  0.00    +0.093 A 
ATOM     24  C   UNL     1       0.759   0.034  -0.876  0.00  0.00    +0.043 A 
ATOM     25  C   UNL     1       2.098   0.264  -0.485  0.00  0.00    +0.041 A 
ATOM     26  C   UNL     1       2.185  -0.062   0.817  0.00  0.00    +0.195 A 
ATOM     27  O   UNL     1       0.976  -0.470   1.235  0.00  0.00    -0.469 OA
ENDBRANCH  22  23
BRANCH  22  29
ATOM     28  C   UNL     1      -1.885   1.139   1.577  0.00  0.00    -0.096 C 
ATOM     29  N   UNL     1      -1.926  -0.329   1.536  0.00  0.00    +0.384 N 
ATOM     30  C   UNL     1      -3.320  -0.783   1.637  0.00  0.00    -0.096 C 
ATOM     31  H   UNL     1      -1.394  -0.702   2.308  0.00  0.00    -0.082 HD
ENDBRANCH  22  29
ENDBRANCH  21  22
ENDBRANCH  17  21
ENDBRANCH   1  18
TORSDOF 7
