REMARK  Name = ZINC06143118
REMARK  10 active torsions:
REMARK  status: ('A' for Active; 'I' for Inactive)
REMARK    1  A    between atoms: C_3  and  O_20
REMARK    2  A    between atoms: C_6  and  C_7
REMARK    3  A    between atoms: C_12  and  O_19
REMARK    4  A    between atoms: C_14  and  O_18
REMARK    5  A    between atoms: O_20  and  C_21
REMARK    6  A    between atoms: C_23  and  O_36
REMARK    7  A    between atoms: C_25  and  O_35
REMARK    8  A    between atoms: C_27  and  O_34
REMARK    9  A    between atoms: C_29  and  C_32
REMARK   10  A    between atoms: C_32  and  O_33
REMARK                            x       y       z     vdW  Elec       q    Type
REMARK                         _______ _______ _______ _____ _____    ______ ____
ROOT
ATOM      1  C   UNL     1      -3.436   4.211  -0.871  0.00  0.00    +0.012 A 
ATOM      2  C   UNL     1      -4.576   4.988  -0.851  0.00  0.00    +0.046 A 
ATOM      3  C   UNL     1      -4.703   6.012   0.077  0.00  0.00    +0.124 A 
ATOM      4  C   UNL     1      -3.687   6.255   0.991  0.00  0.00    +0.046 A 
ATOM      5  C   UNL     1      -2.547   5.479   0.979  0.00  0.00    +0.012 A 
ATOM      6  C   UNL     1      -2.416   4.450   0.048  0.00  0.00    -0.011 A 
ENDROOT
BRANCH   6   7
ATOM      7  C   UNL     1      -1.191   3.613   0.032  0.00  0.00    +0.064 A 
ATOM      8  C   UNL     1       0.039   4.188   0.023  0.00  0.00    +0.208 A 
ATOM      9  O   UNL     1       1.167   3.472   0.009  0.00  0.00    -0.462 OA
ATOM     10  C   UNL     1       1.187   2.124   0.002  0.00  0.00    +0.145 A 
ATOM     11  C   UNL     1       2.393   1.438  -0.013  0.00  0.00    +0.092 A 
ATOM     12  C   UNL     1       2.404   0.052  -0.020  0.00  0.00    +0.124 A 
ATOM     13  C   UNL     1       1.214  -0.668  -0.013  0.00  0.00    +0.091 A 
ATOM     14  C   UNL     1       0.002  -0.004   0.002  0.00  0.00    +0.135 A 
ATOM     15  C   UNL     1      -0.017   1.397   0.010  0.00  0.00    +0.106 A 
ATOM     16  C   UNL     1      -1.285   2.143   0.032  0.00  0.00    +0.204 A 
ATOM     17  O   UNL     1      -2.362   1.571   0.045  0.00  0.00    -0.286 OA
BRANCH  14  18
ATOM     18  O   UNL     1      -1.161  -0.704   0.010  0.00  0.00    -0.506 OA
ATOM     19  H   UNL     1      -1.506  -0.902  -0.871  0.00  0.00    +0.292 HD
ENDBRANCH  14  18
BRANCH  12  20
ATOM     20  O   UNL     1       3.590  -0.609  -0.035  0.00  0.00    -0.507 OA
ATOM     21  H   UNL     1       3.925  -0.796  -0.922  0.00  0.00    +0.292 HD
ENDBRANCH  12  20
ENDBRANCH   6   7
BRANCH   3  22
ATOM     22  O   UNL     1      -5.825   6.779   0.092  0.00  0.00    -0.461 OA
BRANCH  22  23
ATOM     23  C   UNL     1      -6.832   6.474  -0.876  0.00  0.00    +0.339 C 
ATOM     24  C   UNL     1      -7.891   7.579  -0.876  0.00  0.00    +0.214 C 
ATOM     25  C   UNL     1      -8.997   7.215  -1.872  0.00  0.00    +0.180 C 
ATOM     26  C   UNL     1      -9.580   5.850  -1.495  0.00  0.00    +0.177 C 
ATOM     27  C   UNL     1      -8.455   4.812  -1.471  0.00  0.00    +0.179 C 
ATOM     28  O   UNL     1      -7.446   5.226  -0.548  0.00  0.00    -0.331 OA
BRANCH  26  29
ATOM     29  O   UNL     1     -10.184   5.930  -0.202  0.00  0.00    -0.386 OA
ATOM     30  H   UNL     1     -10.904   6.573  -0.143  0.00  0.00    +0.210 HD
ENDBRANCH  26  29
BRANCH  25  31
ATOM     31  O   UNL     1     -10.027   8.205  -1.825  0.00  0.00    -0.386 OA
ATOM     32  H   UNL     1      -9.726   9.097  -2.047  0.00  0.00    +0.210 HD
ENDBRANCH  25  31
BRANCH  24  33
ATOM     33  O   UNL     1      -8.450   7.705   0.433  0.00  0.00    -0.383 OA
ATOM     34  H   UNL     1      -7.803   7.930   1.116  0.00  0.00    +0.210 HD
ENDBRANCH  24  33
BRANCH  27  35
ATOM     35  C   UNL     1      -9.020   3.458  -1.037  0.00  0.00    +0.190 C 
BRANCH  35  36
ATOM     36  O   UNL     1      -7.996   2.465  -1.126  0.00  0.00    -0.392 OA
ATOM     37  H   UNL     1      -8.284   1.579  -0.865  0.00  0.00    +0.210 HD
ENDBRANCH  35  36
ENDBRANCH  27  35
ENDBRANCH  22  23
ENDBRANCH   3  22
TORSDOF 10
