REMARK  Name = ZINC00054529
REMARK  4 active torsions:
REMARK  status: ('A' for Active; 'I' for Inactive)
REMARK    1  A    between atoms: C_3  and  C_9
REMARK    2  A    between atoms: C_9  and  S_10
REMARK    3  A    between atoms: S_10  and  C_11
REMARK    4  A    between atoms: N_18  and  N_19
REMARK                            x       y       z     vdW  Elec       q    Type
REMARK                         _______ _______ _______ _____ _____    ______ ____
ROOT
ATOM      1  C   UNL     1      -4.532  -0.238   1.563  0.00  0.00    +0.214 A 
ATOM      2  N   UNL     1      -5.117  -0.577   0.439  0.00  0.00    -0.119 NA
ATOM      3  N   UNL     1      -6.201  -1.226   0.685  0.00  0.00    -0.106 NA
ATOM      4  C   UNL     1      -6.370  -1.338   1.980  0.00  0.00    +0.272 A 
ATOM      5  N   UNL     1      -5.308  -0.715   2.580  0.00  0.00    -0.170 N 
ATOM      6  N   UNL     1      -5.488  -0.827   3.960  0.00  0.00    -0.150 NA
ATOM      7  C   UNL     1      -6.582  -1.481   4.187  0.00  0.00    +0.244 A 
ATOM      8  N   UNL     1      -7.166  -1.820   2.995  0.00  0.00    -0.221 N 
ENDROOT
BRANCH   8   9
ATOM      9  N   UNL     1      -8.332  -2.515   2.841  0.00  0.00    -0.294 N 
ATOM     10  H   UNL     1      -8.158  -3.508   2.795  0.00  0.00    +0.163 HD
ATOM     11  H   UNL     1      -8.984  -2.296   3.580  0.00  0.00    +0.163 HD
ENDBRANCH   8   9
BRANCH   1  12
ATOM     12  S   UNL     1      -3.025   0.659   1.730  0.00  0.00    -0.080 S 
BRANCH  12  13
ATOM     13  C   UNL     1      -2.513   0.979   0.019  0.00  0.00    +0.114 C 
BRANCH  13  16
ATOM     14  C   UNL     1       1.175   1.783   0.000  0.00  0.00    +0.020 A 
ATOM     15  C   UNL     1      -0.013   1.076   0.008  0.00  0.00    +0.007 A 
ATOM     16  C   UNL     1      -1.219   1.750   0.017  0.00  0.00    -0.019 A 
ATOM     17  C   UNL     1      -1.238   3.134   0.031  0.00  0.00    +0.046 A 
ATOM     18  C   UNL     1      -0.050   3.842   0.023  0.00  0.00    +0.040 A 
ATOM     19  C   UNL     1       1.157   3.166   0.008  0.00  0.00    +0.042 A 
ATOM     20 CL   UNL     1       2.649   4.054  -0.001  0.00  0.00    -0.083 Cl
ATOM     21 CL   UNL     1      -2.753   3.981   0.050  0.00  0.00    -0.083 Cl
ENDBRANCH  13  16
ENDBRANCH  12  13
ENDBRANCH   1  12
TORSDOF 4
