REMARK  Name = ZINC19231754
REMARK  6 active torsions:
REMARK  status: ('A' for Active; 'I' for Inactive)
REMARK    1  A    between atoms: C_1  and  C_2
REMARK    2  A    between atoms: N_5  and  C_9
REMARK    3  A    between atoms: C_9  and  C_11
REMARK    4  A    between atoms: C_9  and  C_12
REMARK    5  A    between atoms: N_14  and  C_15
REMARK    6  A    between atoms: C_18  and  N_22
REMARK                            x       y       z     vdW  Elec       q    Type
REMARK                         _______ _______ _______ _____ _____    ______ ____
ROOT
ATOM      1  C   UNL     1       4.050   0.531   2.927  0.00  0.00    +0.234 C 
ATOM      2  O   UNL     1       4.078   1.701   2.608  0.00  0.00    -0.274 OA
ATOM      3  N   UNL     1       5.189  -0.102   3.271  0.00  0.00    -0.282 N 
ATOM      4  H   UNL     1       5.178  -1.182   3.475  0.00  0.00    +0.155 HD
ENDROOT
BRANCH   3   5
ATOM      5  C   UNL     1       6.389   0.618   3.369  0.00  0.00    +0.071 A 
ATOM      6  C   UNL     1       6.807   1.418   2.312  0.00  0.00    +0.065 A 
ATOM      7  C   UNL     1       7.987   2.130   2.410  0.00  0.00    +0.044 A 
ATOM      8  C   UNL     1       8.760   2.039   3.561  0.00  0.00    +0.027 A 
ATOM      9  C   UNL     1       8.344   1.236   4.615  0.00  0.00    +0.044 A 
ATOM     10  C   UNL     1       7.162   0.527   4.519  0.00  0.00    +0.065 A 
ATOM     11 CL   UNL     1       6.642  -0.477   5.837  0.00  0.00    -0.082 Cl
ATOM     12 CL   UNL     1       5.845   1.526   0.872  0.00  0.00    -0.082 Cl
BRANCH   8  13
ATOM     13  N   UNL     1       9.957   2.756   3.658  0.00  0.00    -0.358 N 
ATOM     14  H   UNL     1      10.569   2.684   4.569  0.00  0.00    +0.142 HD
ATOM     15  H   UNL     1      10.287   3.392   2.823  0.00  0.00    +0.142 HD
ENDBRANCH   8  13
ENDBRANCH   3   5
BRANCH   1  16
ATOM     16  C   UNL     1       2.740  -0.214   2.940  0.00  0.00    +0.140 C 
ATOM     17  C   UNL     1       2.493  -0.834   1.563  0.00  0.00    +0.034 C 
BRANCH  16  21
ATOM     18  C   UNL     1       1.084   3.212   6.061  0.00  0.00    +0.039 C 
ATOM     19  C   UNL     1       0.755   2.374   4.824  0.00  0.00    +0.129 C 
ATOM     20  C   UNL     1       1.940   1.462   4.495  0.00  0.00    +0.116 C 
ATOM     21  N   UNL     1       1.650   0.716   3.262  0.00  0.00    -0.287 NA
ATOM     22  C   UNL     1       1.395   1.636   2.144  0.00  0.00    +0.113 C 
ATOM     23  C   UNL     1       0.216   2.546   2.497  0.00  0.00    +0.175 C 
ATOM     24  O   UNL     1       0.503   3.239   3.714  0.00  0.00    -0.374 OA
ENDBRANCH  16  21
ENDBRANCH   1  16
TORSDOF 4
