REMARK  Name = ZINC15086120
REMARK  5 active torsions:
REMARK  status: ('A' for Active; 'I' for Inactive)
REMARK    1  A    between atoms: C_3  and  N_8
REMARK    2  A    between atoms: N_8  and  C_9
REMARK    3  A    between atoms: C_11  and  O_21
REMARK    4  A    between atoms: C_13  and  O_20
REMARK    5  A    between atoms: C_15  and  O_19
REMARK                            x       y       z     vdW  Elec       q    Type
REMARK                         _______ _______ _______ _____ _____    ______ ____
ROOT
ATOM      1  C   UNL     1       2.420   5.189  -0.104  0.00  0.00    +0.236 C 
ATOM      2  C   UNL     1       3.488   5.598  -1.122  0.00  0.00    +0.192 C 
ATOM      3  C   UNL     1       3.567   7.127  -1.180  0.00  0.00    +0.178 C 
ATOM      4  C   UNL     1       3.864   7.666   0.223  0.00  0.00    +0.171 C 
ATOM      5  C   UNL     1       2.782   7.177   1.188  0.00  0.00    +0.196 C 
ATOM      6  O   UNL     1       2.740   5.748   1.171  0.00  0.00    -0.354 OA
ENDROOT
BRANCH   1   7
ATOM      7  N   UNL     1       2.378   3.728  -0.001  0.00  0.00    -0.302 N 
ATOM      8  H   UNL     1       3.302   3.142  -0.117  0.00  0.00    +0.150 HD
BRANCH   7  11
ATOM      9  C   UNL     1      -1.163   3.178   0.756  0.00  0.00    +0.020 A 
ATOM     10  C   UNL     1       0.031   3.833   0.514  0.00  0.00    +0.044 A 
ATOM     11  C   UNL     1       1.171   3.083   0.244  0.00  0.00    +0.121 A 
ATOM     12  N   UNL     1       1.118   1.760   0.220  0.00  0.00    -0.239 NA
ATOM     13  C   UNL     1      -0.007   1.108   0.447  0.00  0.00    +0.128 A 
ATOM     14  C   UNL     1      -1.178   1.790   0.716  0.00  0.00    +0.036 A 
ATOM     15 BR   UNL     1      -2.783   0.842   1.033  0.00  0.00    -0.049 Br
ENDBRANCH   7  11
ENDBRANCH   1   7
BRANCH   4  16
ATOM     16  O   UNL     1       3.870   9.095   0.195  0.00  0.00    -0.387 OA
ATOM     17  H   UNL     1       4.066   9.661   1.117  0.00  0.00    +0.210 HD
ENDBRANCH   4  16
BRANCH   3  18
ATOM     18  O   UNL     1       4.612   7.518  -2.073  0.00  0.00    -0.386 OA
ATOM     19  H   UNL     1       4.819   8.584  -2.244  0.00  0.00    +0.210 HD
ENDBRANCH   3  18
BRANCH   2  20
ATOM     20  O   UNL     1       3.139   5.089  -2.411  0.00  0.00    -0.385 OA
ATOM     21  H   UNL     1       3.793   5.283  -3.274  0.00  0.00    +0.210 HD
ENDBRANCH   2  20
TORSDOF 5
