REMARK  Name = ZINC63479773
REMARK  4 active torsions:
REMARK  status: ('A' for Active; 'I' for Inactive)
REMARK    1  A    between atoms: C_7  and  C_10
REMARK    2  A    between atoms: C_10  and  C_11
REMARK    3  A    between atoms: N_19  and  C_22
REMARK    4  A    between atoms: C_22  and  C_23
REMARK                            x       y       z     vdW  Elec       q    Type
REMARK                         _______ _______ _______ _____ _____    ______ ____
ROOT
ATOM      1  C   UNL     1       0.457  -3.653  -1.462  0.00  0.00    +0.072 C 
ATOM      2  C   UNL     1      -0.573  -4.803  -1.491  0.00  0.00    +0.107 C 
ATOM      3  C   UNL     1      -0.058  -5.771  -2.593  0.00  0.00    +0.122 C 
ATOM      4  C   UNL     1       0.287  -7.024  -1.821  0.00  0.00    +0.228 C 
ATOM      5  O   UNL     1       0.725  -8.047  -2.304  0.00  0.00    -0.275 OA
ATOM      6  N   UNL     1       0.035  -6.830  -0.521  0.00  0.00    -0.239 N 
ATOM      7  C   UNL     1      -0.459  -5.608  -0.217  0.00  0.00    +0.227 C 
ATOM      8  O   UNL     1      -0.761  -5.215   0.889  0.00  0.00    -0.275 OA
ATOM      9  C   UNL     1       1.219  -5.107  -3.123  0.00  0.00    +0.136 C 
ATOM     10  N   UNL     1       1.703  -4.238  -2.025  0.00  0.00    -0.295 NA
ATOM     11  C   UNL     1       0.955  -4.338  -4.386  0.00  0.00    +0.005 A 
ATOM     12  C   UNL     1       0.124  -3.284  -4.698  0.00  0.00    +0.027 A 
ATOM     13  C   UNL     1       0.101  -2.779  -5.987  0.00  0.00    +0.041 A 
ATOM     14  C   UNL     1       0.914  -3.335  -6.959  0.00  0.00    +0.022 A 
ATOM     15  C   UNL     1       1.748  -4.389  -6.649  0.00  0.00    +0.025 A 
ATOM     16  C   UNL     1       1.778  -4.903  -5.355  0.00  0.00    +0.039 A 
ATOM     17  N   UNL     1       2.527  -5.946  -4.804  0.00  0.00    -0.283 N 
ATOM     18  C   UNL     1       2.256  -6.130  -3.497  0.00  0.00    +0.243 C 
ATOM     19  O   UNL     1       2.754  -6.958  -2.764  0.00  0.00    -0.273 OA
ATOM     20 CL   UNL     1      -0.946  -1.452  -6.382  0.00  0.00    -0.084 Cl
ATOM     21  H   UNL     1       2.312  -3.517  -2.380  0.00  0.00    +0.124 HD
ATOM     22  H   UNL     1       3.166  -6.476  -5.304  0.00  0.00    +0.155 HD
ENDROOT
BRANCH   1  23
ATOM     23  C   UNL     1       0.691  -3.186  -0.024  0.00  0.00    +0.052 C 
BRANCH  23  30
ATOM     24  C   UNL     1      -0.016   1.348   0.009  0.00  0.00    +0.001 A 
ATOM     25  C   UNL     1       1.166   2.101   0.002  0.00  0.00    +0.002 A 
ATOM     26  C   UNL     1       2.391   1.535  -0.013  0.00  0.00    +0.026 A 
ATOM     27  C   UNL     1       2.529   0.120  -0.022  0.00  0.00    +0.043 A 
ATOM     28  N   UNL     1       3.587  -0.654  -0.037  0.00  0.00    -0.380 N 
ATOM     29  C   UNL     1       3.143  -2.053  -0.041  0.00  0.00    +0.144 C 
ATOM     30  C   UNL     1       1.631  -2.008  -0.025  0.00  0.00    -0.040 C 
ATOM     31  C   UNL     1       1.295  -0.698  -0.014  0.00  0.00    -0.001 A 
ATOM     32  C   UNL     1       0.002  -0.004   0.002  0.00  0.00    +0.010 A 
ATOM     33  H   UNL     1       4.509  -0.353  -0.045  0.00  0.00    +0.160 HD
ENDBRANCH  23  30
ENDBRANCH   1  23
BRANCH   6  34
ATOM     34  C   UNL     1       0.270  -7.859   0.494  0.00  0.00    +0.148 C 
BRANCH  34  35
ATOM     35  C   UNL     1       1.696  -7.728   1.034  0.00  0.00    +0.136 C 
ATOM     36  C   UNL     1       1.992  -8.882   2.016  0.00  0.00    +0.035 C 
ATOM     37  C   UNL     1       2.816  -8.169   3.123  0.00  0.00    +0.031 C 
ATOM     38  C   UNL     1       2.148  -6.770   3.132  0.00  0.00    +0.160 C 
ATOM     39  O   UNL     1       1.830  -6.497   1.756  0.00  0.00    -0.375 OA
ENDBRANCH  34  35
ENDBRANCH   6  34
TORSDOF 4
