REMARK  Name = ZINC42192909
REMARK  4 active torsions:
REMARK  status: ('A' for Active; 'I' for Inactive)
REMARK    1  A    between atoms: C_6  and  N_7
REMARK    2  A    between atoms: C_9  and  S_11
REMARK    3  A    between atoms: S_11  and  C_14
REMARK    4  A    between atoms: C_14  and  C_15
REMARK                            x       y       z     vdW  Elec       q    Type
REMARK                         _______ _______ _______ _____ _____    ______ ____
ROOT
ATOM      1  C   UNL     1      -0.017   1.389   0.010  0.00  0.00    +0.026 A 
ATOM      2  C   UNL     1       1.163   2.102   0.002  0.00  0.00    +0.050 A 
ATOM      3  C   UNL     1       2.377   1.433  -0.013  0.00  0.00    +0.157 A 
ATOM      4  C   UNL     1       2.404   0.030  -0.021  0.00  0.00    +0.113 A 
ATOM      5  C   UNL     1       1.206  -0.685  -0.013  0.00  0.00    +0.054 A 
ATOM      6  C   UNL     1       0.002  -0.004   0.002  0.00  0.00    +0.027 A 
ATOM      7  N   UNL     1       3.716  -0.331  -0.035  0.00  0.00    -0.193 NA
ATOM      8  C   UNL     1       4.447   0.743  -0.036  0.00  0.00    +0.342 A 
ATOM      9  O   UNL     1       3.668   1.836  -0.023  0.00  0.00    -0.422 OA
ENDROOT
BRANCH   6  10
ATOM     10  N   UNL     1      -1.201  -0.717   0.010  0.00  0.00    -0.358 N 
ATOM     11  H   UNL     1      -2.047  -0.242   0.021  0.00  0.00    +0.142 HD
ATOM     12  H   UNL     1      -1.190  -1.687   0.005  0.00  0.00    +0.142 HD
ENDBRANCH   6  10
BRANCH   8  13
ATOM     13  S   UNL     1       6.208   0.762  -0.053  0.00  0.00    +0.052 S 
ATOM     14  O   UNL     1       6.564   1.997   0.553  0.00  0.00    -0.165 OA
ATOM     15  O   UNL     1       6.590  -0.472   0.539  0.00  0.00    -0.165 OA
BRANCH  13  16
ATOM     16  C   UNL     1       6.657   0.777  -1.811  0.00  0.00    +0.219 C 
BRANCH  16  17
ATOM     17  C   UNL     1       8.158   0.794  -1.946  0.00  0.00    +0.013 A 
ATOM     18  C   UNL     1       9.019  -0.249  -2.034  0.00  0.00    +0.014 A 
ATOM     19  C   UNL     1      10.372   0.006  -2.153  0.00  0.00    +0.028 A 
ATOM     20  C   UNL     1      10.798   1.294  -2.179  0.00  0.00    +0.078 A 
ATOM     21  S   UNL     1       9.262   2.193  -2.039  0.00  0.00    -0.080 S 
ATOM     22 CL   UNL     1      12.416   1.907  -2.318  0.00  0.00    -0.076 Cl
ENDBRANCH  16  17
ENDBRANCH  13  16
ENDBRANCH   8  13
TORSDOF 4
