REMARK  Name = ZINC61326984
REMARK  6 active torsions:
REMARK  status: ('A' for Active; 'I' for Inactive)
REMARK    1  A    between atoms: C_1  and  S_2
REMARK    2  A    between atoms: S_2  and  C_5
REMARK    3  A    between atoms: C_5  and  C_6
REMARK    4  A    between atoms: C_6  and  C_7
REMARK    5  A    between atoms: C_7  and  C_9
REMARK    6  A    between atoms: C_7  and  N_22
REMARK                            x       y       z     vdW  Elec       q    Type
REMARK                         _______ _______ _______ _____ _____    ______ ____
ROOT
ATOM      1  C   UNL     1       1.724  -3.713  -3.229  0.00  0.00    +0.102 A 
ATOM      2  N   UNL     1       2.674  -4.582  -2.780  0.00  0.00    -0.342 N 
ATOM      3  H   UNL     1       3.462  -4.362  -2.259  0.00  0.00    +0.167 HD
ATOM      4  C   UNL     1       2.301  -5.812  -3.202  0.00  0.00    +0.068 A 
ATOM      5  C   UNL     1       1.119  -5.679  -3.886  0.00  0.00    +0.042 A 
ATOM      6  N   UNL     1       0.808  -4.384  -3.881  0.00  0.00    -0.345 N 
ATOM      7  C   UNL     1       0.365  -6.840  -4.477  0.00  0.00    +0.060 C 
ATOM      8  C   UNL     1       1.324  -7.961  -4.892  0.00  0.00    +0.049 C 
ATOM      9  C   UNL     1       2.409  -8.140  -3.888  0.00  0.00    -0.001 A 
ATOM     10  C   UNL     1       2.928  -7.156  -3.064  0.00  0.00    +0.010 A 
ATOM     11  C   UNL     1       3.961  -7.535  -2.211  0.00  0.00    +0.018 A 
ATOM     12  C   UNL     1       4.393  -8.817  -2.211  0.00  0.00    +0.046 A 
ATOM     13  S   UNL     1       3.342  -9.574  -3.442  0.00  0.00    -0.101 S 
ATOM     14  H   UNL     1       0.023  -3.997  -4.300  0.00  0.00    +0.167 HD
ENDROOT
BRANCH   1  15
ATOM     15  C   UNL     1       1.724  -2.223  -3.006  0.00  0.00    +0.117 C 
BRANCH  15  16
ATOM     16  N   UNL     1       3.109  -1.742  -2.914  0.00  0.00    -0.321 NA
ATOM     17  H   UNL     1       3.138  -0.737  -2.829  0.00  0.00    +0.119 HD
ATOM     18  H   UNL     1       3.596  -2.184  -2.149  0.00  0.00    +0.119 HD
ENDBRANCH  15  16
BRANCH  15  19
ATOM     19  C   UNL     1       0.986  -1.902  -1.705  0.00  0.00    +0.049 C 
BRANCH  19  20
ATOM     20  C   UNL     1       0.877  -0.385  -1.541  0.00  0.00    +0.167 C 
BRANCH  20  22
ATOM     21  C   UNL     1      -0.022   1.810   0.012  0.00  0.00    +0.194 C 
ATOM     22  S   UNL     1       0.002  -0.004   0.002  0.00  0.00    -0.034 S 
ATOM     23  O   UNL     1       0.798  -0.449   1.092  0.00  0.00    -0.175 OA
ATOM     24  O   UNL     1      -1.335  -0.471  -0.113  0.00  0.00    -0.175 OA
ENDBRANCH  20  22
ENDBRANCH  19  20
ENDBRANCH  15  19
ENDBRANCH   1  15
TORSDOF 5
