REMARK  Name = ZINC12562884
REMARK  13 active torsions:
REMARK  status: ('A' for Active; 'I' for Inactive)
REMARK    1  A    between atoms: C_1  and  C_2
REMARK    2  A    between atoms: C_2  and  O_3
REMARK    3  A    between atoms: O_3  and  C_4
REMARK    4  A    between atoms: C_4  and  C_6
REMARK    5  A    between atoms: C_10  and  N_11
REMARK    6  A    between atoms: C_12  and  C_14
REMARK    7  A    between atoms: C_14  and  S_15
REMARK    8  A    between atoms: S_15  and  C_16
REMARK    9  A    between atoms: N_20  and  C_21
REMARK   10  A    between atoms: C_28  and  C_33
REMARK   11  A    between atoms: C_28  and  C_34
REMARK   12  A    between atoms: C_29  and  C_31
REMARK   13  A    between atoms: C_29  and  C_32
REMARK                            x       y       z     vdW  Elec       q    Type
REMARK                         _______ _______ _______ _____ _____    ______ ____
ROOT
ATOM      1  C   UNL     1       7.741   5.949  -0.041  0.00  0.00    +0.091 A 
ATOM      2  C   UNL     1       9.187   6.019  -0.050  0.00  0.00    -0.024 A 
ATOM      3  C   UNL     1       9.829   4.829  -0.069  0.00  0.00    -0.016 A 
ATOM      4  S   UNL     1       8.534   3.623  -0.065  0.00  0.00    -0.079 S 
ATOM      5  C   UNL     1       7.164   4.683  -0.043  0.00  0.00    +0.086 A 
ATOM      6  C   UNL     1      11.308   4.615  -0.098  0.00  0.00    -0.041 C 
ATOM      7  C   UNL     1      11.328   6.979   0.704  0.00  0.00    -0.069 C 
ATOM      8  C   UNL     1      10.020   7.294  -0.032  0.00  0.00    +0.024 C 
ATOM      9  C   UNL     1      11.024   6.704   2.180  0.00  0.00    -0.010 C 
ATOM     10  C   UNL     1      12.224   8.230   0.631  0.00  0.00    -0.010 C 
ATOM     11  C   UNL     1      11.696   3.594   0.980  0.00  0.00    -0.005 C 
ATOM     12  C   UNL     1      11.686   4.026  -1.470  0.00  0.00    -0.005 C 
ATOM     13  N   UNL     1      12.095   5.869   0.083  0.00  0.00    +0.389 N 
ATOM     14  H   UNL     1      12.423   6.180  -0.839  0.00  0.00    -0.084 HD
ATOM     15  H   UNL     1      12.902   5.660   0.682  0.00  0.00    -0.084 HD
ENDROOT
BRANCH   5  16
ATOM     16  N   UNL     1       5.818   4.353  -0.031  0.00  0.00    -0.279 N 
ATOM     17  C   UNL     1       5.442   3.058  -0.035  0.00  0.00    +0.228 C 
ATOM     18  O   UNL     1       6.282   2.183  -0.048  0.00  0.00    -0.275 OA
ATOM     19  H   UNL     1       5.147   5.053  -0.020  0.00  0.00    +0.155 HD
BRANCH  17  20
ATOM     20  C   UNL     1       3.979   2.699  -0.022  0.00  0.00    +0.173 C 
BRANCH  20  21
ATOM     21  S   UNL     1       3.800   0.898  -0.030  0.00  0.00    -0.076 S 
BRANCH  21  22
ATOM     22  C   UNL     1       2.043   0.764  -0.013  0.00  0.00    +0.196 A 
ATOM     23  N   UNL     1       1.185   1.758   0.000  0.00  0.00    -0.122 NA
ATOM     24  N   UNL     1      -0.016   1.299   0.009  0.00  0.00    -0.137 NA
ATOM     25  C   UNL     1       0.002  -0.004   0.002  0.00  0.00    +0.230 A 
ATOM     26  N   UNL     1       1.315  -0.393  -0.013  0.00  0.00    -0.274 N 
BRANCH  26  27
ATOM     27  C   UNL     1       1.810  -1.706  -0.025  0.00  0.00    +0.085 A 
ATOM     28  C   UNL     1       1.565  -2.532  -1.113  0.00  0.00    +0.029 A 
ATOM     29  C   UNL     1       2.058  -3.822  -1.125  0.00  0.00    +0.002 A 
ATOM     30  C   UNL     1       2.786  -4.297  -0.049  0.00  0.00    +0.003 A 
ATOM     31  C   UNL     1       3.028  -3.480   1.040  0.00  0.00    +0.040 A 
ATOM     32  C   UNL     1       2.542  -2.185   1.056  0.00  0.00    +0.147 A 
ATOM     33  F   UNL     1       2.778  -1.387   2.120  0.00  0.00    -0.203 F 
ENDBRANCH  26  27
ENDBRANCH  21  22
ENDBRANCH  20  21
ENDBRANCH  17  20
ENDBRANCH   5  16
BRANCH   1  34
ATOM     34  C   UNL     1       6.909   7.154  -0.035  0.00  0.00    +0.342 C 
ATOM     35  O   UNL     1       6.567   7.652   1.021  0.00  0.00    -0.245 OA
BRANCH  34  36
ATOM     36  O   UNL     1       6.521   7.712  -1.200  0.00  0.00    -0.461 OA
BRANCH  36  38
ATOM     37  C   UNL     1       5.359   9.389  -2.530  0.00  0.00    +0.048 C 
ATOM     38  C   UNL     1       5.697   8.904  -1.118  0.00  0.00    +0.229 C 
ENDBRANCH  36  38
ENDBRANCH  34  36
ENDBRANCH   1  34
TORSDOF 8
