REMARK  Name = ZINC38971466
REMARK  6 active torsions:
REMARK  status: ('A' for Active; 'I' for Inactive)
REMARK    1  A    between atoms: C_1  and  C_2
REMARK    2  A    between atoms: C_2  and  N_3
REMARK    3  A    between atoms: C_9  and  N_18
REMARK    4  A    between atoms: C_14  and  N_17
REMARK    5  A    between atoms: N_18  and  C_19
REMARK    6  A    between atoms: C_19  and  C_20
REMARK                            x       y       z     vdW  Elec       q    Type
REMARK                         _______ _______ _______ _____ _____    ______ ____
ROOT
ATOM      1  N   UNL     1       0.690  -0.478  -1.207  0.00  0.00    -0.298 NA
ATOM      2  C   UNL     1      -0.088  -0.159  -2.416  0.00  0.00    +0.089 C 
ATOM      3  C   UNL     1       0.810  -0.373  -3.634  0.00  0.00    +0.051 C 
ATOM      4  C   UNL     1       1.474  -1.724  -3.560  0.00  0.00    -0.028 C 
ATOM      5  C   UNL     1       1.533  -2.421  -2.426  0.00  0.00    -0.013 C 
ATOM      6  C   UNL     1       0.939  -1.921  -1.138  0.00  0.00    +0.119 C 
ATOM      7  C   UNL     1       2.223  -3.768  -2.427  0.00  0.00    +0.203 C 
ATOM      8  N   UNL     1       2.809  -4.294  -3.661  0.00  0.00    -0.240 NA
ATOM      9  C   UNL     1       2.742  -3.610  -4.756  0.00  0.00    +0.181 C 
ATOM     10  C   UNL     1       2.072  -2.284  -4.775  0.00  0.00    +0.063 C 
ATOM     11  C   UNL     1       2.188  -1.854  -6.078  0.00  0.00    +0.121 C 
ATOM     12  N   UNL     1       2.849  -2.803  -6.771  0.00  0.00    -0.262 N 
ATOM     13  N   UNL     1       3.174  -3.810  -6.042  0.00  0.00    -0.152 NA
ATOM     14  H   UNL     1       3.057  -2.733  -7.716  0.00  0.00    +0.190 HD
ENDROOT
BRANCH  11  15
ATOM     15  N   UNL     1       1.708  -0.652  -6.589  0.00  0.00    -0.343 N 
ATOM     16  H   UNL     1       1.242  -0.030  -6.009  0.00  0.00    +0.144 HD
ATOM     17  H   UNL     1       1.839  -0.437  -7.526  0.00  0.00    +0.144 HD
ENDBRANCH  11  15
BRANCH   1  19
ATOM     18  C   UNL     1      -0.019   1.526   0.010  0.00  0.00    +0.020 C 
ATOM     19  C   UNL     1       0.002  -0.004   0.002  0.00  0.00    +0.081 C 
ENDBRANCH   1  19
BRANCH   7  20
ATOM     20  N   UNL     1       1.247  -4.758  -1.952  0.00  0.00    -0.288 NA
ATOM     21  H   UNL     1       0.429  -4.306  -1.572  0.00  0.00    +0.125 HD
BRANCH  20  22
ATOM     22  C   UNL     1       1.852  -5.665  -0.968  0.00  0.00    +0.118 C 
BRANCH  22  23
ATOM     23  C   UNL     1       0.823  -6.663  -0.504  0.00  0.00    -0.034 A 
ATOM     24  C   UNL     1       0.024  -6.377   0.586  0.00  0.00    +0.005 A 
ATOM     25  C   UNL     1      -0.920  -7.293   1.011  0.00  0.00    +0.000 A 
ATOM     26  C   UNL     1      -1.065  -8.496   0.345  0.00  0.00    +0.000 A 
ATOM     27  C   UNL     1      -0.266  -8.782  -0.747  0.00  0.00    +0.000 A 
ATOM     28  C   UNL     1       0.675  -7.864  -1.174  0.00  0.00    +0.005 A 
ENDBRANCH  22  23
ENDBRANCH  20  22
ENDBRANCH   7  20
TORSDOF 5
