REMARK  Name = ZINC39656845
REMARK  9 active torsions:
REMARK  status: ('A' for Active; 'I' for Inactive)
REMARK    1  A    between atoms: C_1  and  C_2
REMARK    2  A    between atoms: C_2  and  C_4
REMARK    3  A    between atoms: C_2  and  N_11
REMARK    4  A    between atoms: C_12  and  C_14
REMARK    5  A    between atoms: C_25  and  C_27
REMARK    6  A    between atoms: C_30  and  O_35
REMARK    7  A    between atoms: C_31  and  O_33
REMARK    8  A    between atoms: O_33  and  C_34
REMARK    9  A    between atoms: O_35  and  C_36
REMARK                            x       y       z     vdW  Elec       q    Type
REMARK                         _______ _______ _______ _____ _____    ______ ____
ROOT
ATOM      1  C   UNL     1       2.867  -1.316   3.035  0.00  0.00    +0.100 C 
ATOM      2  C   UNL     1       2.241  -2.728   3.092  0.00  0.00    +0.121 C 
ATOM      3  N   UNL     1       3.212  -3.596   2.386  0.00  0.00    -0.296 N 
ATOM      4  C   UNL     1       4.538  -3.092   2.815  0.00  0.00    +0.115 C 
ATOM      5  C   UNL     1       4.375  -1.559   2.857  0.00  0.00    -0.004 C 
ATOM      6  C   UNL     1       5.147  -0.978   4.037  0.00  0.00    -0.010 C 
ATOM      7  C   UNL     1       6.648  -1.180   3.808  0.00  0.00    -0.082 C 
ATOM      8  N   UNL     1       7.049  -0.518   2.561  0.00  0.00    +0.379 N 
ATOM      9  C   UNL     1       6.371  -1.146   1.421  0.00  0.00    -0.082 C 
ATOM     10  C   UNL     1       4.858  -0.942   1.548  0.00  0.00    -0.010 C 
ATOM     11  C   UNL     1       2.949  -4.615   1.544  0.00  0.00    +0.247 C 
ATOM     12  O   UNL     1       1.806  -4.832   1.190  0.00  0.00    -0.270 OA
ATOM     13  H   UNL     1       6.797   0.459   2.604  0.00  0.00    -0.086 HD
ATOM     14  H   UNL     1       8.047  -0.600   2.444  0.00  0.00    -0.086 HD
ENDROOT
BRANCH  11  15
ATOM     15  C   UNL     1       4.048  -5.469   1.052  0.00  0.00    +0.041 A 
ATOM     16  C   UNL     1       5.253  -5.532   1.754  0.00  0.00    +0.017 A 
ATOM     17  C   UNL     1       6.278  -6.330   1.294  0.00  0.00    +0.050 A 
ATOM     18  C   UNL     1       6.116  -7.072   0.132  0.00  0.00    +0.162 A 
ATOM     19  C   UNL     1       4.916  -7.013  -0.574  0.00  0.00    +0.162 A 
ATOM     20  C   UNL     1       3.882  -6.220  -0.115  0.00  0.00    +0.062 A 
BRANCH  19  21
ATOM     21  O   UNL     1       4.760  -7.740  -1.713  0.00  0.00    -0.491 OA
ATOM     22  C   UNL     1       3.504  -7.632  -2.386  0.00  0.00    +0.277 C 
ENDBRANCH  19  21
BRANCH  18  23
ATOM     23  O   UNL     1       7.129  -7.856  -0.318  0.00  0.00    -0.491 OA
ATOM     24  C   UNL     1       8.332  -7.869   0.454  0.00  0.00    +0.277 C 
ENDBRANCH  18  23
ENDBRANCH  11  15
BRANCH   1  26
ATOM     25  N   UNL     1       2.329   0.802   1.876  0.00  0.00    -0.308 N 
ATOM     26  C   UNL     1       2.317  -0.546   1.862  0.00  0.00    +0.219 C 
ATOM     27  O   UNL     1       1.865  -1.138   0.905  0.00  0.00    -0.275 OA
ATOM     28  H   UNL     1       2.691   1.276   2.641  0.00  0.00    +0.149 HD
BRANCH  25  30
ATOM     29  C   UNL     1       2.881   1.699  -0.332  0.00  0.00    +0.033 C 
ATOM     30  C   UNL     1       1.794   1.551   0.736  0.00  0.00    +0.100 C 
BRANCH  30  31
ATOM     31  C   UNL     1       1.352   2.916   1.194  0.00  0.00    -0.027 A 
ATOM     32  C   UNL     1       2.114   3.619   2.109  0.00  0.00    +0.006 A 
ATOM     33  C   UNL     1       1.708   4.871   2.530  0.00  0.00    +0.015 A 
ATOM     34  C   UNL     1       0.540   5.422   2.035  0.00  0.00    +0.018 A 
ATOM     35  C   UNL     1      -0.223   4.719   1.120  0.00  0.00    +0.015 A 
ATOM     36  C   UNL     1       0.186   3.469   0.696  0.00  0.00    +0.006 A 
ATOM     37 BR   UNL     1      -0.016   7.136   2.611  0.00  0.00    -0.050 Br
ENDBRANCH  30  31
ENDBRANCH  25  30
ENDBRANCH   1  26
TORSDOF 6
