REMARK  Name = ZINC17078244
REMARK  2 active torsions:
REMARK  status: ('A' for Active; 'I' for Inactive)
REMARK    1  A    between atoms: C_12  and  C_16
REMARK    2  A    between atoms: N_18  and  C_19
REMARK                            x       y       z     vdW  Elec       q    Type
REMARK                         _______ _______ _______ _____ _____    ______ ____
ROOT
ATOM      1  C   UNL     1      -2.895   8.184   0.019  0.00  0.00    +0.001 A 
ATOM      2  C   UNL     1      -1.641   7.579   0.020  0.00  0.00    +0.001 A 
ATOM      3  C   UNL     1      -1.520   6.220   0.015  0.00  0.00    +0.009 A 
ATOM      4  C   UNL     1      -2.669   5.423   0.010  0.00  0.00    -0.007 A 
ATOM      5  C   UNL     1      -3.945   6.035   0.009  0.00  0.00    -0.017 A 
ATOM      6  C   UNL     1      -4.034   7.436   0.014  0.00  0.00    +0.008 A 
ATOM      7  C   UNL     1      -5.100   5.229   0.003  0.00  0.00    +0.012 A 
ATOM      8  C   UNL     1      -5.009   3.875  -0.000  0.00  0.00    +0.047 A 
ATOM      9  C   UNL     1      -3.774   3.216   0.000  0.00  0.00    +0.138 A 
ATOM     10  C   UNL     1      -2.588   3.961   0.005  0.00  0.00    +0.026 A 
ATOM     11  C   UNL     1      -1.334   3.314   0.011  0.00  0.00    +0.030 A 
ATOM     12  C   UNL     1      -1.297   1.929   0.002  0.00  0.00    +0.097 A 
ATOM     13  C   UNL     1      -2.572   1.192  -0.003  0.00  0.00    +0.205 A 
ATOM     14  N   UNL     1      -2.571  -0.115  -0.006  0.00  0.00    -0.369 N 
ATOM     15  O   UNL     1      -3.739   1.866  -0.004  0.00  0.00    -0.439 OA
ATOM     16  H   UNL     1      -3.523  -0.666  -0.010  0.00  0.00    +0.159 HD
ATOM     17  H   UNL     1      -1.618  -0.664  -0.005  0.00  0.00    +0.159 HD
ENDROOT
BRANCH  12  18
ATOM     18  C   UNL     1      -0.014   1.212   0.003  0.00  0.00    +0.253 C 
ATOM     19  O   UNL     1       0.003  -0.004  -0.000  0.00  0.00    -0.270 OA
ATOM     20  N   UNL     1       1.143   1.902   0.001  0.00  0.00    -0.280 N 
ATOM     21  H   UNL     1       1.129   3.000  -0.071  0.00  0.00    +0.155 HD
BRANCH  20  22
ATOM     22  C   UNL     1       2.363   1.223   0.092  0.00  0.00    +0.054 A 
ATOM     23  C   UNL     1       2.513  -0.021  -0.508  0.00  0.00    +0.025 A 
ATOM     24  C   UNL     1       3.718  -0.690  -0.418  0.00  0.00    +0.003 A 
ATOM     25  C   UNL     1       4.776  -0.123   0.269  0.00  0.00    +0.021 A 
ATOM     26  C   UNL     1       4.631   1.116   0.868  0.00  0.00    +0.061 A 
ATOM     27  C   UNL     1       3.429   1.793   0.776  0.00  0.00    +0.080 A 
ATOM     28 CL   UNL     1       3.249   3.351   1.522  0.00  0.00    -0.080 Cl
ATOM     29 CL   UNL     1       5.963   1.824   1.728  0.00  0.00    -0.082 Cl
ENDBRANCH  20  22
ENDBRANCH  12  18
TORSDOF 2
