REMARK  Name = ZINC27692706
REMARK  4 active torsions:
REMARK  status: ('A' for Active; 'I' for Inactive)
REMARK    1  A    between atoms: C_1  and  C_2
REMARK    2  A    between atoms: C_2  and  C_4
REMARK    3  A    between atoms: C_2  and  N_12
REMARK    4  A    between atoms: C_13  and  C_23
REMARK                            x       y       z     vdW  Elec       q    Type
REMARK                         _______ _______ _______ _____ _____    ______ ____
ROOT
ATOM      1  N   UNL     1      -4.094   5.773   1.138  0.00  0.00    -0.275 N 
ATOM      2  C   UNL     1      -4.219   7.146   1.639  0.00  0.00    +0.140 C 
ATOM      3  C   UNL     1      -5.558   7.650   1.159  0.00  0.00    -0.010 A 
ATOM      4  C   UNL     1      -6.224   8.844   1.308  0.00  0.00    +0.006 A 
ATOM      5  C   UNL     1      -7.477   9.012   0.744  0.00  0.00    +0.000 A 
ATOM      6  C   UNL     1      -8.062   7.982   0.029  0.00  0.00    +0.001 A 
ATOM      7  C   UNL     1      -7.403   6.780  -0.126  0.00  0.00    +0.013 A 
ATOM      8  C   UNL     1      -6.139   6.603   0.441  0.00  0.00    +0.042 A 
ATOM      9  C   UNL     1      -5.205   5.461   0.449  0.00  0.00    +0.248 C 
ATOM     10  O   UNL     1      -5.412   4.390  -0.089  0.00  0.00    -0.270 OA
ENDROOT
BRANCH   2  11
ATOM     11  C   UNL     1      -3.115   8.005   1.079  0.00  0.00    +0.002 A 
ATOM     12  C   UNL     1      -2.442   7.796  -0.063  0.00  0.00    +0.089 A 
ATOM     13  N   UNL     1      -1.513   8.784  -0.245  0.00  0.00    -0.360 N 
ATOM     14  H   UNL     1      -0.867   8.773  -1.135  0.00  0.00    +0.165 HD
ATOM     15  C   UNL     1      -1.567   9.675   0.802  0.00  0.00    +0.047 A 
ATOM     16  C   UNL     1      -2.576   9.230   1.675  0.00  0.00    +0.005 A 
ATOM     17  C   UNL     1      -2.853   9.944   2.842  0.00  0.00    +0.010 A 
ATOM     18  C   UNL     1      -2.148  11.080   3.126  0.00  0.00    +0.001 A 
ATOM     19  C   UNL     1      -1.155  11.527   2.265  0.00  0.00    +0.002 A 
ATOM     20  C   UNL     1      -0.862  10.834   1.111  0.00  0.00    +0.026 A 
ENDBRANCH   2  11
BRANCH   1  22
ATOM     21  C   UNL     1      -3.410   3.632   2.104  0.00  0.00    +0.038 C 
ATOM     22  C   UNL     1      -2.949   4.886   1.357  0.00  0.00    +0.160 C 
BRANCH  22  23
ATOM     23  C   UNL     1      -2.358   4.490   0.028  0.00  0.00    +0.236 C 
ATOM     24  O   UNL     1      -2.932   4.780  -1.001  0.00  0.00    -0.274 OA
ATOM     25  N   UNL     1      -1.193   3.814  -0.017  0.00  0.00    -0.300 N 
ATOM     26  C   UNL     1      -0.451   3.518   1.216  0.00  0.00    +0.108 C 
ATOM     27  C   UNL     1       0.986   4.027   1.062  0.00  0.00    +0.019 C 
ATOM     28  C   UNL     1       1.603   3.426  -0.203  0.00  0.00    +0.003 C 
ATOM     29  C   UNL     1       0.798   3.871  -1.426  0.00  0.00    +0.019 C 
ATOM     30  C   UNL     1      -0.640   3.360  -1.301  0.00  0.00    +0.108 C 
ENDBRANCH  22  23
ENDBRANCH   1  22
TORSDOF 3
