REMARK  Name = ZINC19327247
REMARK  4 active torsions:
REMARK  status: ('A' for Active; 'I' for Inactive)
REMARK    1  A    between atoms: C_1  and  C_2
REMARK    2  A    between atoms: C_4  and  C_18
REMARK    3  A    between atoms: C_4  and  N_19
REMARK    4  A    between atoms: C_7  and  O_16
REMARK                            x       y       z     vdW  Elec       q    Type
REMARK                         _______ _______ _______ _____ _____    ______ ____
ROOT
ATOM      1  C   UNL     1      -0.019   1.526   0.010  0.00  0.00    +0.015 C 
ATOM      2  C   UNL     1       0.002  -0.004   0.002  0.00  0.00    +0.073 C 
ATOM      3  C   UNL     1       0.832  -0.548  -1.190  0.00  0.00    +0.133 C 
ATOM      4  N   UNL     1       1.494  -1.751  -0.666  0.00  0.00    -0.149 N 
ATOM      5  C   UNL     1       1.499  -1.791   0.601  0.00  0.00    +0.075 C 
ATOM      6  C   UNL     1       0.819  -0.557   1.183  0.00  0.00    +0.158 C 
ATOM      7  C   UNL     1      -0.074  -1.057   2.292  0.00  0.00    +0.146 A 
ATOM      8  C   UNL     1      -0.044  -2.387   2.774  0.00  0.00    +0.130 A 
ATOM      9  N   UNL     1      -0.911  -2.505   3.739  0.00  0.00    +0.035 N 
ATOM     10  O   UNL     1      -1.171  -3.676   4.490  0.00  0.00    -0.128 OA
ATOM     11  O   UNL     1      -1.548  -1.248   3.901  0.00  0.00    -0.226 OA
ATOM     12  N   UNL     1      -0.961  -0.376   2.947  0.00  0.00    -0.049 NA
ATOM     13  C   UNL     1       0.835  -3.495   2.243  0.00  0.00    +0.068 C 
ATOM     14  C   UNL     1       2.034  -2.896   1.489  0.00  0.00    +0.062 C 
ATOM     15  O   UNL     1       2.064  -2.755  -1.487  0.00  0.00    -0.167 OA
ATOM     16  C   UNL     1      -0.088  -0.912  -2.357  0.00  0.00    +0.055 C 
ENDROOT
BRANCH   3  17
ATOM     17  N   UNL     1       1.830   0.443  -1.613  0.00  0.00    -0.306 NA
ATOM     18  H   UNL     1       2.376   0.098  -2.388  0.00  0.00    +0.120 HD
ATOM     19  H   UNL     1       1.392   1.323  -1.841  0.00  0.00    +0.120 HD
ENDBRANCH   3  17
BRANCH   6  20
ATOM     20  O   UNL     1       1.775   0.397   1.651  0.00  0.00    -0.376 OA
ATOM     21  H   UNL     1       2.309   0.087   2.394  0.00  0.00    +0.211 HD
ENDBRANCH   6  20
TORSDOF 2
