REMARK  Name = ZINC61713321
REMARK  4 active torsions:
REMARK  status: ('A' for Active; 'I' for Inactive)
REMARK    1  A    between atoms: C_4  and  C_7
REMARK    2  A    between atoms: C_4  and  C_11
REMARK    3  A    between atoms: N_8  and  O_9
REMARK    4  A    between atoms: C_16  and  O_19
REMARK                            x       y       z     vdW  Elec       q    Type
REMARK                         _______ _______ _______ _____ _____    ______ ____
ROOT
ATOM      1  C   UNL     1       0.422   1.653  -0.312  0.00  0.00    +0.000 C 
ATOM      2  C   UNL     1       1.926   1.898  -0.175  0.00  0.00    +0.001 C 
ATOM      3  C   UNL     1       2.393   1.443   1.209  0.00  0.00    +0.024 C 
ATOM      4  C   UNL     1       2.102  -0.049   1.380  0.00  0.00    +0.105 C 
ATOM      5  C   UNL     1       0.598  -0.294   1.243  0.00  0.00    +0.024 C 
ATOM      6  C   UNL     1       0.131   0.161  -0.141  0.00  0.00    +0.001 C 
ENDROOT
BRANCH   4   7
ATOM      7  C   UNL     1       2.837  -0.829   0.320  0.00  0.00    +0.229 C 
ATOM      8  O   UNL     1       2.227  -1.581  -0.411  0.00  0.00    -0.275 OA
ATOM      9  N   UNL     1       4.170  -0.691   0.185  0.00  0.00    -0.298 N 
ATOM     10  C   UNL     1       5.046   0.099   1.069  0.00  0.00    +0.110 C 
ATOM     11  C   UNL     1       6.450  -0.534   0.905  0.00  0.00    +0.052 C 
ATOM     12  C   UNL     1       6.456  -0.892  -0.605  0.00  0.00    +0.133 C 
ATOM     13  C   UNL     1       4.994  -1.309  -0.865  0.00  0.00    +0.139 C 
BRANCH  12  14
ATOM     14  O   UNL     1       7.346  -1.980  -0.863  0.00  0.00    -0.390 OA
ATOM     15  H   UNL     1       8.269  -1.794  -0.641  0.00  0.00    +0.210 HD
ENDBRANCH  12  14
ENDBRANCH   4   7
BRANCH   4  16
ATOM     16  C   UNL     1       2.562  -0.498   2.743  0.00  0.00    +0.147 C 
ATOM     17  N   UNL     1       2.459  -1.740   3.083  0.00  0.00    -0.076 NA
ATOM     18  N   UNL     1       3.091   0.416   3.626  0.00  0.00    -0.343 N 
ATOM     19  H   UNL     1       3.236   1.334   3.346  0.00  0.00    +0.144 HD
ATOM     20  H   UNL     1       3.319   0.143   4.529  0.00  0.00    +0.144 HD
BRANCH  17  21
ATOM     21  O   UNL     1       2.033  -2.701   2.134  0.00  0.00    -0.408 OA
ATOM     22  H   UNL     1       1.988  -3.602   2.481  0.00  0.00    +0.328 HD
ENDBRANCH  17  21
ENDBRANCH   4  16
TORSDOF 4
