REMARK  Name = ZINC51121016
REMARK  4 active torsions:
REMARK  status: ('A' for Active; 'I' for Inactive)
REMARK    1  A    between atoms: C_4  and  N_17
REMARK    2  A    between atoms: C_5  and  C_7
REMARK    3  A    between atoms: C_13  and  O_16
REMARK    4  A    between atoms: N_17  and  N_18
REMARK                            x       y       z     vdW  Elec       q    Type
REMARK                         _______ _______ _______ _____ _____    ______ ____
ROOT
ATOM      1  C   UNL     1       0.303   1.347   0.875  0.00  0.00    +0.001 A 
ATOM      2  C   UNL     1       1.004   2.072  -0.077  0.00  0.00    +0.002 A 
ATOM      3  C   UNL     1       1.893   1.440  -0.921  0.00  0.00    +0.025 A 
ATOM      4  C   UNL     1       2.092   0.068  -0.822  0.00  0.00    +0.053 A 
ATOM      5  C   UNL     1       1.384  -0.668   0.141  0.00  0.00    +0.059 A 
ATOM      6  C   UNL     1       0.487  -0.013   0.988  0.00  0.00    +0.015 A 
ENDROOT
BRANCH   5   7
ATOM      7  C   UNL     1       1.585  -2.124   0.256  0.00  0.00    +0.249 C 
ATOM      8  O   UNL     1       2.711  -2.583   0.279  0.00  0.00    -0.270 OA
ATOM      9  N   UNL     1       0.521  -2.947   0.337  0.00  0.00    -0.295 N 
ATOM     10  C   UNL     1      -0.843  -2.425   0.177  0.00  0.00    +0.108 C 
ATOM     11  C   UNL     1      -1.556  -3.233  -0.911  0.00  0.00    +0.021 C 
ATOM     12  C   UNL     1      -1.490  -4.722  -0.561  0.00  0.00    +0.034 C 
ATOM     13  C   UNL     1      -0.028  -5.170  -0.506  0.00  0.00    +0.132 C 
ATOM     14  C   UNL     1       0.703  -4.385   0.580  0.00  0.00    +0.139 C 
BRANCH  13  15
ATOM     15  O   UNL     1       0.032  -6.567  -0.211  0.00  0.00    -0.390 OA
ATOM     16  H   UNL     1       0.931  -6.920  -0.160  0.00  0.00    +0.210 HD
ENDBRANCH  13  15
ENDBRANCH   5   7
BRANCH   4  17
ATOM     17  N   UNL     1       2.986  -0.571  -1.671  0.00  0.00    -0.282 N 
ATOM     18  H   UNL     1       3.068  -1.537  -1.651  0.00  0.00    +0.166 HD
BRANCH  17  19
ATOM     19  N   UNL     1       3.750   0.162  -2.535  0.00  0.00    -0.256 NA
ATOM     20  H   UNL     1       4.348  -0.436  -3.085  0.00  0.00    +0.140 HD
ATOM     21  H   UNL     1       3.172   0.739  -3.128  0.00  0.00    +0.140 HD
ENDBRANCH  17  19
ENDBRANCH   4  17
TORSDOF 4
