REMARK  Name = ZINC10745994
REMARK  3 active torsions:
REMARK  status: ('A' for Active; 'I' for Inactive)
REMARK    1  A    between atoms: C_6  and  S_7
REMARK    2  A    between atoms: S_7  and  N_10
REMARK    3  A    between atoms: C_14  and  C_16
REMARK                            x       y       z     vdW  Elec       q    Type
REMARK                         _______ _______ _______ _____ _____    ______ ____
ROOT
ATOM      1  S   UNL     1      -1.639  -2.366   0.502  0.00  0.00    +0.062 S 
ATOM      2  O   UNL     1      -1.574  -1.214   1.332  0.00  0.00    -0.153 OA
ATOM      3  O   UNL     1      -0.575  -3.303   0.414  0.00  0.00    -0.153 OA
ENDROOT
BRANCH   1   9
ATOM      4  C   UNL     1      -3.194  -4.603   0.665  0.00  0.00    +0.031 A 
ATOM      5  C   UNL     1      -4.313  -5.313   1.059  0.00  0.00    +0.043 A 
ATOM      6  C   UNL     1      -5.306  -4.690   1.793  0.00  0.00    +0.159 A 
ATOM      7  C   UNL     1      -5.177  -3.351   2.134  0.00  0.00    +0.160 A 
ATOM      8  C   UNL     1      -4.057  -2.643   1.738  0.00  0.00    +0.069 A 
ATOM      9  C   UNL     1      -3.066  -3.269   1.005  0.00  0.00    +0.108 A 
ATOM     10  F   UNL     1      -6.146  -2.740   2.851  0.00  0.00    -0.202 F 
ATOM     11  F   UNL     1      -6.399  -5.384   2.178  0.00  0.00    -0.202 F 
ENDBRANCH   1   9
BRANCH   1  12
ATOM     12  N   UNL     1      -1.921  -1.823  -1.038  0.00  0.00    -0.165 NA
ATOM     13  C   UNL     1      -2.651  -0.594  -1.395  0.00  0.00    +0.110 C 
ATOM     14  C   UNL     1      -2.120  -0.215  -2.803  0.00  0.00    +0.019 C 
ATOM     15  C   UNL     1      -1.950  -1.612  -3.455  0.00  0.00    +0.031 C 
ATOM     16  C   UNL     1      -1.489  -2.492  -2.274  0.00  0.00    +0.165 C 
BRANCH  16  17
ATOM     17  C   UNL     1       0.012  -2.626  -2.286  0.00  0.00    +0.229 C 
ATOM     18  O   UNL     1       0.697  -1.831  -1.679  0.00  0.00    -0.274 OA
ATOM     19  N   UNL     1       0.593  -3.630  -2.973  0.00  0.00    -0.328 N 
ATOM     20  H   UNL     1       0.045  -4.266  -3.459  0.00  0.00    +0.145 HD
ATOM     21  H   UNL     1       1.559  -3.717  -2.981  0.00  0.00    +0.145 HD
ENDBRANCH  16  17
ENDBRANCH   1  12
TORSDOF 3
