REMARK  Name = ZINC14017105
REMARK  5 active torsions:
REMARK  status: ('A' for Active; 'I' for Inactive)
REMARK    1  A    between atoms: C_6  and  S_7
REMARK    2  A    between atoms: S_7  and  N_10
REMARK    3  A    between atoms: C_14  and  C_17
REMARK    4  A    between atoms: N_19  and  C_20
REMARK    5  A    between atoms: C_21  and  C_30
REMARK                            x       y       z     vdW  Elec       q    Type
REMARK                         _______ _______ _______ _____ _____    ______ ____
ROOT
ATOM      1  C   UNL     1      -1.877   4.987  -0.075  0.00  0.00    +0.222 C 
ATOM      2  O   UNL     1      -1.464   5.614  -1.028  0.00  0.00    -0.275 OA
ATOM      3  N   UNL     1      -2.483   5.630   0.943  0.00  0.00    -0.279 N 
ATOM      4  H   UNL     1      -2.813   5.130   1.705  0.00  0.00    +0.155 HD
ENDROOT
BRANCH   3   5
ATOM      5  C   UNL     1      -2.635   7.008   0.900  0.00  0.00    +0.084 A 
ATOM      6  C   UNL     1      -3.225   7.839   1.839  0.00  0.00    +0.068 A 
ATOM      7  C   UNL     1      -3.255   9.268   1.555  0.00  0.00    -0.023 A 
ATOM      8  C   UNL     1      -2.701   9.627   0.378  0.00  0.00    -0.004 A 
ATOM      9  S   UNL     1      -2.127   8.109  -0.337  0.00  0.00    -0.077 S 
ATOM     10  C   UNL     1      -2.591  11.002  -0.202  0.00  0.00    +0.043 C 
ATOM     11  C   UNL     1      -2.028  11.955   0.861  0.00  0.00    +0.005 C 
ATOM     12  C   UNL     1      -3.194  12.540   1.652  0.00  0.00    +0.001 C 
ATOM     13  C   UNL     1      -4.322  11.515   1.761  0.00  0.00    +0.005 C 
ATOM     14  C   UNL     1      -3.851  10.282   2.524  0.00  0.00    +0.037 C 
BRANCH   6  15
ATOM     15  C   UNL     1      -3.798   7.300   3.075  0.00  0.00    +0.244 C 
ATOM     16  O   UNL     1      -3.106   7.191   4.071  0.00  0.00    -0.270 OA
ATOM     17  N   UNL     1      -5.092   6.924   3.111  0.00  0.00    -0.325 N 
ATOM     18  H   UNL     1      -5.644   7.011   2.317  0.00  0.00    +0.145 HD
ATOM     19  H   UNL     1      -5.472   6.567   3.929  0.00  0.00    +0.145 HD
ENDBRANCH   6  15
ENDBRANCH   3   5
BRANCH   1  24
ATOM     20  N   UNL     1      -0.729   1.575  -1.178  0.00  0.00    -0.176 NA
ATOM     21  C   UNL     1      -0.013   1.086   0.008  0.00  0.00    +0.109 C 
ATOM     22  C   UNL     1      -0.736   1.583   1.264  0.00  0.00    +0.018 C 
ATOM     23  C   UNL     1      -0.878   3.105   1.196  0.00  0.00    +0.015 C 
ATOM     24  C   UNL     1      -1.712   3.490  -0.028  0.00  0.00    +0.091 C 
ATOM     25  C   UNL     1      -0.997   3.015  -1.297  0.00  0.00    +0.122 C 
BRANCH  20  26
ATOM     26  S   UNL     1      -1.225   0.524  -2.357  0.00  0.00    +0.061 S 
ATOM     27  O   UNL     1      -1.351   1.284  -3.552  0.00  0.00    -0.153 OA
ATOM     28  O   UNL     1      -0.382  -0.616  -2.266  0.00  0.00    -0.153 OA
BRANCH  26  34
ATOM     29  C   UNL     1      -3.018  -1.140  -1.147  0.00  0.00    +0.030 A 
ATOM     30  C   UNL     1      -4.290  -1.558  -0.805  0.00  0.00    +0.022 A 
ATOM     31  C   UNL     1      -5.393  -0.855  -1.255  0.00  0.00    +0.041 A 
ATOM     32  C   UNL     1      -5.222   0.270  -2.042  0.00  0.00    +0.022 A 
ATOM     33  C   UNL     1      -3.949   0.690  -2.378  0.00  0.00    +0.030 A 
ATOM     34  C   UNL     1      -2.847  -0.013  -1.928  0.00  0.00    +0.106 A 
ATOM     35 CL   UNL     1      -6.992  -1.384  -0.831  0.00  0.00    -0.084 Cl
ENDBRANCH  26  34
ENDBRANCH  20  26
ENDBRANCH   1  24
TORSDOF 5
