REMARK  Name = ZINC00422678
REMARK  8 active torsions:
REMARK  status: ('A' for Active; 'I' for Inactive)
REMARK    1  A    between atoms: C_1  and  C_2
REMARK    2  A    between atoms: C_4  and  C_24
REMARK    3  A    between atoms: C_5  and  N_9
REMARK    4  A    between atoms: C_6  and  C_8
REMARK    5  A    between atoms: C_10  and  C_12
REMARK    6  A    between atoms: C_13  and  N_23
REMARK    7  A    between atoms: C_15  and  C_22
REMARK    8  A    between atoms: C_17  and  C_21
REMARK                            x       y       z     vdW  Elec       q    Type
REMARK                         _______ _______ _______ _____ _____    ______ ____
ROOT
ATOM      1  C   UNL     1       0.745  -6.117   0.587  0.00  0.00    +0.097 A 
ATOM      2  C   UNL     1       0.860  -7.046   1.598  0.00  0.00    +0.054 A 
ATOM      3  C   UNL     1       0.567  -8.438   1.292  0.00  0.00    +0.030 A 
ATOM      4  C   UNL     1       0.614  -9.562   2.154  0.00  0.00    -0.037 A 
ATOM      5  C   UNL     1       0.295 -10.801   1.651  0.00  0.00    +0.025 A 
ATOM      6  C   UNL     1      -0.066 -10.946   0.320  0.00  0.00    +0.014 A 
ATOM      7  N   UNL     1      -0.108  -9.898  -0.479  0.00  0.00    -0.353 N 
ATOM      8  C   UNL     1       0.187  -8.692  -0.045  0.00  0.00    +0.088 A 
ATOM      9  S   UNL     1       0.231  -7.091  -0.813  0.00  0.00    -0.064 S 
ATOM     10  C   UNL     1      -0.413 -12.311  -0.217  0.00  0.00    +0.063 C 
ATOM     11  C   UNL     1       1.007  -9.401   3.600  0.00  0.00    +0.044 C 
ATOM     12  H   UNL     1      -0.362 -10.020  -1.407  0.00  0.00    +0.166 HD
ENDROOT
BRANCH   1  14
ATOM     13  N   UNL     1       0.806  -3.961  -0.452  0.00  0.00    -0.281 N 
ATOM     14  C   UNL     1       0.976  -4.720   0.648  0.00  0.00    +0.257 C 
ATOM     15  O   UNL     1       1.327  -4.206   1.695  0.00  0.00    -0.269 OA
ATOM     16  H   UNL     1       0.610  -4.379  -1.305  0.00  0.00    +0.155 HD
BRANCH  13  21
ATOM     17  C   UNL     1       1.243   1.684  -0.098  0.00  0.00    +0.044 C 
ATOM     18  C   UNL     1       1.127   0.184  -0.192  0.00  0.00    -0.050 A 
ATOM     19  C   UNL     1       2.184  -0.616   0.202  0.00  0.00    +0.008 A 
ATOM     20  C   UNL     1       2.081  -1.990   0.117  0.00  0.00    -0.029 A 
ATOM     21  C   UNL     1       0.914  -2.569  -0.364  0.00  0.00    +0.040 A 
ATOM     22  C   UNL     1      -0.146  -1.763  -0.759  0.00  0.00    -0.029 A 
ATOM     23  C   UNL     1      -0.039  -0.389  -0.666  0.00  0.00    +0.008 A 
ATOM     24  C   UNL     1      -1.414  -2.387  -1.282  0.00  0.00    +0.045 C 
ATOM     25  C   UNL     1       3.234  -2.861   0.545  0.00  0.00    +0.045 C 
ENDBRANCH  13  21
ENDBRANCH   1  14
BRANCH   2  26
ATOM     26  N   UNL     1       1.244  -6.664   2.876  0.00  0.00    -0.356 N 
ATOM     27  H   UNL     1       1.802  -5.880   3.000  0.00  0.00    +0.142 HD
ATOM     28  H   UNL     1       0.956  -7.181   3.644  0.00  0.00    +0.142 HD
ENDBRANCH   2  26
TORSDOF 3
