REMARK  Name = ZINC37064386
REMARK  5 active torsions:
REMARK  status: ('A' for Active; 'I' for Inactive)
REMARK    1  A    between atoms: C_2  and  N_20
REMARK    2  A    between atoms: C_6  and  S_7
REMARK    3  A    between atoms: S_7  and  N_10
REMARK    4  A    between atoms: C_13  and  C_16
REMARK    5  A    between atoms: C_16  and  O_17
REMARK                            x       y       z     vdW  Elec       q    Type
REMARK                         _______ _______ _______ _____ _____    ______ ____
ROOT
ATOM      1  S   UNL     1      -1.512  -0.905   0.012  0.00  0.00    +0.064 S 
ATOM      2  O   UNL     1      -1.393  -1.888   1.031  0.00  0.00    -0.153 OA
ATOM      3  O   UNL     1      -2.558   0.058  -0.000  0.00  0.00    -0.153 OA
ENDROOT
BRANCH   1   9
ATOM      4  C   UNL     1      -0.017   1.377   0.010  0.00  0.00    +0.054 A 
ATOM      5  C   UNL     1       1.177   2.087   0.002  0.00  0.00    +0.028 A 
ATOM      6  C   UNL     1       2.387   1.407  -0.013  0.00  0.00    +0.045 A 
ATOM      7  C   UNL     1       2.402   0.025  -0.021  0.00  0.00    +0.080 A 
ATOM      8  C   UNL     1       1.210  -0.681  -0.013  0.00  0.00    +0.168 A 
ATOM      9  C   UNL     1       0.002  -0.004   0.002  0.00  0.00    +0.144 A 
ATOM     10  F   UNL     1       1.225  -2.032  -0.021  0.00  0.00    -0.202 F 
ATOM     11 CL   UNL     1       3.914  -0.827  -0.040  0.00  0.00    -0.080 Cl
BRANCH   5  12
ATOM     12  N   UNL     1       1.160   3.485   0.009  0.00  0.00    -0.358 N 
ATOM     13  H   UNL     1       0.314   3.960   0.019  0.00  0.00    +0.142 HD
ATOM     14  H   UNL     1       1.994   3.981   0.004  0.00  0.00    +0.142 HD
ENDBRANCH   5  12
ENDBRANCH   1   9
BRANCH   1  15
ATOM     15  N   UNL     1      -1.605  -1.722  -1.426  0.00  0.00    -0.176 NA
ATOM     16  C   UNL     1      -2.232  -1.102  -2.600  0.00  0.00    +0.110 C 
ATOM     17  C   UNL     1      -3.313  -2.044  -3.138  0.00  0.00    +0.023 C 
ATOM     18  C   UNL     1      -2.698  -3.420  -3.407  0.00  0.00    +0.017 C 
ATOM     19  C   UNL     1      -2.155  -4.002  -2.099  0.00  0.00    +0.023 C 
ATOM     20  C   UNL     1      -1.056  -3.079  -1.552  0.00  0.00    +0.110 C 
BRANCH  18  21
ATOM     21  C   UNL     1      -3.767  -4.354  -3.976  0.00  0.00    +0.159 C 
BRANCH  21  22
ATOM     22  O   UNL     1      -3.168  -5.601  -4.336  0.00  0.00    -0.395 OA
ATOM     23  H   UNL     1      -3.789  -6.244  -4.705  0.00  0.00    +0.209 HD
ENDBRANCH  21  22
ENDBRANCH  18  21
ENDBRANCH   1  15
TORSDOF 5
