REMARK  Name = ZINC17045911
REMARK  2 active torsions:
REMARK  status: ('A' for Active; 'I' for Inactive)
REMARK    1  A    between atoms: C_10  and  C_12
REMARK    2  A    between atoms: N_16  and  C_19
REMARK                            x       y       z     vdW  Elec       q    Type
REMARK                         _______ _______ _______ _____ _____    ______ ____
ROOT
ATOM      1  C   UNL     1       4.662   0.037  -0.966  0.00  0.00    +0.072 A 
ATOM      2  C   UNL     1       5.781   0.652  -0.488  0.00  0.00    +0.260 A 
ATOM      3  N   UNL     1       6.617   1.305  -1.359  0.00  0.00    -0.274 N 
ATOM      4  C   UNL     1       6.337   1.341  -2.675  0.00  0.00    +0.337 A 
ATOM      5  N   UNL     1       5.238   0.740  -3.166  0.00  0.00    -0.227 N 
ATOM      6  C   UNL     1       4.394   0.083  -2.346  0.00  0.00    +0.267 A 
ATOM      7  O   UNL     1       3.402  -0.463  -2.796  0.00  0.00    -0.267 OA
ATOM      8  O   UNL     1       7.089   1.925  -3.431  0.00  0.00    -0.246 OA
ATOM      9  O   UNL     1       6.064   0.619   0.831  0.00  0.00    -0.267 OA
ATOM     10  H   UNL     1       7.414   1.744  -1.023  0.00  0.00    +0.173 HD
ENDROOT
BRANCH   1  20
ATOM     11  C   UNL     1      -0.017   1.376   0.010  0.00  0.00    +0.000 A 
ATOM     12  C   UNL     1       1.173   2.080   0.002  0.00  0.00    +0.000 A 
ATOM     13  C   UNL     1       2.375   1.401  -0.012  0.00  0.00    +0.002 A 
ATOM     14  C   UNL     1       2.395   0.014  -0.019  0.00  0.00    -0.054 A 
ATOM     15  C   UNL     1       1.208  -0.687  -0.014  0.00  0.00    -0.047 A 
ATOM     16  C   UNL     1       0.002  -0.004   0.002  0.00  0.00    +0.004 A 
ATOM     17  C   UNL     1       1.186  -2.194  -0.030  0.00  0.00    +0.016 C 
ATOM     18  C   UNL     1       2.562  -2.736   0.357  0.00  0.00    -0.077 C 
ATOM     19  N   UNL     1       3.578  -2.074  -0.475  0.00  0.00    +0.387 N 
ATOM     20  C   UNL     1       3.728  -0.686  -0.030  0.00  0.00    +0.001 C 
ATOM     21  H   UNL     1       4.459  -2.557  -0.380  0.00  0.00    -0.085 HD
ATOM     22  H   UNL     1       3.286  -2.090  -1.441  0.00  0.00    -0.085 HD
ENDBRANCH   1  20
BRANCH   5  23
ATOM     23  C   UNL     1       4.971   0.793  -4.541  0.00  0.00    +0.073 A 
ATOM     24  C   UNL     1       5.460  -0.197  -5.383  0.00  0.00    +0.028 A 
ATOM     25  C   UNL     1       5.195  -0.142  -6.737  0.00  0.00    +0.002 A 
ATOM     26  C   UNL     1       4.445   0.898  -7.256  0.00  0.00    +0.002 A 
ATOM     27  C   UNL     1       3.958   1.886  -6.421  0.00  0.00    +0.022 A 
ATOM     28  C   UNL     1       4.214   1.834  -5.063  0.00  0.00    +0.065 A 
ATOM     29 CL   UNL     1       3.595   3.071  -4.014  0.00  0.00    -0.081 Cl
ENDBRANCH   5  23
TORSDOF 2
