REMARK  Name = ZINC04574814
REMARK  6 active torsions:
REMARK  status: ('A' for Active; 'I' for Inactive)
REMARK    1  A    between atoms: C_1  and  C_2
REMARK    2  A    between atoms: C_3  and  C_27
REMARK    3  A    between atoms: C_4  and  C_20
REMARK    4  A    between atoms: C_10  and  S_12
REMARK    5  A    between atoms: S_12  and  C_13
REMARK    6  A    between atoms: C_13  and  C_14
REMARK                            x       y       z     vdW  Elec       q    Type
REMARK                         _______ _______ _______ _____ _____    ______ ____
ROOT
ATOM      1  C   UNL     1       0.457   1.363  -0.000  0.00  0.00    +0.064 C 
ATOM      2  C   UNL     1       0.265  -0.132   0.025  0.00  0.00    +0.026 C 
ATOM      3  C   UNL     1      -1.005  -0.637   0.005  0.00  0.00    +0.059 C 
ATOM      4  C   UNL     1      -1.151  -2.149   0.032  0.00  0.00    +0.166 C 
ATOM      5  N   UNL     1       0.099  -2.917   0.077  0.00  0.00    -0.187 N 
ATOM      6  C   UNL     1       1.296  -2.240   0.091  0.00  0.00    +0.217 C 
ATOM      7  N   UNL     1       1.331  -0.915   0.061  0.00  0.00    -0.330 N 
ATOM      8  N   UNL     1       2.274  -3.155   0.132  0.00  0.00    -0.190 NA
ATOM      9  C   UNL     1       1.763  -4.373   0.145  0.00  0.00    +0.197 C 
ATOM     10  N   UNL     1       0.398  -4.281   0.111  0.00  0.00    -0.118 NA
ATOM     11  H   UNL     1       2.202  -0.488   0.069  0.00  0.00    +0.168 HD
ENDROOT
BRANCH   4  12
ATOM     12  C   UNL     1      -1.969  -2.520   1.242  0.00  0.00    -0.021 A 
ATOM     13  C   UNL     1      -1.436  -2.373   2.509  0.00  0.00    +0.008 A 
ATOM     14  C   UNL     1      -2.186  -2.713   3.618  0.00  0.00    +0.038 A 
ATOM     15  C   UNL     1      -3.472  -3.202   3.461  0.00  0.00    +0.123 A 
ATOM     16  C   UNL     1      -4.005  -3.349   2.192  0.00  0.00    +0.038 A 
ATOM     17  C   UNL     1      -3.255  -3.004   1.084  0.00  0.00    +0.008 A 
ATOM     18  F   UNL     1      -4.205  -3.535   4.546  0.00  0.00    -0.205 F 
ENDBRANCH   4  12
BRANCH   3  19
ATOM     19  C   UNL     1      -2.129   0.206  -0.037  0.00  0.00    +0.241 C 
ATOM     20  O   UNL     1      -1.989   1.413   0.058  0.00  0.00    -0.271 OA
ATOM     21  N   UNL     1      -3.361  -0.320  -0.183  0.00  0.00    -0.325 N 
ATOM     22  H   UNL     1      -3.480  -1.282  -0.189  0.00  0.00    +0.145 HD
ATOM     23  H   UNL     1      -4.129   0.265  -0.282  0.00  0.00    +0.145 HD
ENDBRANCH   3  19
BRANCH   9  24
ATOM     24  S   UNL     1       2.688  -5.872   0.196  0.00  0.00    -0.083 S 
BRANCH  24  25
ATOM     25  C   UNL     1       4.416  -5.320   0.226  0.00  0.00    +0.112 C 
BRANCH  25  26
ATOM     26  C   UNL     1       5.325  -6.521   0.272  0.00  0.00    -0.037 A 
ATOM     27  C   UNL     1       5.710  -7.051   1.489  0.00  0.00    +0.004 A 
ATOM     28  C   UNL     1       6.544  -8.152   1.530  0.00  0.00    +0.000 A 
ATOM     29  C   UNL     1       6.994  -8.723   0.355  0.00  0.00    +0.000 A 
ATOM     30  C   UNL     1       6.609  -8.193  -0.863  0.00  0.00    +0.000 A 
ATOM     31  C   UNL     1       5.771  -7.095  -0.904  0.00  0.00    +0.004 A 
ENDBRANCH  25  26
ENDBRANCH  24  25
ENDBRANCH   9  24
TORSDOF 5
