REMARK  Name = ZINC04854703
REMARK  3 active torsions:
REMARK  status: ('A' for Active; 'I' for Inactive)
REMARK    1  A    between atoms: C_1  and  C_2
REMARK    2  A    between atoms: C_5  and  C_8
REMARK    3  A    between atoms: N_13  and  C_16
REMARK                            x       y       z     vdW  Elec       q    Type
REMARK                         _______ _______ _______ _____ _____    ______ ____
ROOT
ATOM      1  C   UNL     1       1.269   2.063   0.001  0.00  0.00    +0.142 C 
ATOM      2  C   UNL     1       2.527   1.219  -0.015  0.00  0.00    +0.058 C 
ATOM      3  C   UNL     1       2.383  -0.122  -0.021  0.00  0.00    +0.039 C 
ATOM      4  C   UNL     1       3.780  -0.700  -0.038  0.00  0.00    +0.159 C 
ATOM      5  N   UNL     1       4.673   0.468  -0.040  0.00  0.00    -0.295 N 
ATOM      6  C   UNL     1       3.894   1.565  -0.027  0.00  0.00    +0.246 C 
ATOM      7  O   UNL     1       4.314   2.708  -0.025  0.00  0.00    -0.270 OA
ATOM      8  C   UNL     1       6.138   0.443  -0.054  0.00  0.00    +0.132 C 
ATOM      9  N   UNL     1       1.146  -0.701  -0.013  0.00  0.00    -0.271 N 
ATOM     10  C   UNL     1       0.002  -0.004   0.002  0.00  0.00    +0.304 C 
ATOM     11  O   UNL     1      -1.054  -0.607   0.009  0.00  0.00    -0.252 OA
ATOM     12  N   UNL     1      -0.016   1.343   0.009  0.00  0.00    -0.288 N 
ATOM     13  H   UNL     1       1.093  -1.669  -0.018  0.00  0.00    +0.156 HD
ATOM     14  H   UNL     1      -0.856   1.828   0.016  0.00  0.00    +0.151 HD
ENDROOT
BRANCH   1  19
ATOM     15  C   UNL     1       1.449   5.442   4.685  0.00  0.00    +0.044 C 
ATOM     16  C   UNL     1       1.403   4.560   3.464  0.00  0.00    -0.050 A 
ATOM     17  C   UNL     1       1.890   5.026   2.257  0.00  0.00    +0.004 A 
ATOM     18  C   UNL     1       1.847   4.217   1.136  0.00  0.00    +0.006 A 
ATOM     19  C   UNL     1       1.316   2.944   1.223  0.00  0.00    -0.023 A 
ATOM     20  C   UNL     1       0.824   2.481   2.429  0.00  0.00    +0.006 A 
ATOM     21  C   UNL     1       0.872   3.287   3.550  0.00  0.00    +0.004 A 
ENDBRANCH   1  19
TORSDOF 1
