REMARK  Name = ZINC43415567
REMARK  5 active torsions:
REMARK  status: ('A' for Active; 'I' for Inactive)
REMARK    1  A    between atoms: C_1  and  C_2
REMARK    2  A    between atoms: C_4  and  O_8
REMARK    3  A    between atoms: O_8  and  C_9
REMARK    4  A    between atoms: C_10  and  N_18
REMARK    5  A    between atoms: C_12  and  C_16
REMARK                            x       y       z     vdW  Elec       q    Type
REMARK                         _______ _______ _______ _____ _____    ______ ____
ROOT
ATOM      1  C   UNL     1       0.049  -4.168  -2.196  0.00  0.00    +0.164 A 
ATOM      2  C   UNL     1       1.268  -4.846  -2.145  0.00  0.00    +0.070 A 
ATOM      3  C   UNL     1       1.289  -6.225  -2.042  0.00  0.00    +0.045 A 
ATOM      4  C   UNL     1       0.087  -6.936  -1.990  0.00  0.00    +0.055 A 
ATOM      5  C   UNL     1      -1.129  -6.252  -2.042  0.00  0.00    +0.037 A 
ATOM      6  C   UNL     1      -1.143  -4.876  -2.139  0.00  0.00    +0.059 A 
ATOM      7  I   UNL     1      -2.970  -3.852  -2.207  0.00  0.00    -0.040 I 
ENDROOT
BRANCH   2   8
ATOM      8  N   UNL     1       2.470  -4.130  -2.198  0.00  0.00    -0.355 N 
ATOM      9  H   UNL     1       2.455  -3.162  -2.271  0.00  0.00    +0.142 HD
ATOM     10  H   UNL     1       3.317  -4.600  -2.163  0.00  0.00    +0.142 HD
ENDBRANCH   2   8
BRANCH   4  11
ATOM     11  C   UNL     1       0.103  -8.364  -1.884  0.00  0.00    +0.099 C 
ATOM     12  N   UNL     1       0.115  -9.497  -1.800  0.00  0.00    -0.191 NA
ENDBRANCH   4  11
BRANCH   1  13
ATOM     13  O   UNL     1       0.030  -2.814  -2.297  0.00  0.00    -0.435 OA
BRANCH  13  17
ATOM     14  C   UNL     1      -0.018   1.503   0.010  0.00  0.00    +0.066 C 
ATOM     15  C   UNL     1       0.002  -0.004   0.002  0.00  0.00    +0.045 A 
ATOM     16  C   UNL     1       0.006  -0.697  -1.194  0.00  0.00    +0.090 A 
ATOM     17  C   UNL     1       0.026  -2.090  -1.151  0.00  0.00    +0.224 A 
ATOM     18  N   UNL     1       0.040  -2.698   0.030  0.00  0.00    -0.201 NA
ATOM     19  C   UNL     1       0.035  -1.999   1.147  0.00  0.00    +0.225 A 
ATOM     20  N   UNL     1       0.022  -0.681   1.141  0.00  0.00    -0.240 NA
ENDBRANCH  13  17
ENDBRANCH   1  13
TORSDOF 4
