REMARK  Name = ZINC23445716
REMARK  6 active torsions:
REMARK  status: ('A' for Active; 'I' for Inactive)
REMARK    1  A    between atoms: C_1  and  C_2
REMARK    2  A    between atoms: C_2  and  C_4
REMARK    3  A    between atoms: C_2  and  N_14
REMARK    4  A    between atoms: C_7  and  S_10
REMARK    5  A    between atoms: S_10  and  N_13
REMARK    6  A    between atoms: C_15  and  C_17
REMARK                            x       y       z     vdW  Elec       q    Type
REMARK                         _______ _______ _______ _____ _____    ______ ____
ROOT
ATOM      1  C   UNL     1      -2.353   2.659   3.683  0.00  0.00    -0.027 A 
ATOM      2  C   UNL     1      -2.559   1.412   3.122  0.00  0.00    +0.007 A 
ATOM      3  C   UNL     1      -1.846   1.033   2.000  0.00  0.00    +0.029 A 
ATOM      4  C   UNL     1      -0.927   1.900   1.439  0.00  0.00    +0.105 A 
ATOM      5  C   UNL     1      -0.717   3.145   2.004  0.00  0.00    +0.029 A 
ATOM      6  C   UNL     1      -1.435   3.526   3.122  0.00  0.00    +0.007 A 
ENDROOT
BRANCH   4   7
ATOM      7  S   UNL     1      -0.017   1.417   0.010  0.00  0.00    +0.056 S 
ATOM      8  O   UNL     1       0.002  -0.004   0.002  0.00  0.00    -0.153 OA
ATOM      9  O   UNL     1       1.172   2.195   0.003  0.00  0.00    -0.153 OA
BRANCH   7  10
ATOM     10  N   UNL     1      -0.897   1.885  -1.312  0.00  0.00    -0.204 NA
ATOM     11  H   UNL     1      -0.361   1.601  -2.229  0.00  0.00    +0.144 HD
ATOM     12  H   UNL     1      -1.036   2.977  -1.292  0.00  0.00    +0.144 HD
ENDBRANCH   7  10
ENDBRANCH   4   7
BRANCH   1  14
ATOM     13  C   UNL     1      -2.259   2.891   6.150  0.00  0.00    +0.033 C 
ATOM     14  C   UNL     1      -3.131   3.072   4.906  0.00  0.00    +0.100 C 
BRANCH  14  15
ATOM     15  N   UNL     1      -3.522   4.478   4.784  0.00  0.00    -0.302 N 
ATOM     16  C   UNL     1      -4.600   4.938   5.448  0.00  0.00    +0.280 C 
ATOM     17  O   UNL     1      -5.250   4.185   6.150  0.00  0.00    -0.267 OA
ATOM     18  H   UNL     1      -2.935   5.159   4.150  0.00  0.00    +0.150 HD
BRANCH  16  19
ATOM     19  C   UNL     1      -4.992   6.346   5.326  0.00  0.00    +0.189 A 
ATOM     20  C   UNL     1      -6.056   6.940   5.941  0.00  0.00    +0.054 A 
ATOM     21  C   UNL     1      -6.053   8.286   5.545  0.00  0.00    +0.042 A 
ATOM     22  C   UNL     1      -4.999   8.454   4.716  0.00  0.00    +0.196 A 
ATOM     23  O   UNL     1      -4.359   7.284   4.590  0.00  0.00    -0.458 OA
ENDBRANCH  16  19
ENDBRANCH  14  15
ENDBRANCH   1  14
TORSDOF 5
