REMARK  Name = ZINC61095383
REMARK  3 active torsions:
REMARK  status: ('A' for Active; 'I' for Inactive)
REMARK    1  A    between atoms: C_6  and  N_7
REMARK    2  A    between atoms: N_7  and  C_8
REMARK    3  A    between atoms: C_8  and  C_9
REMARK                            x       y       z     vdW  Elec       q    Type
REMARK                         _______ _______ _______ _____ _____    ______ ____
ROOT
ATOM      1  N   UNL     1      -1.199  -0.721   0.010  0.00  0.00    -0.333 N 
ATOM      2  H   UNL     1      -1.185  -1.691   0.005  0.00  0.00    +0.147 HD
ENDROOT
BRANCH   1   8
ATOM      3  C   UNL     1      -0.017   1.384   0.010  0.00  0.00    +0.064 A 
ATOM      4  C   UNL     1       1.173   2.091   0.002  0.00  0.00    +0.128 A 
ATOM      5  C   UNL     1       2.381   1.417  -0.013  0.00  0.00    +0.079 A 
ATOM      6  C   UNL     1       2.404   0.032  -0.022  0.00  0.00    +0.163 A 
ATOM      7  C   UNL     1       1.217  -0.680  -0.014  0.00  0.00    +0.179 A 
ATOM      8  C   UNL     1       0.002  -0.004   0.002  0.00  0.00    +0.069 A 
ATOM      9  F   UNL     1       1.239  -2.031  -0.023  0.00  0.00    -0.201 F 
ATOM     10  F   UNL     1       3.585  -0.624  -0.037  0.00  0.00    -0.202 F 
ATOM     11  F   UNL     1       1.154   3.442   0.009  0.00  0.00    -0.205 F 
ENDBRANCH   1   8
BRANCH   1  12
ATOM     12  C   UNL     1      -2.478  -0.007   0.027  0.00  0.00    +0.198 C 
BRANCH  12  13
ATOM     13  C   UNL     1      -3.609  -1.003   0.033  0.00  0.00    +0.237 C 
ATOM     14  O   UNL     1      -3.370  -2.191   0.024  0.00  0.00    -0.274 OA
ATOM     15  N   UNL     1      -4.886  -0.572   0.048  0.00  0.00    -0.239 N 
ATOM     16  C   UNL     1      -5.897  -1.463   0.053  0.00  0.00    +0.303 C 
ATOM     17  O   UNL     1      -5.658  -2.654   0.044  0.00  0.00    -0.253 OA
ATOM     18  N   UNL     1      -7.174  -1.032   0.068  0.00  0.00    -0.313 N 
ATOM     19  H   UNL     1      -5.077   0.379   0.054  0.00  0.00    +0.159 HD
ATOM     20  H   UNL     1      -7.365  -0.081   0.075  0.00  0.00    +0.146 HD
ATOM     21  H   UNL     1      -7.902  -1.673   0.072  0.00  0.00    +0.146 HD
ENDBRANCH  12  13
ENDBRANCH   1  12
TORSDOF 3
