REMARK  Name = ZINC37933960
REMARK  5 active torsions:
REMARK  status: ('A' for Active; 'I' for Inactive)
REMARK    1  A    between atoms: C_1  and  C_2
REMARK    2  A    between atoms: N_7  and  C_9
REMARK    3  A    between atoms: C_11  and  N_19
REMARK    4  A    between atoms: C_13  and  S_15
REMARK    5  A    between atoms: S_15  and  N_18
REMARK                            x       y       z     vdW  Elec       q    Type
REMARK                         _______ _______ _______ _____ _____    ______ ____
ROOT
ATOM      1  C   UNL     1       0.431  -2.790   2.198  0.00  0.00    +0.033 A 
ATOM      2  C   UNL     1       0.464  -4.171   2.061  0.00  0.00    +0.046 A 
ATOM      3  C   UNL     1       0.028  -4.978   3.102  0.00  0.00    +0.028 A 
ATOM      4  C   UNL     1      -0.440  -4.402   4.277  0.00  0.00    +0.051 A 
ATOM      5  C   UNL     1      -0.471  -3.028   4.410  0.00  0.00    +0.108 A 
ATOM      6  C   UNL     1      -0.032  -2.221   3.377  0.00  0.00    +0.051 A 
ENDROOT
BRANCH   1  12
ATOM      7  C   UNL     1      -0.045   1.512  -0.012  0.00  0.00    +0.009 C 
ATOM      8  C   UNL     1      -0.009  -0.018  -0.013  0.00  0.00    +0.003 C 
ATOM      9  C   UNL     1       0.724  -0.510  -1.264  0.00  0.00    +0.006 C 
ATOM     10  C   UNL     1       0.733  -2.041  -1.283  0.00  0.00    +0.019 C 
ATOM     11  C   UNL     1       1.479  -2.558  -0.049  0.00  0.00    +0.105 C 
ATOM     12  N   UNL     1       0.869  -1.973   1.153  0.00  0.00    -0.330 N 
ATOM     13  C   UNL     1       0.729  -0.513   1.235  0.00  0.00    +0.108 C 
ENDBRANCH   1  12
BRANCH   5  14
ATOM     14  S   UNL     1      -1.065  -2.302   5.902  0.00  0.00    +0.056 S 
ATOM     15  O   UNL     1      -1.503  -0.992   5.569  0.00  0.00    -0.153 OA
ATOM     16  O   UNL     1      -1.921  -3.261   6.507  0.00  0.00    -0.153 OA
BRANCH  14  17
ATOM     17  N   UNL     1       0.236  -2.125   6.911  0.00  0.00    -0.204 NA
ATOM     18  H   UNL     1       1.117  -2.407   6.621  0.00  0.00    +0.144 HD
ATOM     19  H   UNL     1       0.116  -1.738   7.793  0.00  0.00    +0.144 HD
ENDBRANCH  14  17
ENDBRANCH   5  14
BRANCH   3  20
ATOM     20  N   UNL     1       0.059  -6.368   2.968  0.00  0.00    -0.358 N 
ATOM     21  H   UNL     1       0.385  -6.769   2.147  0.00  0.00    +0.142 HD
ATOM     22  H   UNL     1      -0.246  -6.932   3.696  0.00  0.00    +0.142 HD
ENDBRANCH   3  20
TORSDOF 4
