REMARK  Name = ZINC04386415
REMARK  6 active torsions:
REMARK  status: ('A' for Active; 'I' for Inactive)
REMARK    1  A    between atoms: C_1  and  C_2
REMARK    2  A    between atoms: C_2  and  O_3
REMARK    3  A    between atoms: O_3  and  C_4
REMARK    4  A    between atoms: C_4  and  C_6
REMARK    5  A    between atoms: C_7  and  N_30
REMARK    6  A    between atoms: C_21  and  C_23
REMARK                            x       y       z     vdW  Elec       q    Type
REMARK                         _______ _______ _______ _____ _____    ______ ____
ROOT
ATOM      1  C   UNL     1       1.350  -4.871   0.368  0.00  0.00    +0.105 C 
ATOM      2  C   UNL     1       2.467  -4.101   0.311  0.00  0.00    +0.195 C 
ATOM      3  O   UNL     1       2.413  -2.814  -0.071  0.00  0.00    -0.441 OA
ATOM      4  C   UNL     1       1.241  -2.148  -0.032  0.00  0.00    +0.148 A 
ATOM      5  C   UNL     1       1.233  -0.678  -0.034  0.00  0.00    +0.041 A 
ATOM      6  C   UNL     1       2.424   0.052  -0.076  0.00  0.00    +0.013 A 
ATOM      7  C   UNL     1       2.381   1.418  -0.078  0.00  0.00    +0.001 A 
ATOM      8  C   UNL     1       1.166   2.086  -0.036  0.00  0.00    +0.002 A 
ATOM      9  C   UNL     1      -0.021   1.386   0.006  0.00  0.00    +0.026 A 
ATOM     10  C   UNL     1      -0.000  -0.005   0.008  0.00  0.00    +0.053 A 
ATOM     11  N   UNL     1      -1.171  -0.733   0.050  0.00  0.00    -0.322 N 
ATOM     12  H   UNL     1      -2.048  -0.253   0.081  0.00  0.00    +0.169 HD
ATOM     13  C   UNL     1      -1.154  -2.076   0.049  0.00  0.00    +0.257 A 
ATOM     14  O   UNL     1      -2.212  -2.682   0.085  0.00  0.00    -0.267 OA
ATOM     15  C   UNL     1       0.049  -2.805   0.007  0.00  0.00    +0.072 A 
ATOM     16  C   UNL     1       0.003  -4.310   0.006  0.00  0.00    +0.100 C 
ENDROOT
BRANCH  16  17
ATOM     17  C   UNL     1      -0.387  -4.796  -1.366  0.00  0.00    -0.035 A 
ATOM     18  C   UNL     1       0.395  -4.478  -2.461  0.00  0.00    +0.006 A 
ATOM     19  C   UNL     1       0.041  -4.929  -3.718  0.00  0.00    +0.020 A 
ATOM     20  C   UNL     1      -1.103  -5.689  -3.883  0.00  0.00    +0.041 A 
ATOM     21  C   UNL     1      -1.889  -6.002  -2.789  0.00  0.00    +0.020 A 
ATOM     22  C   UNL     1      -1.530  -5.556  -1.531  0.00  0.00    +0.006 A 
ATOM     23 CL   UNL     1      -1.553  -6.249  -5.464  0.00  0.00    -0.084 Cl
ENDBRANCH  16  17
BRANCH   2  24
ATOM     24  N   UNL     1       3.675  -4.648   0.649  0.00  0.00    -0.329 N 
ATOM     25  H   UNL     1       3.739  -5.595   0.853  0.00  0.00    +0.145 HD
ATOM     26  H   UNL     1       4.468  -4.090   0.685  0.00  0.00    +0.145 HD
ENDBRANCH   2  24
BRANCH   1  27
ATOM     27  C   UNL     1       1.454  -6.211   0.772  0.00  0.00    +0.341 C 
ATOM     28  O   UNL     1       1.150  -6.530   1.908  0.00  0.00    -0.245 OA
BRANCH  27  29
ATOM     29  O   UNL     1       1.892  -7.146  -0.098  0.00  0.00    -0.462 OA
BRANCH  29  31
ATOM     30  C   UNL     1       2.485  -9.400  -0.738  0.00  0.00    +0.048 C 
ATOM     31  C   UNL     1       1.974  -8.490   0.381  0.00  0.00    +0.229 C 
ENDBRANCH  29  31
ENDBRANCH  27  29
ENDBRANCH   1  27
TORSDOF 5
