REMARK  Name = ZINC48837278
REMARK  3 active torsions:
REMARK  status: ('A' for Active; 'I' for Inactive)
REMARK    1  A    between atoms: C_2  and  C_20
REMARK    2  A    between atoms: C_6  and  N_7
REMARK    3  A    between atoms: C_14  and  N_17
REMARK                            x       y       z     vdW  Elec       q    Type
REMARK                         _______ _______ _______ _____ _____    ______ ____
ROOT
ATOM      1  N   UNL     1      -1.202  -0.721   0.016  0.00  0.00    -0.267 N 
ATOM      2  C   UNL     1      -2.375  -0.066   0.127  0.00  0.00    +0.306 C 
ATOM      3  O   UNL     1      -2.396   1.149   0.128  0.00  0.00    -0.252 OA
ATOM      4  N   UNL     1      -3.526  -0.760   0.236  0.00  0.00    -0.287 N 
ATOM      5  C   UNL     1      -3.510  -2.225   0.346  0.00  0.00    +0.109 C 
ATOM      6  C   UNL     1      -4.422  -2.810  -0.737  0.00  0.00    +0.017 C 
ATOM      7  C   UNL     1      -5.814  -2.186  -0.617  0.00  0.00    -0.013 C 
ATOM      8  C   UNL     1      -5.718  -0.674  -0.833  0.00  0.00    -0.057 C 
ATOM      9  C   UNL     1      -4.820  -0.064   0.255  0.00  0.00    +0.093 C 
ATOM     10  H   UNL     1      -1.189  -1.690  -0.020  0.00  0.00    +0.156 HD
ENDROOT
BRANCH   1  16
ATOM     11  C   UNL     1      -0.003   1.306  -0.498  0.00  0.00    +0.044 A 
ATOM     12  C   UNL     1       1.198   2.022  -0.560  0.00  0.00    +0.100 A 
ATOM     13  C   UNL     1       2.393   1.410  -0.163  0.00  0.00    +0.140 A 
ATOM     14  C   UNL     1       2.382   0.103   0.286  0.00  0.00    +0.079 A 
ATOM     15  C   UNL     1       1.193  -0.603   0.346  0.00  0.00    +0.147 A 
ATOM     16  C   UNL     1      -0.001  -0.001  -0.047  0.00  0.00    +0.071 A 
ATOM     17  F   UNL     1       1.189  -1.880   0.786  0.00  0.00    -0.203 F 
ATOM     18  F   UNL     1       3.556   2.095  -0.220  0.00  0.00    -0.205 F 
BRANCH  12  19
ATOM     19  C   UNL     1       1.204   3.414  -1.040  0.00  0.00    +0.389 C 
ATOM     20  O   UNL     1       0.159   3.946  -1.386  0.00  0.00    -0.240 OA
ATOM     21  O   UNL     1       2.255   4.038  -1.092  0.00  0.00    -0.240 OA
ENDBRANCH  12  19
ENDBRANCH   1  16
BRANCH   8  22
ATOM     22  N   UNL     1      -7.059  -0.081  -0.750  0.00  0.00    +0.381 N 
ATOM     23  H   UNL     1      -7.453  -0.266   0.160  0.00  0.00    -0.090 HD
ATOM     24  H   UNL     1      -6.995   0.916  -0.892  0.00  0.00    -0.090 HD
ATOM     25  H   UNL     1      -7.650  -0.484  -1.461  0.00  0.00    -0.090 HD
ENDBRANCH   8  22
TORSDOF 3
