REMARK  Name = ZINC40919608
REMARK  4 active torsions:
REMARK  status: ('A' for Active; 'I' for Inactive)
REMARK    1  A    between atoms: C_6  and  C_7
REMARK    2  A    between atoms: C_16  and  C_19
REMARK    3  A    between atoms: C_24  and  C_27
REMARK    4  A    between atoms: C_24  and  N_30
REMARK                            x       y       z     vdW  Elec       q    Type
REMARK                         _______ _______ _______ _____ _____    ______ ____
ROOT
ATOM      1  C   UNL     1      -4.641  -4.181   6.326  0.00  0.00    +0.094 A 
ATOM      2  C   UNL     1      -3.894  -3.486   5.368  0.00  0.00    +0.033 A 
ATOM      3  C   UNL     1      -4.503  -3.183   4.165  0.00  0.00    +0.047 A 
ATOM      4  C   UNL     1      -5.826  -3.590   3.979  0.00  0.00    +0.144 A 
ATOM      5  N   UNL     1      -6.457  -4.245   4.942  0.00  0.00    -0.134 NA
ATOM      6  N   UNL     1      -5.892  -4.532   6.058  0.00  0.00    -0.147 NA
ATOM      7  N   UNL     1      -6.480  -3.307   2.785  0.00  0.00    -0.314 N 
ATOM      8  C   UNL     1      -7.896  -3.657   2.606  0.00  0.00    +0.107 C 
ATOM      9  C   UNL     1      -8.040  -4.494   1.332  0.00  0.00    +0.032 C 
ATOM     10  C   UNL     1      -7.427  -3.733   0.154  0.00  0.00    +0.078 C 
ATOM     11  C   UNL     1      -5.937  -3.502   0.414  0.00  0.00    +0.032 C 
ATOM     12  C   UNL     1      -5.771  -2.648   1.681  0.00  0.00    +0.107 C 
ENDROOT
BRANCH   1  18
ATOM     13  C   UNL     1      -2.758  -4.073   7.955  0.00  0.00    +0.014 A 
ATOM     14  C   UNL     1      -2.194  -4.398   9.171  0.00  0.00    +0.050 A 
ATOM     15  C   UNL     1      -2.894  -5.180  10.077  0.00  0.00    +0.166 A 
ATOM     16  C   UNL     1      -4.171  -5.641   9.761  0.00  0.00    +0.167 A 
ATOM     17  C   UNL     1      -4.739  -5.317   8.542  0.00  0.00    +0.059 A 
ATOM     18  C   UNL     1      -4.034  -4.530   7.633  0.00  0.00    +0.006 A 
ATOM     19  O   UNL     1      -4.639  -6.381  10.808  0.00  0.00    -0.453 OA
ATOM     20  C   UNL     1      -3.479  -6.710  11.595  0.00  0.00    +0.466 C 
ATOM     21  O   UNL     1      -2.564  -5.633  11.322  0.00  0.00    -0.453 OA
ENDBRANCH   1  18
BRANCH  10  22
ATOM     22  C   UNL     1      -7.597  -4.539  -1.108  0.00  0.00    +0.219 C 
ATOM     23  O   UNL     1      -6.693  -5.244  -1.504  0.00  0.00    -0.275 OA
ATOM     24  N   UNL     1      -8.754  -4.477  -1.796  0.00  0.00    -0.301 N 
ATOM     25  C   UNL     1      -9.819  -3.550  -1.389  0.00  0.00    +0.107 C 
ATOM     26  C   UNL     1     -11.120  -4.340  -1.216  0.00  0.00    +0.016 C 
ATOM     27  C   UNL     1     -11.418  -5.113  -2.502  0.00  0.00    +0.015 C 
ATOM     28  C   UNL     1     -10.285  -6.104  -2.779  0.00  0.00    +0.016 C 
ATOM     29  C   UNL     1      -8.972  -5.330  -2.973  0.00  0.00    +0.107 C 
BRANCH  27  30
ATOM     30  N   UNL     1     -12.683  -5.845  -2.352  0.00  0.00    +0.389 N 
ATOM     31  C   UNL     1     -13.772  -4.893  -2.109  0.00  0.00    -0.077 C 
ATOM     32  C   UNL     1     -15.078  -5.654  -1.871  0.00  0.00    -0.019 C 
ATOM     33  C   UNL     1     -15.402  -6.499  -3.106  0.00  0.00    -0.004 C 
ATOM     34  C   UNL     1     -14.226  -7.438  -3.394  0.00  0.00    -0.019 C 
ATOM     35  C   UNL     1     -12.953  -6.609  -3.576  0.00  0.00    -0.077 C 
ATOM     36  H   UNL     1     -12.612  -6.479  -1.570  0.00  0.00    -0.080 HD
ENDBRANCH  27  30
BRANCH  27  37
ATOM     37  C   UNL     1     -11.532  -4.147  -3.653  0.00  0.00    +0.200 C 
ATOM     38  O   UNL     1     -11.690  -2.964  -3.438  0.00  0.00    -0.278 OA
ATOM     39  N   UNL     1     -11.458  -4.597  -4.921  0.00  0.00    -0.330 N 
ATOM     40  H   UNL     1     -11.392  -5.550  -5.095  0.00  0.00    +0.145 HD
ATOM     41  H   UNL     1     -11.470  -3.970  -5.661  0.00  0.00    +0.145 HD
ENDBRANCH  27  37
ENDBRANCH  10  22
TORSDOF 4
