REMARK  Name = ZINC35234295
REMARK  6 active torsions:
REMARK  status: ('A' for Active; 'I' for Inactive)
REMARK    1  A    between atoms: C_1  and  C_2
REMARK    2  A    between atoms: N_4  and  C_5
REMARK    3  A    between atoms: C_5  and  C_6
REMARK    4  A    between atoms: C_9  and  S_12
REMARK    5  A    between atoms: S_12  and  N_15
REMARK    6  A    between atoms: C_19  and  O_22
REMARK                            x       y       z     vdW  Elec       q    Type
REMARK                         _______ _______ _______ _____ _____    ______ ____
ROOT
ATOM      1  C   UNL     1       0.013  -2.631  -2.600  0.00  0.00    -0.030 A 
ATOM      2  C   UNL     1      -1.187  -2.869  -3.244  0.00  0.00    +0.007 A 
ATOM      3  C   UNL     1      -1.193  -3.323  -4.550  0.00  0.00    +0.029 A 
ATOM      4  C   UNL     1       0.001  -3.538  -5.212  0.00  0.00    +0.105 A 
ATOM      5  C   UNL     1       1.201  -3.300  -4.569  0.00  0.00    +0.029 A 
ATOM      6  C   UNL     1       1.207  -2.842  -3.265  0.00  0.00    +0.007 A 
ENDROOT
BRANCH   4   7
ATOM      7  S   UNL     1      -0.007  -4.118  -6.876  0.00  0.00    +0.061 S 
ATOM      8  O   UNL     1       1.243  -4.759  -7.089  0.00  0.00    -0.153 OA
ATOM      9  O   UNL     1      -1.248  -4.784  -7.068  0.00  0.00    -0.153 OA
BRANCH   7  10
ATOM     10  N   UNL     1      -0.028  -2.785  -7.859  0.00  0.00    -0.174 NA
ATOM     11  C   UNL     1      -1.302  -2.191  -8.287  0.00  0.00    +0.109 C 
ATOM     12  C   UNL     1      -1.307  -2.085  -9.816  0.00  0.00    +0.020 C 
ATOM     13  C   UNL     1      -0.068  -1.312 -10.273  0.00  0.00    +0.034 C 
ATOM     14  C   UNL     1       1.193  -2.067  -9.845  0.00  0.00    +0.130 C 
ATOM     15  C   UNL     1       1.226  -2.170  -8.313  0.00  0.00    +0.140 C 
BRANCH  14  16
ATOM     16  O   UNL     1       2.349  -1.361 -10.300  0.00  0.00    -0.390 OA
ATOM     17  H   UNL     1       2.393  -1.255 -11.261  0.00  0.00    +0.210 HD
ENDBRANCH  14  16
ENDBRANCH   7  10
ENDBRANCH   4   7
BRANCH   1  18
ATOM     18  C   UNL     1       0.020  -2.136  -1.177  0.00  0.00    +0.139 C 
BRANCH  18  22
ATOM     19  C   UNL     1      -0.018   1.503   0.010  0.00  0.00    +0.109 C 
ATOM     20  C   UNL     1       0.002  -0.004   0.002  0.00  0.00    +0.210 C 
ATOM     21  O   UNL     1       0.020  -0.616   1.049  0.00  0.00    -0.276 OA
ATOM     22  N   UNL     1       0.000  -0.672  -1.169  0.00  0.00    -0.311 N 
ATOM     23  H   UNL     1      -0.015  -0.182  -2.006  0.00  0.00    +0.149 HD
ENDBRANCH  18  22
ENDBRANCH   1  18
TORSDOF 5
