REMARK  Name = ZINC07577731
REMARK  6 active torsions:
REMARK  status: ('A' for Active; 'I' for Inactive)
REMARK    1  A    between atoms: C_1  and  C_2
REMARK    2  A    between atoms: C_2  and  C_4
REMARK    3  A    between atoms: C_2  and  S_20
REMARK    4  A    between atoms: N_9  and  C_10
REMARK    5  A    between atoms: S_20  and  C_21
REMARK    6  A    between atoms: N_26  and  C_27
REMARK                            x       y       z     vdW  Elec       q    Type
REMARK                         _______ _______ _______ _____ _____    ______ ____
ROOT
ATOM      1  C   UNL     1       5.369  -2.311   0.062  0.00  0.00    +0.233 C 
ATOM      2  O   UNL     1       4.999  -3.405  -0.305  0.00  0.00    -0.274 OA
ATOM      3  N   UNL     1       6.608  -2.152   0.567  0.00  0.00    -0.239 N 
ATOM      4  C   UNL     1       7.437  -3.211   0.664  0.00  0.00    +0.306 C 
ATOM      5  O   UNL     1       7.066  -4.308   0.297  0.00  0.00    -0.252 OA
ATOM      6  N   UNL     1       8.676  -3.052   1.170  0.00  0.00    -0.294 N 
ATOM      7  H   UNL     1       6.904  -1.276   0.861  0.00  0.00    +0.159 HD
ATOM      8  H   UNL     1       8.972  -2.176   1.463  0.00  0.00    +0.151 HD
ENDROOT
BRANCH   6   9
ATOM      9  C   UNL     1       9.577  -4.203   1.275  0.00  0.00    +0.037 C 
ATOM     10  C   UNL     1       8.944  -5.265   2.176  0.00  0.00    +0.029 C 
ATOM     11  C   UNL     1       9.884  -6.467   2.286  0.00  0.00    -0.008 C 
ATOM     12  C   UNL     1      11.218  -6.017   2.887  0.00  0.00    +0.007 C 
ATOM     13  C   UNL     1      11.851  -4.955   1.986  0.00  0.00    -0.008 C 
ATOM     14  C   UNL     1      10.910  -3.753   1.876  0.00  0.00    +0.029 C 
ATOM     15  C   UNL     1      12.091  -5.544   0.595  0.00  0.00    +0.007 C 
ATOM     16  C   UNL     1      10.758  -5.993  -0.006  0.00  0.00    -0.008 C 
ATOM     17  C   UNL     1      10.125  -7.056   0.895  0.00  0.00    +0.007 C 
ATOM     18  C   UNL     1       9.817  -4.792  -0.116  0.00  0.00    +0.029 C 
ENDBRANCH   6   9
BRANCH   1  20
ATOM     19  C   UNL     1       4.720  -0.380  -1.353  0.00  0.00    +0.029 C 
ATOM     20  C   UNL     1       4.442  -1.127  -0.046  0.00  0.00    +0.136 C 
BRANCH  20  21
ATOM     21  S   UNL     1       2.722  -1.703  -0.033  0.00  0.00    -0.084 S 
BRANCH  21  22
ATOM     22  C   UNL     1       1.776  -0.216  -0.016  0.00  0.00    +0.161 A 
ATOM     23  N   UNL     1       2.187   1.037  -0.013  0.00  0.00    -0.133 NA
ATOM     24  N   UNL     1       1.267   2.059   0.001  0.00  0.00    -0.125 NA
ATOM     25  C   UNL     1      -0.022   1.782   0.012  0.00  0.00    +0.183 A 
ATOM     26  S   UNL     1       0.002  -0.004   0.002  0.00  0.00    -0.025 S 
ATOM     27  N   UNL     1      -1.109   2.648   0.022  0.00  0.00    -0.319 N 
ATOM     28  H   UNL     1      -2.012   2.293   0.025  0.00  0.00    +0.148 HD
BRANCH  27  29
ATOM     29  C   UNL     1      -0.892   4.097   0.029  0.00  0.00    +0.072 C 
ATOM     30  C   UNL     1      -1.752   4.936   0.976  0.00  0.00    +0.024 C 
ATOM     31  C   UNL     1      -2.007   4.981  -0.533  0.00  0.00    +0.024 C 
ENDBRANCH  27  29
ENDBRANCH  21  22
ENDBRANCH  20  21
ENDBRANCH   1  20
TORSDOF 5
