REMARK  Name = ZINC04580506
REMARK  3 active torsions:
REMARK  status: ('A' for Active; 'I' for Inactive)
REMARK    1  A    between atoms: C_6  and  C_7
REMARK    2  A    between atoms: N_8  and  N_9
REMARK    3  A    between atoms: N_14  and  N_15
REMARK                            x       y       z     vdW  Elec       q    Type
REMARK                         _______ _______ _______ _____ _____    ______ ____
ROOT
ATOM      1  N   UNL     1       1.316   4.345   0.012  0.00  0.00    -0.204 N 
ATOM      2  C   UNL     1       0.579   3.172   0.013  0.00  0.00    +0.253 A 
ATOM      3  N   UNL     1      -0.730   3.072   0.024  0.00  0.00    -0.110 NA
ATOM      4  N   UNL     1      -1.073   1.834   0.016  0.00  0.00    -0.135 NA
ATOM      5  C   UNL     1      -0.013   1.076   0.008  0.00  0.00    +0.245 A 
ATOM      6  N   UNL     1       1.077   1.900   0.002  0.00  0.00    -0.223 N 
ATOM      7  H   UNL     1       2.285   4.309   0.003  0.00  0.00    +0.177 HD
ENDROOT
BRANCH   6   8
ATOM      8  N   UNL     1       2.392   1.530  -0.012  0.00  0.00    -0.294 N 
ATOM      9  H   UNL     1       2.731   1.435  -0.958  0.00  0.00    +0.163 HD
ATOM     10  H   UNL     1       2.957   2.181   0.512  0.00  0.00    +0.163 HD
ENDBRANCH   6   8
BRANCH   1  12
ATOM     11  C   UNL     1       1.352   6.683   0.023  0.00  0.00    +0.138 C 
ATOM     12  N   UNL     1       0.661   5.583   0.024  0.00  0.00    -0.188 NA
BRANCH  11  18
ATOM     13  C   UNL     1      -0.733   8.042   0.043  0.00  0.00    +0.010 A 
ATOM     14  C   UNL     1      -1.371   9.265   0.059  0.00  0.00    +0.015 A 
ATOM     15  C   UNL     1      -0.631  10.435   0.058  0.00  0.00    +0.013 A 
ATOM     16  C   UNL     1       0.752  10.387   0.046  0.00  0.00    +0.015 A 
ATOM     17  C   UNL     1       1.403   9.171   0.034  0.00  0.00    +0.010 A 
ATOM     18  C   UNL     1       0.663   7.986   0.035  0.00  0.00    -0.005 A 
ATOM     19  I   UNL     1      -1.610  12.287   0.075  0.00  0.00    -0.044 I 
ENDBRANCH  11  18
ENDBRANCH   1  12
TORSDOF 3
