REMARK  Name = ZINC05741096
REMARK  1 active torsions:
REMARK  status: ('A' for Active; 'I' for Inactive)
REMARK    1  A    between atoms: C_4  and  N_7
REMARK                            x       y       z     vdW  Elec       q    Type
REMARK                         _______ _______ _______ _____ _____    ______ ____
ROOT
ATOM      1  N   UNL     1       3.599  -0.630  -0.037  0.00  0.00    -0.217 NA
ATOM      2  C   UNL     1       3.828  -1.597   0.831  0.00  0.00    +0.197 C 
ATOM      3  N   UNL     1       5.076  -2.200   0.892  0.00  0.00    -0.294 N 
ATOM      4  C   UNL     1       5.441  -2.857   2.152  0.00  0.00    +0.101 C 
ATOM      5  C   UNL     1       6.609  -3.829   1.926  0.00  0.00    +0.045 C 
ATOM      6  C   UNL     1       7.862  -3.016   2.343  0.00  0.00    +0.004 C 
ATOM      7  C   UNL     1       7.354  -2.201   3.558  0.00  0.00    +0.004 C 
ATOM      8  C   UNL     1       5.905  -1.821   3.181  0.00  0.00    +0.045 C 
ATOM      9  N   UNL     1       4.265  -3.581   2.647  0.00  0.00    -0.298 N 
ATOM     10  C   UNL     1       3.046  -2.957   2.552  0.00  0.00    +0.159 C 
ATOM     11  N   UNL     1       2.856  -2.001   1.665  0.00  0.00    -0.304 N 
ATOM     12  N   UNL     1       2.027  -3.325   3.385  0.00  0.00    -0.332 N 
ATOM     13  H   UNL     1       4.346  -4.470   3.027  0.00  0.00    +0.151 HD
ATOM     14  H   UNL     1       2.166  -4.026   4.041  0.00  0.00    +0.145 HD
ATOM     15  H   UNL     1       1.165  -2.886   3.320  0.00  0.00    +0.145 HD
ATOM     16  H   UNL     1       5.681  -2.187   0.134  0.00  0.00    +0.151 HD
ATOM     17  H   UNL     1       1.985  -1.578   1.610  0.00  0.00    +0.171 HD
ENDROOT
BRANCH   1  21
ATOM     18  C   UNL     1       0.011   1.427   0.055  0.00  0.00    +0.000 A 
ATOM     19  C   UNL     1       0.797   1.363   1.192  0.00  0.00    +0.002 A 
ATOM     20  C   UNL     1       1.994   0.679   1.169  0.00  0.00    +0.028 A 
ATOM     21  C   UNL     1       2.413   0.050  -0.007  0.00  0.00    +0.067 A 
ATOM     22  C   UNL     1       1.614   0.118  -1.151  0.00  0.00    +0.028 A 
ATOM     23  C   UNL     1       0.419   0.806  -1.113  0.00  0.00    +0.002 A 
ENDBRANCH   1  21
TORSDOF 1
