REMARK  Name = ZINC40688347
REMARK  6 active torsions:
REMARK  status: ('A' for Active; 'I' for Inactive)
REMARK    1  A    between atoms: C_1  and  C_2
REMARK    2  A    between atoms: C_2  and  C_3
REMARK    3  A    between atoms: C_8  and  N_9
REMARK    4  A    between atoms: C_11  and  N_25
REMARK    5  A    between atoms: C_12  and  N_16
REMARK    6  A    between atoms: N_16  and  C_17
REMARK                            x       y       z     vdW  Elec       q    Type
REMARK                         _______ _______ _______ _____ _____    ______ ____
ROOT
ATOM      1  N   UNL     1      -1.526  -0.252  -2.390  0.00  0.00    -0.298 N 
ATOM      2  C   UNL     1      -2.181  -0.508  -3.590  0.00  0.00    +0.149 A 
ATOM      3  C   UNL     1      -1.542  -0.277  -4.810  0.00  0.00    +0.106 A 
ATOM      4  C   UNL     1      -2.245  -0.551  -5.984  0.00  0.00    +0.149 A 
ATOM      5  N   UNL     1      -3.489  -1.019  -5.897  0.00  0.00    -0.219 NA
ATOM      6  C   UNL     1      -4.055  -1.223  -4.725  0.00  0.00    +0.225 A 
ATOM      7  N   UNL     1      -3.425  -0.982  -3.593  0.00  0.00    -0.219 NA
ATOM      8  H   UNL     1      -0.645   0.154  -2.396  0.00  0.00    +0.154 HD
ENDROOT
BRANCH   1  14
ATOM      9  C   UNL     1      -1.370  -1.022  -0.108  0.00  0.00    -0.026 A 
ATOM     10  C   UNL     1      -1.977  -1.338   1.092  0.00  0.00    +0.005 A 
ATOM     11  C   UNL     1      -3.348  -1.220   1.227  0.00  0.00    +0.000 A 
ATOM     12  C   UNL     1      -4.116  -0.783   0.163  0.00  0.00    +0.002 A 
ATOM     13  C   UNL     1      -3.516  -0.465  -1.039  0.00  0.00    +0.023 A 
ATOM     14  C   UNL     1      -2.138  -0.578  -1.177  0.00  0.00    +0.036 A 
BRANCH   9  16
ATOM     15  C   UNL     1       0.783   0.201   0.023  0.00  0.00    +0.009 C 
ATOM     16  C   UNL     1       0.124  -1.152  -0.255  0.00  0.00    +0.033 C 
ENDBRANCH   9  16
ENDBRANCH   1  14
BRANCH   3  17
ATOM     17  N   UNL     1      -0.229   0.218  -4.854  0.00  0.00    -0.353 N 
ATOM     18  H   UNL     1       0.247   0.404  -4.030  0.00  0.00    +0.143 HD
ATOM     19  H   UNL     1       0.202   0.374  -5.709  0.00  0.00    +0.143 HD
ENDBRANCH   3  17
BRANCH   4  20
ATOM     20  N   UNL     1      -1.657  -0.338  -7.226  0.00  0.00    -0.296 N 
ATOM     21  H   UNL     1      -0.723  -0.083  -7.282  0.00  0.00    +0.154 HD
BRANCH  20  22
ATOM     22  C   UNL     1      -2.412  -0.493  -8.395  0.00  0.00    +0.068 A 
ATOM     23  C   UNL     1      -3.792  -0.352  -8.354  0.00  0.00    +0.029 A 
ATOM     24  C   UNL     1      -4.535  -0.505  -9.509  0.00  0.00    +0.040 A 
ATOM     25  C   UNL     1      -3.905  -0.800 -10.706  0.00  0.00    +0.126 A 
ATOM     26  C   UNL     1      -2.529  -0.942 -10.750  0.00  0.00    +0.078 A 
ATOM     27  C   UNL     1      -1.779  -0.783  -9.599  0.00  0.00    +0.147 A 
ATOM     28  F   UNL     1      -0.436  -0.916  -9.642  0.00  0.00    -0.203 F 
ATOM     29  F   UNL     1      -4.635  -0.949 -11.833  0.00  0.00    -0.205 F 
ENDBRANCH  20  22
ENDBRANCH   4  20
TORSDOF 5
