REMARK  Name = ZINC04073688
REMARK  5 active torsions:
REMARK  status: ('A' for Active; 'I' for Inactive)
REMARK    1  A    between atoms: C_1  and  C_2
REMARK    2  A    between atoms: C_3  and  O_17
REMARK    3  A    between atoms: O_17  and  C_18
REMARK    4  A    between atoms: C_18  and  C_19
REMARK    5  A    between atoms: C_24  and  O_32
REMARK                            x       y       z     vdW  Elec       q    Type
REMARK                         _______ _______ _______ _____ _____    ______ ____
ROOT
ATOM      1  C   UNL     1       3.378   3.851  -0.010  0.00  0.00    +0.051 C 
ATOM      2  C   UNL     1       3.493   2.349  -0.019  0.00  0.00    +0.034 A 
ATOM      3  C   UNL     1       4.743   1.752  -0.034  0.00  0.00    +0.128 A 
ATOM      4  C   UNL     1       4.862   0.367  -0.043  0.00  0.00    +0.047 A 
ATOM      5  C   UNL     1       3.734  -0.423  -0.037  0.00  0.00    +0.016 A 
ATOM      6  C   UNL     1       2.471   0.169  -0.021  0.00  0.00    +0.026 A 
ATOM      7  C   UNL     1       2.347   1.566  -0.012  0.00  0.00    +0.146 A 
ATOM      8  O   UNL     1       1.132   2.159   0.003  0.00  0.00    -0.421 OA
ATOM      9  C   UNL     1      -0.018   1.466   0.010  0.00  0.00    +0.345 A 
ATOM     10  O   UNL     1      -1.081   2.056   0.018  0.00  0.00    -0.245 OA
ATOM     11  C   UNL     1       0.002  -0.004   0.002  0.00  0.00    +0.067 A 
ATOM     12  C   UNL     1       1.251  -0.661  -0.013  0.00  0.00    -0.000 A 
ATOM     13  C   UNL     1       1.304  -2.049  -0.021  0.00  0.00    +0.009 A 
ATOM     14  C   UNL     1       0.130  -2.775  -0.014  0.00  0.00    +0.001 A 
ATOM     15  C   UNL     1      -1.098  -2.132   0.002  0.00  0.00    +0.001 A 
ATOM     16  C   UNL     1      -1.171  -0.755   0.010  0.00  0.00    +0.015 A 
ENDROOT
BRANCH   3  17
ATOM     17  O   UNL     1       5.860   2.526  -0.040  0.00  0.00    -0.482 OA
BRANCH  17  18
ATOM     18  C   UNL     1       7.118   1.849  -0.055  0.00  0.00    +0.324 C 
BRANCH  18  19
ATOM     19  C   UNL     1       8.234   2.861  -0.060  0.00  0.00    +0.253 C 
ATOM     20  O   UNL     1       7.977   4.047  -0.051  0.00  0.00    -0.272 OA
ATOM     21  N   UNL     1       9.517   2.450  -0.074  0.00  0.00    -0.298 N 
ATOM     22  C   UNL     1       9.845   1.018  -0.085  0.00  0.00    +0.110 C 
ATOM     23  C   UNL     1      10.780   0.736  -1.265  0.00  0.00    +0.054 C 
ATOM     24  C   UNL     1      12.000   1.656  -1.177  0.00  0.00    +0.072 C 
ATOM     25  C   UNL     1      12.942   1.357  -2.347  0.00  0.00    +0.035 C 
ATOM     26  C   UNL     1      12.200   1.585  -3.665  0.00  0.00    +0.003 C 
ATOM     27  C   UNL     1      11.734   3.040  -3.745  0.00  0.00    +0.001 C 
ATOM     28  C   UNL     1      10.800   3.344  -2.572  0.00  0.00    +0.008 C 
ATOM     29  C   UNL     1      11.546   3.115  -1.256  0.00  0.00    +0.038 C 
ATOM     30  C   UNL     1      10.616   3.425  -0.085  0.00  0.00    +0.114 C 
BRANCH  24  31
ATOM     31  O   UNL     1      12.684   1.427   0.058  0.00  0.00    -0.388 OA
ATOM     32  H   UNL     1      13.002   0.521   0.169  0.00  0.00    +0.210 HD
ENDBRANCH  24  31
ENDBRANCH  18  19
ENDBRANCH  17  18
ENDBRANCH   3  17
TORSDOF 4
