REMARK  Name = ZINC38054100
REMARK  3 active torsions:
REMARK  status: ('A' for Active; 'I' for Inactive)
REMARK    1  A    between atoms: C_4  and  N_14
REMARK    2  A    between atoms: C_6  and  C_7
REMARK    3  A    between atoms: C_7  and  N_8
REMARK                            x       y       z     vdW  Elec       q    Type
REMARK                         _______ _______ _______ _____ _____    ______ ____
ROOT
ATOM      1  C   UNL     1      -0.017   1.378   0.010  0.00  0.00    +0.007 A 
ATOM      2  C   UNL     1       1.170   2.089   0.002  0.00  0.00    +0.022 A 
ATOM      3  C   UNL     1       2.378   1.419  -0.013  0.00  0.00    +0.062 A 
ATOM      4  C   UNL     1       2.400   0.029  -0.021  0.00  0.00    +0.043 A 
ATOM      5  C   UNL     1       1.207  -0.680  -0.013  0.00  0.00    +0.029 A 
ATOM      6  C   UNL     1       0.002  -0.004   0.002  0.00  0.00    -0.024 A 
ATOM      7 CL   UNL     1       3.867   2.312  -0.023  0.00  0.00    -0.082 Cl
ENDROOT
BRANCH   4   8
ATOM      8  N   UNL     1       3.620  -0.652  -0.036  0.00  0.00    -0.357 N 
ATOM      9  H   UNL     1       4.453  -0.155  -0.042  0.00  0.00    +0.142 HD
ATOM     10  H   UNL     1       3.634  -1.622  -0.042  0.00  0.00    +0.142 HD
ENDBRANCH   4   8
BRANCH   6  11
ATOM     11  C   UNL     1      -1.293  -0.774   0.011  0.00  0.00    +0.178 C 
BRANCH  11  12
ATOM     12  N   UNL     1      -1.727  -1.016  -1.368  0.00  0.00    -0.266 N 
ATOM     13  C   UNL     1      -2.015  -2.219  -1.910  0.00  0.00    +0.124 A 
ATOM     14  C   UNL     1      -2.375  -2.014  -3.199  0.00  0.00    +0.055 A 
ATOM     15  C   UNL     1      -2.304  -0.640  -3.452  0.00  0.00    +0.149 A 
ATOM     16  N   UNL     1      -1.921  -0.041  -2.354  0.00  0.00    -0.178 NA
ATOM     17 BR   UNL     1      -2.884  -3.349  -4.437  0.00  0.00    -0.047 Br
ENDBRANCH  11  12
ENDBRANCH   6  11
TORSDOF 3
