REMARK  Name = ZINC39422262
REMARK  9 active torsions:
REMARK  status: ('A' for Active; 'I' for Inactive)
REMARK    1  A    between atoms: C_1  and  C_2
REMARK    2  A    between atoms: C_6  and  C_7
REMARK    3  A    between atoms: C_7  and  C_9
REMARK    4  A    between atoms: C_7  and  C_25
REMARK    5  A    between atoms: C_12  and  O_15
REMARK    6  A    between atoms: O_15  and  C_16
REMARK    7  A    between atoms: C_16  and  C_17
REMARK    8  A    between atoms: C_26  and  C_32
REMARK    9  A    between atoms: C_29  and  O_31
REMARK                            x       y       z     vdW  Elec       q    Type
REMARK                         _______ _______ _______ _____ _____    ______ ____
ROOT
ATOM      1  C   UNL     1       0.025  -0.160   2.489  0.00  0.00    +0.088 C 
ENDROOT
BRANCH   1   7
ATOM      2  C   UNL     1      -2.334  -1.299   0.708  0.00  0.00    +0.068 C 
ATOM      3  C   UNL     1      -0.871  -1.313   0.350  0.00  0.00    +0.068 A 
ATOM      4  N   UNL     1      -0.356  -1.794  -0.752  0.00  0.00    -0.176 NA
ATOM      5  N   UNL     1       1.033  -1.619  -0.703  0.00  0.00    -0.243 N 
ATOM      6  C   UNL     1       1.335  -1.016   0.468  0.00  0.00    +0.271 A 
ATOM      7  C   UNL     1       0.170  -0.811   1.137  0.00  0.00    +0.052 A 
ATOM      8  O   UNL     1       2.577  -0.673   0.896  0.00  0.00    -0.266 OA
ATOM      9  H   UNL     1       1.666  -1.884  -1.389  0.00  0.00    +0.192 HD
ENDBRANCH   1   7
BRANCH   1  10
ATOM     10  C   UNL     1      -1.074  -0.842   3.261  0.00  0.00    -0.035 A 
ATOM     11  C   UNL     1      -1.017  -2.206   3.483  0.00  0.00    +0.008 A 
ATOM     12  C   UNL     1      -2.024  -2.834   4.190  0.00  0.00    +0.046 A 
ATOM     13  C   UNL     1      -3.093  -2.096   4.677  0.00  0.00    +0.121 A 
ATOM     14  C   UNL     1      -3.148  -0.728   4.452  0.00  0.00    +0.046 A 
ATOM     15  C   UNL     1      -2.136  -0.103   3.750  0.00  0.00    +0.008 A 
BRANCH  13  16
ATOM     16  O   UNL     1      -4.085  -2.712   5.372  0.00  0.00    -0.487 OA
BRANCH  16  17
ATOM     17  C   UNL     1      -5.155  -1.889   5.843  0.00  0.00    +0.267 C 
BRANCH  17  18
ATOM     18  C   UNL     1      -6.153  -2.739   6.586  0.00  0.00    +0.026 A 
ATOM     19  C   UNL     1      -7.205  -3.325   5.905  0.00  0.00    +0.049 A 
ATOM     20  C   UNL     1      -8.121  -4.106   6.587  0.00  0.00    +0.020 A 
ATOM     21  C   UNL     1      -7.986  -4.300   7.949  0.00  0.00    +0.003 A 
ATOM     22  C   UNL     1      -6.935  -3.714   8.630  0.00  0.00    +0.020 A 
ATOM     23  C   UNL     1      -6.015  -2.939   7.947  0.00  0.00    +0.049 A 
ATOM     24 CL   UNL     1      -4.690  -2.210   8.802  0.00  0.00    -0.083 Cl
ATOM     25 CL   UNL     1      -7.376  -3.081   4.194  0.00  0.00    -0.083 Cl
ENDBRANCH  17  18
ENDBRANCH  16  17
ENDBRANCH  13  16
ENDBRANCH   1  10
BRANCH   1  26
ATOM     26  C   UNL     1       1.322  -0.283   3.247  0.00  0.00    +0.017 C 
ATOM     27  C   UNL     1       2.162   0.692   3.604  0.00  0.00    +0.065 C 
ATOM     28  N   UNL     1       3.222   0.190   4.275  0.00  0.00    -0.156 NA
ATOM     29  N   UNL     1       3.204  -1.035   4.419  0.00  0.00    -0.151 NA
ATOM     30  C   UNL     1       1.974  -1.543   3.787  0.00  0.00    +0.284 C 
ATOM     31  C   UNL     1       1.955   2.153   3.301  0.00  0.00    +0.067 C 
BRANCH  30  32
ATOM     32  O   UNL     1       2.290  -2.444   2.724  0.00  0.00    -0.366 OA
ATOM     33  H   UNL     1       2.709  -3.265   3.016  0.00  0.00    +0.212 HD
ENDBRANCH  30  32
ENDBRANCH   1  26
TORSDOF 7
