REMARK  Name = ZINC35453264
REMARK  4 active torsions:
REMARK  status: ('A' for Active; 'I' for Inactive)
REMARK    1  A    between atoms: C_1  and  N_2
REMARK    2  A    between atoms: N_2  and  C_3
REMARK    3  A    between atoms: N_2  and  C_15
REMARK    4  A    between atoms: C_8  and  N_9
REMARK                            x       y       z     vdW  Elec       q    Type
REMARK                         _______ _______ _______ _____ _____    ______ ____
ROOT
ATOM      1  C   UNL     1      -0.107  -0.694   1.219  0.00  0.00    +0.053 A 
ATOM      2  C   UNL     1      -1.348  -0.854   1.816  0.00  0.00    +0.052 A 
ATOM      3  C   UNL     1      -1.452  -1.536   3.018  0.00  0.00    +0.078 A 
ATOM      4  C   UNL     1      -0.313  -2.060   3.626  0.00  0.00    +0.144 A 
ATOM      5  C   UNL     1       0.926  -1.900   3.030  0.00  0.00    +0.072 A 
ATOM      6  C   UNL     1       1.032  -1.223   1.824  0.00  0.00    +0.049 A 
ATOM      7  O   UNL     1      -0.432  -2.725   4.808  0.00  0.00    -0.481 OA
ATOM      8  C   UNL     1      -1.458  -2.278   5.697  0.00  0.00    +0.325 C 
ATOM      9  C   UNL     1      -2.743  -2.086   4.933  0.00  0.00    +0.255 C 
ATOM     10  O   UNL     1      -3.810  -2.271   5.479  0.00  0.00    -0.272 OA
ATOM     11  N   UNL     1      -2.701  -1.709   3.637  0.00  0.00    -0.280 N 
ATOM     12  H   UNL     1      -3.521  -1.559   3.141  0.00  0.00    +0.155 HD
ENDROOT
BRANCH   6  13
ATOM     13  N   UNL     1       2.286  -1.065   1.216  0.00  0.00    -0.356 N 
ATOM     14  H   UNL     1       2.360  -0.589   0.375  0.00  0.00    +0.142 HD
ATOM     15  H   UNL     1       3.078  -1.434   1.637  0.00  0.00    +0.142 HD
ENDBRANCH   6  13
BRANCH   1  17
ATOM     16  C   UNL     1       0.228   1.443  -0.002  0.00  0.00    +0.129 C 
ATOM     17  N   UNL     1       0.002  -0.004   0.002  0.00  0.00    -0.328 N 
BRANCH  17  18
ATOM     18  C   UNL     1      -0.111  -0.731  -1.265  0.00  0.00    +0.084 C 
ATOM     19  C   UNL     1      -1.425  -0.341  -1.938  0.00  0.00    +0.034 C 
ATOM     20  C   UNL     1      -1.211   0.886  -2.868  0.00  0.00    +0.071 C 
ATOM     21  S   UNL     1       0.432   0.445  -3.585  0.00  0.00    -0.159 S 
ATOM     22  C   UNL     1       1.131  -0.422  -2.124  0.00  0.00    +0.091 C 
ENDBRANCH  17  18
ENDBRANCH   1  17
TORSDOF 3
