REMARK  Name = ZINC50306077
REMARK  7 active torsions:
REMARK  status: ('A' for Active; 'I' for Inactive)
REMARK    1  A    between atoms: C_1  and  C_2
REMARK    2  A    between atoms: C_3  and  N_23
REMARK    3  A    between atoms: C_4  and  C_8
REMARK    4  A    between atoms: N_10  and  C_11
REMARK    5  A    between atoms: N_10  and  C_12
REMARK    6  A    between atoms: C_12  and  C_14
REMARK    7  A    between atoms: C_12  and  C_15
REMARK                            x       y       z     vdW  Elec       q    Type
REMARK                         _______ _______ _______ _____ _____    ______ ____
ROOT
ATOM      1  C   UNL     1      -0.054  -3.489  -1.329  0.00  0.00    +0.269 C 
ATOM      2  O   UNL     1      -0.130  -3.479  -2.542  0.00  0.00    -0.268 OA
ATOM      3  N   UNL     1       0.110  -4.655  -0.673  0.00  0.00    -0.292 N 
ATOM      4  C   UNL     1       0.085  -4.681   0.791  0.00  0.00    +0.133 C 
ENDROOT
BRANCH   1   8
ATOM      5  C   UNL     1      -0.354   1.424  -0.101  0.00  0.00    +0.067 C 
ATOM      6  C   UNL     1      -0.271  -0.080  -0.055  0.00  0.00    +0.054 A 
ATOM      7  C   UNL     1      -0.202  -0.918  -1.123  0.00  0.00    +0.078 A 
ATOM      8  C   UNL     1      -0.140  -2.224  -0.575  0.00  0.00    +0.168 A 
ATOM      9  N   UNL     1      -0.175  -2.095   0.738  0.00  0.00    -0.167 NA
ATOM     10  N   UNL     1      -0.246  -0.854   1.061  0.00  0.00    -0.279 N 
ATOM     11  H   UNL     1      -0.279  -0.518   1.970  0.00  0.00    +0.189 HD
BRANCH   7  12
ATOM     12  N   UNL     1      -0.193  -0.565  -2.481  0.00  0.00    -0.355 N 
ATOM     13  H   UNL     1      -0.239   0.369  -2.740  0.00  0.00    +0.142 HD
ATOM     14  H   UNL     1      -0.140  -1.255  -3.161  0.00  0.00    +0.142 HD
ENDBRANCH   7  12
ENDBRANCH   1   8
BRANCH   3  15
ATOM     15  C   UNL     1       0.312  -5.896  -1.425  0.00  0.00    +0.106 C 
ATOM     16  C   UNL     1      -0.755  -6.916  -1.022  0.00  0.00    +0.033 C 
BRANCH  15  17
ATOM     17  C   UNL     1       1.679  -6.451  -1.119  0.00  0.00    +0.011 A 
ATOM     18  C   UNL     1       1.811  -7.534  -0.270  0.00  0.00    +0.046 A 
ATOM     19  C   UNL     1       3.067  -8.044   0.011  0.00  0.00    +0.124 A 
ATOM     20  C   UNL     1       4.191  -7.470  -0.559  0.00  0.00    +0.041 A 
ATOM     21  C   UNL     1       4.059  -6.388  -1.409  0.00  0.00    +0.041 A 
ATOM     22  C   UNL     1       2.802  -5.881  -1.693  0.00  0.00    +0.128 A 
ATOM     23  F   UNL     1       2.672  -4.826  -2.527  0.00  0.00    -0.205 F 
ATOM     24  F   UNL     1       3.196  -9.102   0.841  0.00  0.00    -0.205 F 
ENDBRANCH  15  17
ENDBRANCH   3  15
TORSDOF 4
