REMARK  Name = ZINC38573990
REMARK  7 active torsions:
REMARK  status: ('A' for Active; 'I' for Inactive)
REMARK    1  A    between atoms: C_1  and  C_2
REMARK    2  A    between atoms: C_2  and  C_22
REMARK    3  A    between atoms: N_3  and  N_4
REMARK    4  A    between atoms: C_5  and  C_7
REMARK    5  A    between atoms: C_9  and  O_21
REMARK    6  A    between atoms: N_17  and  C_20
REMARK    7  A    between atoms: C_24  and  O_34
REMARK                            x       y       z     vdW  Elec       q    Type
REMARK                         _______ _______ _______ _____ _____    ______ ____
ROOT
ATOM      1  N   UNL     1       0.028  -1.954   0.881  0.00  0.00    -0.206 N 
ATOM      2  C   UNL     1      -0.082  -2.708   1.993  0.00  0.00    +0.247 C 
ATOM      3  O   UNL     1      -0.026  -2.187   3.087  0.00  0.00    -0.273 OA
ATOM      4  H   UNL     1       0.059  -2.378   0.009  0.00  0.00    +0.177 HD
ENDROOT
BRANCH   2   5
ATOM      5  C   UNL     1      -0.274  -4.199   1.877  0.00  0.00    +0.195 C 
ATOM      6  C   UNL     1      -0.445  -4.798   3.273  0.00  0.00    +0.167 C 
ATOM      7  C   UNL     1      -1.791  -4.409   3.827  0.00  0.00    +0.003 A 
ATOM      8  C   UNL     1      -1.947  -4.187   5.181  0.00  0.00    +0.008 A 
ATOM      9  C   UNL     1      -3.184  -3.830   5.686  0.00  0.00    +0.000 A 
ATOM     10  C   UNL     1      -4.268  -3.694   4.837  0.00  0.00    +0.002 A 
ATOM     11  C   UNL     1      -4.118  -3.915   3.482  0.00  0.00    +0.024 A 
ATOM     12  C   UNL     1      -2.877  -4.274   2.972  0.00  0.00    +0.042 A 
ATOM     13  N   UNL     1      -2.719  -4.501   1.601  0.00  0.00    -0.273 N 
ATOM     14  C   UNL     1      -1.496  -4.482   1.046  0.00  0.00    +0.234 C 
ATOM     15  O   UNL     1      -1.376  -4.695  -0.142  0.00  0.00    -0.274 OA
ATOM     16  C   UNL     1      -3.894  -4.761   0.767  0.00  0.00    +0.138 C 
BRANCH   6  17
ATOM     17  O   UNL     1      -0.357  -6.222   3.193  0.00  0.00    -0.386 OA
ATOM     18  H   UNL     1      -0.457  -6.671   4.044  0.00  0.00    +0.210 HD
ENDBRANCH   6  17
ENDBRANCH   2   5
BRANCH   1  21
ATOM     19  C   UNL     1       0.062   1.665   0.041  0.00  0.00    +0.063 C 
ATOM     20  C   UNL     1       0.091   0.163  -0.072  0.00  0.00    +0.053 C 
ATOM     21  N   UNL     1       0.099  -0.559   0.985  0.00  0.00    -0.188 NA
BRANCH  20  22
ATOM     22  C   UNL     1       0.111  -0.490  -1.431  0.00  0.00    +0.186 C 
ATOM     23  C   UNL     1       1.495  -0.298  -2.019  0.00  0.00    +0.120 C 
ATOM     24  C   UNL     1       1.576   0.361  -3.248  0.00  0.00    +0.035 A 
ATOM     25  C   UNL     1       2.824   0.581  -3.866  0.00  0.00    +0.013 A 
ATOM     26  C   UNL     1       2.875   1.227  -5.063  0.00  0.00    +0.001 A 
ATOM     27  C   UNL     1       1.719   1.676  -5.692  0.00  0.00    +0.002 A 
ATOM     28  C   UNL     1       0.485   1.492  -5.144  0.00  0.00    +0.024 A 
ATOM     29  C   UNL     1       0.357   0.834  -3.909  0.00  0.00    +0.044 A 
ATOM     30  N   UNL     1      -0.857   0.654  -3.372  0.00  0.00    -0.284 N 
ATOM     31  C   UNL     1      -1.060   0.048  -2.221  0.00  0.00    +0.233 C 
ATOM     32  O   UNL     1      -2.193  -0.079  -1.794  0.00  0.00    -0.274 OA
ATOM     33  H   UNL     1      -1.627   0.989  -3.857  0.00  0.00    +0.155 HD
BRANCH  23  34
ATOM     34  O   UNL     1       2.589  -0.741  -1.391  0.00  0.00    -0.509 OA
ATOM     35  H   UNL     1       3.418  -0.491  -1.821  0.00  0.00    +0.292 HD
ENDBRANCH  23  34
ENDBRANCH  20  22
ENDBRANCH   1  21
TORSDOF 5
