REMARK  Name = ZINC51808382
REMARK  6 active torsions:
REMARK  status: ('A' for Active; 'I' for Inactive)
REMARK    1  A    between atoms: C_2  and  C_3
REMARK    2  A    between atoms: C_3  and  N_4
REMARK    3  A    between atoms: C_5  and  C_7
REMARK    4  A    between atoms: C_7  and  N_8
REMARK    5  A    between atoms: C_9  and  C_11
REMARK    6  A    between atoms: N_13  and  C_14
REMARK                            x       y       z     vdW  Elec       q    Type
REMARK                         _______ _______ _______ _____ _____    ______ ____
ROOT
ATOM      1  N   UNL     1       2.978   5.290   0.025  0.00  0.00    -0.299 N 
ATOM      2  C   UNL     1       4.136   5.980   0.012  0.00  0.00    +0.300 C 
ATOM      3  O   UNL     1       5.195   5.387   0.003  0.00  0.00    -0.265 OA
ATOM      4  H   UNL     1       2.131   5.764   0.033  0.00  0.00    +0.150 HD
ENDROOT
BRANCH   2   5
ATOM      5  C   UNL     1       4.116   7.473   0.009  0.00  0.00    +0.303 C 
ATOM      6  O   UNL     1       3.057   8.066   0.018  0.00  0.00    -0.265 OA
ATOM      7  N   UNL     1       5.274   8.162  -0.004  0.00  0.00    -0.276 N 
ATOM      8  H   UNL     1       6.120   7.691   0.054  0.00  0.00    +0.155 HD
BRANCH   7   9
ATOM      9  C   UNL     1       5.257   9.556  -0.102  0.00  0.00    +0.052 A 
ATOM     10  C   UNL     1       4.240  10.284   0.503  0.00  0.00    +0.025 A 
ATOM     11  C   UNL     1       4.225  11.662   0.404  0.00  0.00    +0.002 A 
ATOM     12  C   UNL     1       5.222  12.317  -0.296  0.00  0.00    +0.002 A 
ATOM     13  C   UNL     1       6.236  11.597  -0.900  0.00  0.00    +0.022 A 
ATOM     14  C   UNL     1       6.260  10.219  -0.800  0.00  0.00    +0.062 A 
ATOM     15 CL   UNL     1       7.537   9.315  -1.553  0.00  0.00    -0.082 Cl
ENDBRANCH   7   9
ENDBRANCH   2   5
BRANCH   1  16
ATOM     16  C   UNL     1       2.997   3.825   0.029  0.00  0.00    +0.200 C 
BRANCH  16  18
ATOM     17  N   UNL     1       1.355   1.976   0.050  0.00  0.00    -0.303 N 
ATOM     18  C   UNL     1       1.583   3.304   0.044  0.00  0.00    +0.231 C 
ATOM     19  O   UNL     1       0.651   4.080   0.052  0.00  0.00    -0.274 OA
ATOM     20  H   UNL     1       2.100   1.356   0.043  0.00  0.00    +0.150 HD
BRANCH  17  21
ATOM     21  C   UNL     1      -0.020   1.470   0.065  0.00  0.00    +0.193 C 
BRANCH  21  23
ATOM     22  C   UNL     1       0.015  -1.176   0.070  0.00  0.00    +0.005 C 
ATOM     23  C   UNL     1      -0.000  -0.002   0.068  0.00  0.00    -0.087 C 
ENDBRANCH  21  23
ENDBRANCH  17  21
ENDBRANCH  16  18
ENDBRANCH   1  16
TORSDOF 6
