REMARK  Name = ZINC14945658
REMARK  3 active torsions:
REMARK  status: ('A' for Active; 'I' for Inactive)
REMARK    1  A    between atoms: C_4  and  C_8
REMARK    2  A    between atoms: C_8  and  C_10
REMARK    3  A    between atoms: C_15  and  N_16
REMARK                            x       y       z     vdW  Elec       q    Type
REMARK                         _______ _______ _______ _____ _____    ______ ____
ROOT
ATOM      1  C   UNL     1      -3.727   2.781   0.104  0.00  0.00    +0.062 A 
ATOM      2  C   UNL     1      -2.438   3.317  -0.046  0.00  0.00    +0.018 A 
ATOM      3  C   UNL     1      -1.363   2.480   0.076  0.00  0.00    +0.044 A 
ATOM      4  C   UNL     1      -1.571   1.125   0.333  0.00  0.00    +0.118 A 
ATOM      5  N   UNL     1      -2.794   0.635   0.472  0.00  0.00    -0.217 NA
ATOM      6  C   UNL     1      -3.865   1.406   0.368  0.00  0.00    +0.129 A 
ATOM      7  N   UNL     1      -0.481   0.280   0.451  0.00  0.00    -0.343 N 
ATOM      8  H   UNL     1      -0.635  -0.790   0.653  0.00  0.00    +0.144 HD
ATOM      9  H   UNL     1       0.538   0.678   0.341  0.00  0.00    +0.144 HD
ENDROOT
BRANCH   6  10
ATOM     10  N   UNL     1      -5.125   0.858   0.519  0.00  0.00    -0.343 N 
ATOM     11  H   UNL     1      -5.236  -0.217   0.725  0.00  0.00    +0.144 HD
ATOM     12  H   UNL     1      -6.016   1.496   0.433  0.00  0.00    +0.144 HD
ENDBRANCH   6  10
BRANCH   1  13
ATOM     13  C   UNL     1      -4.912   3.643  -0.012  0.00  0.00    +0.202 C 
ATOM     14  O   UNL     1      -5.201   4.405   0.891  0.00  0.00    -0.286 OA
BRANCH  13  18
ATOM     15  C   UNL     1      -7.330   3.471  -3.502  0.00  0.00    +0.006 A 
ATOM     16  C   UNL     1      -7.726   4.249  -2.429  0.00  0.00    +0.039 A 
ATOM     17  C   UNL     1      -6.946   4.310  -1.290  0.00  0.00    +0.137 A 
ATOM     18  C   UNL     1      -5.752   3.583  -1.224  0.00  0.00    +0.093 A 
ATOM     19  C   UNL     1      -5.356   2.803  -2.316  0.00  0.00    +0.137 A 
ATOM     20  C   UNL     1      -6.152   2.748  -3.445  0.00  0.00    +0.039 A 
ATOM     21  F   UNL     1      -4.203   2.102  -2.266  0.00  0.00    -0.205 F 
ATOM     22  F   UNL     1      -7.335   5.071  -0.242  0.00  0.00    -0.205 F 
ENDBRANCH  13  18
ENDBRANCH   1  13
TORSDOF 3
