REMARK  Name = ZINC10333505
REMARK  11 active torsions:
REMARK  status: ('A' for Active; 'I' for Inactive)
REMARK    1  A    between atoms: C_1  and  C_2
REMARK    2  A    between atoms: C_5  and  O_29
REMARK    3  A    between atoms: C_6  and  N_8
REMARK    4  A    between atoms: C_9  and  C_11
REMARK    5  A    between atoms: N_13  and  C_14
REMARK    6  A    between atoms: C_14  and  C_15
REMARK    7  A    between atoms: C_15  and  C_17
REMARK    8  A    between atoms: C_15  and  N_57
REMARK    9  A    between atoms: C_27  and  N_57
REMARK   10  A    between atoms: C_28  and  N_57
REMARK   11  A    between atoms: O_29  and  C_30
REMARK                            x       y       z     vdW  Elec       q    Type
REMARK                         _______ _______ _______ _____ _____    ______ ____
ROOT
ATOM      1  C   UNL     1      -1.592   2.025  -1.593  0.00  0.00    +0.299 C 
ATOM      2  O   UNL     1      -1.502   3.229  -1.475  0.00  0.00    -0.265 OA
ATOM      3  N   UNL     1      -2.689   1.383  -1.145  0.00  0.00    -0.309 N 
ATOM      4  H   UNL     1      -2.761   0.421  -1.240  0.00  0.00    +0.149 HD
ENDROOT
BRANCH   1   6
ATOM      5  N   UNL     1       0.609   1.895  -2.689  0.00  0.00    -0.275 N 
ATOM      6  C   UNL     1      -0.486   1.253  -2.236  0.00  0.00    +0.303 C 
ATOM      7  O   UNL     1      -0.577   0.048  -2.355  0.00  0.00    -0.265 OA
ATOM      8  H   UNL     1       0.649   2.864  -2.662  0.00  0.00    +0.155 HD
BRANCH   5  14
ATOM      9  C   UNL     1       2.286  -2.048  -5.099  0.00  0.00    +0.044 C 
ATOM     10  C   UNL     1       2.530  -0.751  -4.372  0.00  0.00    -0.048 A 
ATOM     11  C   UNL     1       3.822  -0.284  -4.209  0.00  0.00    +0.007 A 
ATOM     12  C   UNL     1       4.053   0.904  -3.542  0.00  0.00    +0.048 A 
ATOM     13  C   UNL     1       2.989   1.633  -3.035  0.00  0.00    +0.141 A 
ATOM     14  C   UNL     1       1.687   1.164  -3.199  0.00  0.00    +0.076 A 
ATOM     15  C   UNL     1       1.464  -0.034  -3.864  0.00  0.00    +0.030 A 
BRANCH  13  16
ATOM     16  O   UNL     1       3.215   2.803  -2.380  0.00  0.00    -0.493 OA
ATOM     17  C   UNL     1       4.575   3.221  -2.250  0.00  0.00    +0.277 C 
ENDBRANCH  13  16
ENDBRANCH   5  14
ENDBRANCH   1   6
BRANCH   3  18
ATOM     18  C   UNL     1      -3.773   2.140  -0.515  0.00  0.00    +0.094 C 
BRANCH  18  19
ATOM     19  C   UNL     1      -4.809   1.169   0.056  0.00  0.00    -0.020 C 
BRANCH  19  20
ATOM     20  C   UNL     1      -5.993   1.944   0.574  0.00  0.00    -0.052 A 
ATOM     21  C   UNL     1      -6.155   2.133   1.912  0.00  0.00    +0.003 A 
ATOM     22  C   UNL     1      -7.241   2.851   2.409  0.00  0.00    +0.001 A 
ATOM     23  C   UNL     1      -8.177   3.376   1.571  0.00  0.00    +0.008 A 
ATOM     24  C   UNL     1      -8.045   3.198   0.183  0.00  0.00    -0.018 A 
ATOM     25  C   UNL     1      -6.938   2.471  -0.322  0.00  0.00    -0.016 A 
ATOM     26  C   UNL     1      -6.807   2.293  -1.710  0.00  0.00    +0.009 A 
ATOM     27  C   UNL     1      -7.742   2.819  -2.548  0.00  0.00    +0.001 A 
ATOM     28  C   UNL     1      -8.831   3.533  -2.050  0.00  0.00    +0.001 A 
ATOM     29  C   UNL     1      -8.991   3.725  -0.713  0.00  0.00    +0.008 A 
ENDBRANCH  19  20
BRANCH  19  32
ATOM     30  C   UNL     1      -3.553  -0.813   0.653  0.00  0.00    -0.096 C 
ATOM     31  C   UNL     1      -3.264   1.230   1.920  0.00  0.00    -0.096 C 
ATOM     32  N   UNL     1      -4.228   0.395   1.173  0.00  0.00    +0.382 N 
ATOM     33  H   UNL     1      -4.982   0.108   1.808  0.00  0.00    -0.082 HD
ENDBRANCH  19  32
ENDBRANCH  18  19
ENDBRANCH   3  18
TORSDOF 7
