REMARK  Name = ZINC55029295
REMARK  10 active torsions:
REMARK  status: ('A' for Active; 'I' for Inactive)
REMARK    1  A    between atoms: C_1  and  C_2
REMARK    2  A    between atoms: C_2  and  C_3
REMARK    3  A    between atoms: C_3  and  N_4
REMARK    4  A    between atoms: N_4  and  C_5
REMARK    5  A    between atoms: C_5  and  C_6
REMARK    6  A    between atoms: C_9  and  C_11
REMARK    7  A    between atoms: C_11  and  C_13
REMARK    8  A    between atoms: C_11  and  N_14
REMARK    9  A    between atoms: C_17  and  N_20
REMARK   10  A    between atoms: N_23  and  C_24
REMARK                            x       y       z     vdW  Elec       q    Type
REMARK                         _______ _______ _______ _____ _____    ______ ____
ROOT
ATOM      1  N   UNL     1       3.724  -2.946   0.666  0.00  0.00    +0.387 N 
ATOM      2  C   UNL     1       4.747  -2.310   1.504  0.00  0.00    -0.076 C 
ATOM      3  C   UNL     1       5.747  -3.365   1.984  0.00  0.00    +0.004 C 
ATOM      4  C   UNL     1       5.005  -4.429   2.799  0.00  0.00    +0.071 C 
ATOM      5  C   UNL     1       3.892  -5.033   1.939  0.00  0.00    +0.004 C 
ATOM      6  C   UNL     1       2.961  -3.916   1.461  0.00  0.00    -0.076 C 
ATOM      7  H   UNL     1       4.170  -3.421  -0.105  0.00  0.00    -0.081 HD
ENDROOT
BRANCH   4   8
ATOM      8  N   UNL     1       5.942  -5.482   3.198  0.00  0.00    -0.297 N 
ATOM      9  C   UNL     1       5.691  -6.229   4.291  0.00  0.00    +0.300 C 
ATOM     10  O   UNL     1       4.687  -6.029   4.947  0.00  0.00    -0.253 OA
ATOM     11  N   UNL     1       6.553  -7.198   4.658  0.00  0.00    -0.297 N 
ATOM     12  H   UNL     1       6.743  -5.642   2.675  0.00  0.00    +0.151 HD
ATOM     13  H   UNL     1       7.354  -7.358   4.135  0.00  0.00    +0.151 HD
BRANCH  11  14
ATOM     14  C   UNL     1       6.280  -8.010   5.846  0.00  0.00    +0.074 C 
ATOM     15  C   UNL     1       5.362  -9.174   5.469  0.00  0.00    +0.022 C 
ATOM     16  C   UNL     1       5.077 -10.022   6.710  0.00  0.00    +0.002 C 
ATOM     17  C   UNL     1       6.392 -10.570   7.266  0.00  0.00    +0.000 C 
ATOM     18  C   UNL     1       7.311  -9.407   7.643  0.00  0.00    +0.002 C 
ATOM     19  C   UNL     1       7.596  -8.559   6.402  0.00  0.00    +0.022 C 
ENDBRANCH  11  14
ENDBRANCH   4   8
BRANCH   1  20
ATOM     20  C   UNL     1       2.813  -1.919   0.144  0.00  0.00    +0.016 C 
ATOM     21  C   UNL     1       3.611  -0.890  -0.660  0.00  0.00    -0.004 C 
BRANCH  20  23
ATOM     22  N   UNL     1       0.593  -1.967  -0.945  0.00  0.00    -0.303 N 
ATOM     23  C   UNL     1       1.784  -2.565  -0.747  0.00  0.00    +0.202 C 
ATOM     24  O   UNL     1       2.028  -3.624  -1.286  0.00  0.00    -0.277 OA
BRANCH  22  25
ATOM     25  C   UNL     1      -0.450  -2.649  -1.716  0.00  0.00    +0.107 C 
BRANCH  25  27
ATOM     26  C   UNL     1      -1.468  -2.915  -3.982  0.00  0.00    +0.005 C 
ATOM     27  C   UNL     1      -0.379  -2.203  -3.177  0.00  0.00    +0.016 C 
ENDBRANCH  25  27
ENDBRANCH  22  25
BRANCH  22  28
ATOM     28  C   UNL     1       0.341  -0.634  -0.391  0.00  0.00    +0.111 C 
BRANCH  28  29
ATOM     29  C   UNL     1      -0.250  -0.770   1.014  0.00  0.00    +0.006 C 
ATOM     30  C   UNL     1      -1.670  -0.248   1.237  0.00  0.00    +0.005 C 
ATOM     31  C   UNL     1      -0.475   0.515   1.813  0.00  0.00    +0.005 C 
ENDBRANCH  28  29
ENDBRANCH  22  28
ENDBRANCH  20  23
ENDBRANCH   1  20
TORSDOF 8
