REMARK  Name = ZINC13811279
REMARK  5 active torsions:
REMARK  status: ('A' for Active; 'I' for Inactive)
REMARK    1  A    between atoms: C_1  and  C_2
REMARK    2  A    between atoms: C_5  and  N_8
REMARK    3  A    between atoms: C_11  and  C_21
REMARK    4  A    between atoms: C_15  and  C_16
REMARK    5  A    between atoms: C_15  and  C_18
REMARK                            x       y       z     vdW  Elec       q    Type
REMARK                         _______ _______ _______ _____ _____    ______ ____
ROOT
ATOM      1  N   UNL     1       2.674  -0.073   0.104  0.00  0.00    -0.232 N 
ATOM      2  C   UNL     1       3.772  -0.505   0.701  0.00  0.00    +0.238 C 
ATOM      3  O   UNL     1       3.853  -1.618   1.175  0.00  0.00    -0.274 OA
ATOM      4  C   UNL     1       4.924   0.485   0.761  0.00  0.00    +0.136 C 
ATOM      5  S   UNL     1       4.170   1.919  -0.104  0.00  0.00    -0.096 S 
ATOM      6  C   UNL     1       2.576   1.185  -0.440  0.00  0.00    +0.098 C 
ATOM      7  C   UNL     1       1.486   1.758  -1.095  0.00  0.00    +0.141 C 
ATOM      8  C   UNL     1       6.146  -0.040   0.005  0.00  0.00    +0.029 C 
ENDROOT
BRANCH   1  13
ATOM      9  C   UNL     1      -1.796  -3.552  -0.241  0.00  0.00    +0.044 C 
ATOM     10  C   UNL     1      -0.609  -2.628  -0.149  0.00  0.00    -0.050 A 
ATOM     11  C   UNL     1       0.429  -2.746  -1.055  0.00  0.00    +0.005 A 
ATOM     12  C   UNL     1       1.518  -1.901  -0.974  0.00  0.00    +0.024 A 
ATOM     13  C   UNL     1       1.571  -0.932   0.019  0.00  0.00    +0.042 A 
ATOM     14  C   UNL     1       0.530  -0.820   0.931  0.00  0.00    +0.024 A 
ATOM     15  C   UNL     1      -0.559  -1.664   0.841  0.00  0.00    +0.005 A 
ENDBRANCH   1  13
BRANCH   7  16
ATOM     16  C   UNL     1       0.306   0.948  -1.396  0.00  0.00    +0.254 C 
ATOM     17  O   UNL     1      -0.663   0.986  -0.659  0.00  0.00    -0.270 OA
ATOM     18  N   UNL     1       0.293   0.154  -2.485  0.00  0.00    -0.325 N 
ATOM     19  H   UNL     1      -0.488  -0.386  -2.683  0.00  0.00    +0.145 HD
ATOM     20  H   UNL     1       1.064   0.124  -3.072  0.00  0.00    +0.145 HD
ENDBRANCH   7  16
BRANCH   7  21
ATOM     21  C   UNL     1       1.522   3.138  -1.473  0.00  0.00    +0.107 C 
ATOM     22  N   UNL     1       1.550   4.234  -1.774  0.00  0.00    -0.191 NA
ENDBRANCH   7  21
TORSDOF 3
