REMARK  Name = ZINC38611440
REMARK  4 active torsions:
REMARK  status: ('A' for Active; 'I' for Inactive)
REMARK    1  A    between atoms: C_1  and  C_2
REMARK    2  A    between atoms: C_4  and  C_16
REMARK    3  A    between atoms: C_6  and  C_14
REMARK    4  A    between atoms: C_7  and  N_13
REMARK                            x       y       z     vdW  Elec       q    Type
REMARK                         _______ _______ _______ _____ _____    ______ ____
ROOT
ATOM      1  C   UNL     1      -0.018   1.503   0.010  0.00  0.00    +0.067 C 
ATOM      2  C   UNL     1       0.002  -0.004   0.002  0.00  0.00    +0.066 C 
ATOM      3  C   UNL     1      -1.064  -0.768   0.003  0.00  0.00    +0.030 C 
ATOM      4  C   UNL     1      -2.537  -0.492  -0.122  0.00  0.00    +0.103 C 
ATOM      5  C   UNL     1      -3.075  -1.565  -1.050  0.00  0.00    +0.098 C 
ATOM      6  C   UNL     1      -2.317  -2.612  -1.438  0.00  0.00    +0.195 C 
ATOM      7  O   UNL     1      -1.033  -2.841  -1.107  0.00  0.00    -0.448 OA
ATOM      8  C   UNL     1      -0.528  -2.199   0.066  0.00  0.00    +0.343 C 
ATOM      9  N   UNL     1       0.921  -1.985   0.002  0.00  0.00    -0.138 NA
ATOM     10  N   UNL     1       1.127  -0.765  -0.013  0.00  0.00    -0.155 NA
ENDROOT
BRANCH   4  11
ATOM     11  C   UNL     1      -2.762   0.875  -0.717  0.00  0.00    +0.041 A 
ATOM     12  C   UNL     1      -2.274   1.169  -1.978  0.00  0.00    +0.168 A 
ATOM     13  C   UNL     1      -2.481   2.426  -2.526  0.00  0.00    +0.197 A 
ATOM     14  C   UNL     1      -3.176   3.387  -1.810  0.00  0.00    +0.199 A 
ATOM     15  C   UNL     1      -3.664   3.091  -0.547  0.00  0.00    +0.197 A 
ATOM     16  C   UNL     1      -3.462   1.833  -0.003  0.00  0.00    +0.168 A 
ATOM     17  F   UNL     1      -3.943   1.542   1.225  0.00  0.00    -0.202 F 
ATOM     18  F   UNL     1      -4.343   4.028   0.152  0.00  0.00    -0.199 F 
ATOM     19  F   UNL     1      -3.378   4.612  -2.342  0.00  0.00    -0.199 F 
ATOM     20  F   UNL     1      -2.004   2.713  -3.756  0.00  0.00    -0.199 F 
ATOM     21  F   UNL     1      -1.596   0.232  -2.676  0.00  0.00    -0.202 F 
ENDBRANCH   4  11
BRANCH   6  22
ATOM     22  N   UNL     1      -2.917  -3.538  -2.254  0.00  0.00    -0.329 N 
ATOM     23  H   UNL     1      -3.842  -3.421  -2.523  0.00  0.00    +0.145 HD
ATOM     24  H   UNL     1      -2.417  -4.310  -2.562  0.00  0.00    +0.145 HD
ENDBRANCH   6  22
BRANCH   5  25
ATOM     25  C   UNL     1      -4.422  -1.466  -1.525  0.00  0.00    +0.101 C 
ATOM     26  N   UNL     1      -5.491  -1.387  -1.903  0.00  0.00    -0.191 NA
ENDBRANCH   5  25
TORSDOF 3
