REMARK  Name = ZINC43503509
REMARK  3 active torsions:
REMARK  status: ('A' for Active; 'I' for Inactive)
REMARK    1  A    between atoms: C_5  and  C_6
REMARK    2  A    between atoms: N_8  and  C_9
REMARK    3  A    between atoms: C_9  and  C_14
REMARK                            x       y       z     vdW  Elec       q    Type
REMARK                         _______ _______ _______ _____ _____    ______ ____
ROOT
ATOM      1  C   UNL     1      -1.172  -0.881   0.009  0.00  0.00    +0.280 C 
ATOM      2  O   UNL     1      -2.290  -0.401   0.023  0.00  0.00    -0.267 OA
ATOM      3  N   UNL     1      -1.014  -2.220   0.000  0.00  0.00    -0.293 N 
ATOM      4  H   UNL     1      -0.122  -2.602  -0.011  0.00  0.00    +0.150 HD
ENDROOT
BRANCH   1   9
ATOM      5  C   UNL     1      -0.016   1.362   0.009  0.00  0.00    +0.056 A 
ATOM      6  C   UNL     1       1.321   1.784  -0.001  0.00  0.00    +0.058 A 
ATOM      7  C   UNL     1       2.090   0.670  -0.014  0.00  0.00    +0.171 A 
ATOM      8  O   UNL     1       1.291  -0.405  -0.012  0.00  0.00    -0.444 OA
ATOM      9  C   UNL     1       0.002  -0.004   0.002  0.00  0.00    +0.191 A 
ATOM     10 BR   UNL     1       3.981   0.637  -0.033  0.00  0.00    -0.008 Br
ENDBRANCH   1   9
BRANCH   3  11
ATOM     11  C   UNL     1      -2.187  -3.096   0.007  0.00  0.00    +0.146 C 
ATOM     12  C   UNL     1      -1.728  -4.563   0.043  0.00  0.00    +0.049 C 
ATOM     13  C   UNL     1      -1.147  -4.924  -1.354  0.00  0.00    +0.072 C 
ATOM     14  S   UNL     1      -2.357  -4.072  -2.452  0.00  0.00    -0.158 S 
ATOM     15  C   UNL     1      -3.029  -2.838  -1.266  0.00  0.00    +0.106 C 
BRANCH  11  16
ATOM     16  C   UNL     1      -3.022  -2.804   1.227  0.00  0.00    +0.380 C 
ATOM     17  O   UNL     1      -2.663  -1.953   2.023  0.00  0.00    -0.244 OA
ATOM     18  O   UNL     1      -4.058  -3.419   1.419  0.00  0.00    -0.244 OA
ENDBRANCH  11  16
ENDBRANCH   3  11
TORSDOF 3
