REMARK  Name = ZINC39021646
REMARK  5 active torsions:
REMARK  status: ('A' for Active; 'I' for Inactive)
REMARK    1  A    between atoms: C_1  and  C_2
REMARK    2  A    between atoms: C_2  and  C_23
REMARK    3  A    between atoms: C_6  and  O_22
REMARK    4  A    between atoms: C_12  and  O_14
REMARK    5  A    between atoms: O_14  and  C_15
REMARK                            x       y       z     vdW  Elec       q    Type
REMARK                         _______ _______ _______ _____ _____    ______ ____
ROOT
ATOM      1  C   UNL     1      -0.019   1.526   0.010  0.00  0.00    +0.011 C 
ATOM      2  C   UNL     1       0.002  -0.004   0.002  0.00  0.00    -0.031 C 
ATOM      3  C   UNL     1      -1.433  -0.534   0.013  0.00  0.00    +0.015 C 
ATOM      4  C   UNL     1      -1.650  -1.393   1.260  0.00  0.00    +0.047 C 
ATOM      5  C   UNL     1      -0.673  -2.570   1.244  0.00  0.00    +0.120 C 
ATOM      6  C   UNL     1       0.763  -2.041   1.233  0.00  0.00    +0.035 C 
ATOM      7  C   UNL     1       0.742  -0.511   1.242  0.00  0.00    -0.000 C 
ATOM      8  C   UNL     1       0.026  -0.018   2.500  0.00  0.00    +0.036 C 
ATOM      9  C   UNL     1      -1.409  -0.547   2.511  0.00  0.00    +0.127 C 
ATOM     10  C   UNL     1       0.718  -0.497  -1.257  0.00  0.00    +0.011 C 
ENDROOT
BRANCH   5  11
ATOM     11  O   UNL     1      -0.897  -3.361   0.075  0.00  0.00    -0.391 OA
ATOM     12  H   UNL     1      -0.311  -4.126  -0.001  0.00  0.00    +0.210 HD
ENDBRANCH   5  11
BRANCH   9  13
ATOM     13  O   UNL     1      -1.612  -1.350   3.676  0.00  0.00    -0.348 OA
BRANCH  13  14
ATOM     14  C   UNL     1      -2.079  -0.620   4.811  0.00  0.00    +0.250 C 
ATOM     15  C   UNL     1      -2.024  -1.515   6.052  0.00  0.00    +0.061 C 
ATOM     16  C   UNL     1      -2.582  -0.745   7.253  0.00  0.00    +0.007 C 
ATOM     17  C   UNL     1      -4.008  -0.284   6.932  0.00  0.00    +0.028 C 
ATOM     18  C   UNL     1      -3.987   0.563   5.657  0.00  0.00    +0.163 C 
ATOM     19  O   UNL     1      -3.427  -0.201   4.587  0.00  0.00    -0.351 OA
ENDBRANCH  13  14
ENDBRANCH   9  13
TORSDOF 3
