REMARK  Name = ZINC10255677
REMARK  2 active torsions:
REMARK  status: ('A' for Active; 'I' for Inactive)
REMARK    1  A    between atoms: C_8  and  C_21
REMARK    2  A    between atoms: C_11  and  C_13
REMARK                            x       y       z     vdW  Elec       q    Type
REMARK                         _______ _______ _______ _____ _____    ______ ____
ROOT
ATOM      1  C   UNL     1       3.986   1.745  -3.884  0.00  0.00    +0.000 A 
ATOM      2  C   UNL     1       4.691   0.899  -3.048  0.00  0.00    +0.002 A 
ATOM      3  C   UNL     1       4.187   0.572  -1.807  0.00  0.00    +0.024 A 
ATOM      4  C   UNL     1       2.962   1.092  -1.385  0.00  0.00    +0.041 A 
ATOM      5  C   UNL     1       2.264   1.940  -2.231  0.00  0.00    -0.024 A 
ATOM      6  C   UNL     1       2.773   2.265  -3.474  0.00  0.00    +0.005 A 
ATOM      7  C   UNL     1       0.984   2.359  -1.543  0.00  0.00    +0.069 C 
ATOM      8  C   UNL     1       1.024   1.645  -0.182  0.00  0.00    +0.171 C 
ATOM      9  N   UNL     1       2.281   0.890  -0.182  0.00  0.00    -0.255 N 
ATOM     10  C   UNL     1       2.716   0.116   0.832  0.00  0.00    +0.253 C 
ATOM     11  O   UNL     1       3.756  -0.505   0.719  0.00  0.00    -0.270 OA
ENDROOT
BRANCH  10  12
ATOM     12  C   UNL     1       1.931   0.021   2.079  0.00  0.00    +0.056 A 
ATOM     13  C   UNL     1       0.816   0.840   2.269  0.00  0.00    +0.016 A 
ATOM     14  C   UNL     1       0.086   0.747   3.435  0.00  0.00    +0.021 A 
ATOM     15  C   UNL     1       0.457  -0.157   4.418  0.00  0.00    +0.042 A 
ATOM     16  C   UNL     1       1.562  -0.971   4.237  0.00  0.00    +0.040 A 
ATOM     17  C   UNL     1       2.298  -0.892   3.071  0.00  0.00    +0.054 A 
ATOM     18 CL   UNL     1       3.679  -1.918   2.842  0.00  0.00    -0.083 Cl
ATOM     19 CL   UNL     1      -0.467  -0.268   5.883  0.00  0.00    -0.083 Cl
ENDBRANCH  10  12
BRANCH   8  20
ATOM     20  C   UNL     1      -0.148   0.707  -0.049  0.00  0.00    +0.232 C 
ATOM     21  O   UNL     1       0.040  -0.483   0.091  0.00  0.00    -0.274 OA
ATOM     22  N   UNL     1      -1.405   1.190  -0.090  0.00  0.00    -0.328 N 
ATOM     23  H   UNL     1      -2.160   0.587  -0.008  0.00  0.00    +0.145 HD
ATOM     24  H   UNL     1      -1.556   2.142  -0.201  0.00  0.00    +0.145 HD
ENDBRANCH   8  20
TORSDOF 2
