REMARK  Name = ZINC39603680
REMARK  8 active torsions:
REMARK  status: ('A' for Active; 'I' for Inactive)
REMARK    1  A    between atoms: C_1  and  O_2
REMARK    2  A    between atoms: O_2  and  C_3
REMARK    3  A    between atoms: C_3  and  C_4
REMARK    4  A    between atoms: C_4  and  N_5
REMARK    5  A    between atoms: C_6  and  C_8
REMARK    6  A    between atoms: C_19  and  C_21
REMARK    7  A    between atoms: C_24  and  O_28
REMARK    8  A    between atoms: O_28  and  C_29
REMARK                            x       y       z     vdW  Elec       q    Type
REMARK                         _______ _______ _______ _____ _____    ______ ____
ROOT
ATOM      1  C   UNL     1       0.737  -4.305   2.152  0.00  0.00    +0.100 C 
ATOM      2  C   UNL     1       2.137  -3.783   2.546  0.00  0.00    +0.121 C 
ATOM      3  N   UNL     1       2.784  -4.928   3.230  0.00  0.00    -0.296 N 
ATOM      4  C   UNL     1       2.363  -6.112   2.444  0.00  0.00    +0.115 C 
ATOM      5  C   UNL     1       0.890  -5.834   2.085  0.00  0.00    -0.004 C 
ATOM      6  C   UNL     1       0.588  -6.334   0.676  0.00  0.00    -0.010 C 
ATOM      7  C   UNL     1       0.689  -7.862   0.649  0.00  0.00    -0.082 C 
ATOM      8  N   UNL     1      -0.264  -8.434   1.608  0.00  0.00    +0.379 N 
ATOM      9  C   UNL     1       0.091  -8.023   2.971  0.00  0.00    -0.082 C 
ATOM     10  C   UNL     1      -0.036  -6.502   3.097  0.00  0.00    -0.010 C 
ATOM     11  C   UNL     1       3.577  -4.898   4.320  0.00  0.00    +0.247 C 
ATOM     12  O   UNL     1       3.728  -3.859   4.933  0.00  0.00    -0.270 OA
ATOM     13  H   UNL     1      -1.194  -8.109   1.391  0.00  0.00    -0.086 HD
ATOM     14  H   UNL     1      -0.238  -9.441   1.544  0.00  0.00    -0.086 HD
ENDROOT
BRANCH  11  15
ATOM     15  C   UNL     1       4.260  -6.127   4.769  0.00  0.00    +0.040 A 
ATOM     16  C   UNL     1       4.457  -7.184   3.877  0.00  0.00    +0.036 A 
ATOM     17  C   UNL     1       5.096  -8.330   4.300  0.00  0.00    +0.085 A 
ATOM     18  C   UNL     1       5.543  -8.435   5.613  0.00  0.00    +0.157 A 
ATOM     19  C   UNL     1       5.348  -7.385   6.503  0.00  0.00    +0.085 A 
ATOM     20  C   UNL     1       4.715  -6.234   6.086  0.00  0.00    +0.036 A 
ATOM     21 CL   UNL     1       5.907  -7.522   8.141  0.00  0.00    -0.080 Cl
ATOM     22 CL   UNL     1       5.342  -9.644   3.193  0.00  0.00    -0.080 Cl
BRANCH  18  23
ATOM     23  O   UNL     1       6.170  -9.566   6.026  0.00  0.00    -0.492 OA
ATOM     24  C   UNL     1       7.591  -9.609   5.882  0.00  0.00    +0.277 C 
ENDBRANCH  18  23
ENDBRANCH  11  15
BRANCH   1  26
ATOM     25  N   UNL     1      -0.968  -3.554   0.525  0.00  0.00    -0.313 N 
ATOM     26  C   UNL     1       0.334  -3.759   0.806  0.00  0.00    +0.218 C 
ATOM     27  O   UNL     1       1.181  -3.503  -0.023  0.00  0.00    -0.275 OA
ATOM     28  H   UNL     1      -1.646  -3.758   1.189  0.00  0.00    +0.149 HD
BRANCH  25  29
ATOM     29  C   UNL     1      -1.361  -3.023  -0.782  0.00  0.00    +0.132 C 
BRANCH  29  30
ATOM     30  C   UNL     1      -2.883  -2.886  -0.842  0.00  0.00    +0.178 C 
BRANCH  30  32
ATOM     31  C   UNL     1      -4.725  -1.703   0.134  0.00  0.00    +0.194 C 
ATOM     32  O   UNL     1      -3.311  -1.908   0.108  0.00  0.00    -0.381 OA
ENDBRANCH  30  32
ENDBRANCH  29  30
ENDBRANCH  25  29
ENDBRANCH   1  26
TORSDOF 6
