REMARK  Name = ZINC67272150
REMARK  6 active torsions:
REMARK  status: ('A' for Active; 'I' for Inactive)
REMARK    1  A    between atoms: C_1  and  C_2
REMARK    2  A    between atoms: N_5  and  C_8
REMARK    3  A    between atoms: C_8  and  C_10
REMARK    4  A    between atoms: C_8  and  C_11
REMARK    5  A    between atoms: C_11  and  N_12
REMARK    6  A    between atoms: C_13  and  C_15
REMARK                            x       y       z     vdW  Elec       q    Type
REMARK                         _______ _______ _______ _____ _____    ______ ____
ROOT
ATOM      1  N   UNL     1      -2.995  -3.976   0.450  0.00  0.00    -0.317 N 
ATOM      2  C   UNL     1      -4.327  -4.177   0.438  0.00  0.00    +0.218 C 
ATOM      3  O   UNL     1      -4.867  -4.716   1.382  0.00  0.00    -0.275 OA
ATOM      4  H   UNL     1      -2.563  -3.546  -0.305  0.00  0.00    +0.149 HD
ENDROOT
BRANCH   2   5
ATOM      5  C   UNL     1      -5.146  -3.733  -0.746  0.00  0.00    +0.092 C 
ATOM      6  C   UNL     1      -6.618  -4.078  -0.507  0.00  0.00    +0.016 C 
ATOM      7  C   UNL     1      -7.456  -3.598  -1.695  0.00  0.00    +0.020 C 
ATOM      8  C   UNL     1      -6.991  -4.316  -2.966  0.00  0.00    +0.109 C 
ATOM      9  N   UNL     1      -5.545  -4.109  -3.124  0.00  0.00    -0.285 N 
ATOM     10  C   UNL     1      -4.655  -4.452  -2.006  0.00  0.00    +0.122 C 
ATOM     11  C   UNL     1      -5.044  -3.613  -4.273  0.00  0.00    +0.300 C 
ATOM     12  O   UNL     1      -3.857  -3.361  -4.359  0.00  0.00    -0.253 OA
ATOM     13  N   UNL     1      -5.857  -3.398  -5.325  0.00  0.00    -0.313 N 
ATOM     14  H   UNL     1      -6.814  -3.531  -5.234  0.00  0.00    +0.146 HD
ATOM     15  H   UNL     1      -5.487  -3.109  -6.174  0.00  0.00    +0.146 HD
ENDBRANCH   2   5
BRANCH   1  16
ATOM     16  C   UNL     1      -2.198  -4.408   1.601  0.00  0.00    +0.088 C 
BRANCH  16  17
ATOM     17  C   UNL     1      -0.749  -3.951   1.419  0.00  0.00    -0.054 C 
ATOM     18  C   UNL     1       0.056  -4.299   2.672  0.00  0.00    -0.012 C 
BRANCH  17  23
ATOM     19  C   UNL     1       0.078   1.690   1.519  0.00  0.00    +0.007 C 
ATOM     20  C   UNL     1       0.126   0.197   1.848  0.00  0.00    -0.018 C 
ATOM     21  C   UNL     1       0.695  -0.573   0.653  0.00  0.00    -0.016 C 
ATOM     22  C   UNL     1       0.666  -2.072   0.959  0.00  0.00    -0.078 C 
ATOM     23  N   UNL     1      -0.717  -2.498   1.203  0.00  0.00    +0.382 N 
ATOM     24  C   UNL     1      -1.246  -1.817   2.391  0.00  0.00    -0.078 C 
ATOM     25  C   UNL     1      -1.290  -0.308   2.141  0.00  0.00    -0.016 C 
ATOM     26  H   UNL     1      -1.286  -2.267   0.403  0.00  0.00    -0.081 HD
ENDBRANCH  17  23
ENDBRANCH  16  17
ENDBRANCH   1  16
TORSDOF 4
