REMARK  Name = ZINC63572700
REMARK  5 active torsions:
REMARK  status: ('A' for Active; 'I' for Inactive)
REMARK    1  A    between atoms: C_1  and  C_2
REMARK    2  A    between atoms: C_5  and  C_8
REMARK    3  A    between atoms: N_26  and  C_27
REMARK    4  A    between atoms: C_32  and  O_33
REMARK    5  A    between atoms: O_33  and  C_34
REMARK                            x       y       z     vdW  Elec       q    Type
REMARK                         _______ _______ _______ _____ _____    ______ ____
ROOT
ATOM      1  C   UNL     1      -0.616  -4.510  -0.357  0.00  0.00    +0.134 C 
ATOM      2  C   UNL     1       0.897  -4.734  -0.446  0.00  0.00    +0.131 C 
ATOM      3  C   UNL     1       1.157  -6.153   0.045  0.00  0.00    -0.035 C 
ATOM      4  C   UNL     1       1.808  -6.774  -0.931  0.00  0.00    +0.001 A 
ATOM      5  C   UNL     1       2.382  -8.126  -1.018  0.00  0.00    +0.030 A 
ATOM      6  C   UNL     1       2.983  -8.447  -2.196  0.00  0.00    +0.042 A 
ATOM      7  C   UNL     1       3.068  -7.568  -3.281  0.00  0.00    +0.022 A 
ATOM      8  C   UNL     1       2.572  -6.305  -3.286  0.00  0.00    +0.027 A 
ATOM      9  C   UNL     1       1.920  -5.852  -2.102  0.00  0.00    +0.043 A 
ATOM     10  N   UNL     1       1.376  -4.679  -1.828  0.00  0.00    -0.375 N 
ATOM     11 CL   UNL     1       3.681 -10.029  -2.360  0.00  0.00    -0.084 Cl
ATOM     12  C   UNL     1       0.647  -6.656   1.373  0.00  0.00    +0.052 C 
ATOM     13  C   UNL     1      -0.854  -6.318   1.429  0.00  0.00    +0.114 C 
ATOM     14  N   UNL     1      -1.059  -4.937   0.979  0.00  0.00    -0.276 N 
ATOM     15  C   UNL     1      -1.658  -4.050   1.798  0.00  0.00    +0.307 C 
ATOM     16  O   UNL     1      -1.963  -2.949   1.383  0.00  0.00    -0.252 OA
ATOM     17  N   UNL     1      -1.919  -4.385   3.078  0.00  0.00    -0.266 N 
ATOM     18  H   UNL     1      -1.617  -5.237   3.428  0.00  0.00    +0.156 HD
ATOM     19  H   UNL     1       1.298  -3.919  -2.426  0.00  0.00    +0.160 HD
ENDROOT
BRANCH   1  24
ATOM     20  C   UNL     1      -1.815   1.091  -1.116  0.00  0.00    +0.044 C 
ATOM     21  C   UNL     1      -1.502  -0.369  -0.918  0.00  0.00    -0.050 A 
ATOM     22  C   UNL     1      -2.260  -1.331  -1.559  0.00  0.00    +0.004 A 
ATOM     23  C   UNL     1      -1.973  -2.671  -1.378  0.00  0.00    +0.006 A 
ATOM     24  C   UNL     1      -0.928  -3.050  -0.556  0.00  0.00    -0.025 A 
ATOM     25  C   UNL     1      -0.170  -2.087   0.085  0.00  0.00    +0.006 A 
ATOM     26  C   UNL     1      -0.454  -0.747  -0.100  0.00  0.00    +0.004 A 
ENDBRANCH   1  24
BRANCH  17  27
ATOM     27  C   UNL     1      -2.628  -3.500   3.902  0.00  0.00    +0.077 A 
ATOM     28  C   UNL     1      -2.613  -2.139   3.636  0.00  0.00    +0.027 A 
ATOM     29  C   UNL     1      -3.313  -1.268   4.451  0.00  0.00    +0.002 A 
ATOM     30  C   UNL     1      -4.027  -1.751   5.532  0.00  0.00    +0.004 A 
ATOM     31  C   UNL     1      -4.046  -3.106   5.803  0.00  0.00    +0.047 A 
ATOM     32  C   UNL     1      -3.353  -3.986   4.988  0.00  0.00    +0.141 A 
BRANCH  32  33
ATOM     33  O   UNL     1      -3.375  -5.320   5.250  0.00  0.00    -0.493 OA
ATOM     34  C   UNL     1      -4.139  -5.747   6.380  0.00  0.00    +0.277 C 
ENDBRANCH  32  33
ENDBRANCH  17  27
TORSDOF 3
