REMARK  Name = ZINC34936920
REMARK  8 active torsions:
REMARK  status: ('A' for Active; 'I' for Inactive)
REMARK    1  A    between atoms: C_1  and  S_2
REMARK    2  A    between atoms: S_2  and  C_3
REMARK    3  A    between atoms: C_3  and  C_4
REMARK    4  A    between atoms: C_4  and  C_5
REMARK    5  A    between atoms: C_5  and  C_7
REMARK    6  A    between atoms: C_5  and  N_10
REMARK    7  A    between atoms: N_10  and  S_11
REMARK    8  A    between atoms: S_11  and  C_14
REMARK                            x       y       z     vdW  Elec       q    Type
REMARK                         _______ _______ _______ _____ _____    ______ ____
ROOT
ATOM      1  N   UNL     1       3.161  -1.773  -2.823  0.00  0.00    -0.176 NA
ATOM      2  H   UNL     1       3.674  -1.769  -1.999  0.00  0.00    +0.149 HD
ENDROOT
BRANCH   1   3
ATOM      3  S   UNL     1       3.893  -1.381  -4.256  0.00  0.00    +0.060 S 
ATOM      4  O   UNL     1       5.250  -1.090  -3.953  0.00  0.00    -0.153 OA
ATOM      5  O   UNL     1       3.519  -2.384  -5.190  0.00  0.00    -0.153 OA
BRANCH   3   6
ATOM      6  C   UNL     1       3.168   0.124  -4.816  0.00  0.00    +0.119 A 
ATOM      7  C   UNL     1       2.410   0.138  -5.972  0.00  0.00    +0.029 A 
ATOM      8  C   UNL     1       1.841   1.319  -6.411  0.00  0.00    +0.002 A 
ATOM      9  C   UNL     1       2.029   2.486  -5.695  0.00  0.00    +0.001 A 
ATOM     10  C   UNL     1       2.786   2.473  -4.539  0.00  0.00    +0.017 A 
ATOM     11  C   UNL     1       3.352   1.290  -4.096  0.00  0.00    +0.044 A 
ATOM     12 BR   UNL     1       4.382   1.270  -2.510  0.00  0.00    -0.048 Br
ENDBRANCH   3   6
ENDBRANCH   1   3
BRANCH   1  13
ATOM     13  C   UNL     1       1.740  -2.126  -2.798  0.00  0.00    +0.190 C 
BRANCH  13  14
ATOM     14  C   UNL     1       1.592  -3.623  -2.888  0.00  0.00    +0.374 C 
ATOM     15  O   UNL     1       0.605  -4.107  -3.415  0.00  0.00    -0.245 OA
ATOM     16  O   UNL     1       2.459  -4.349  -2.433  0.00  0.00    -0.245 OA
ENDBRANCH  13  14
BRANCH  13  17
ATOM     17  C   UNL     1       1.113  -1.629  -1.494  0.00  0.00    +0.042 C 
BRANCH  17  18
ATOM     18  C   UNL     1       1.152  -0.099  -1.460  0.00  0.00    +0.071 C 
BRANCH  18  20
ATOM     19  C   UNL     1       0.531   2.296  -0.028  0.00  0.00    +0.084 C 
ATOM     20  S   UNL     1       0.409   0.490   0.087  0.00  0.00    -0.164 S 
ENDBRANCH  18  20
ENDBRANCH  17  18
ENDBRANCH  13  17
ENDBRANCH   1  13
TORSDOF 7
