REMARK  Name = ZINC14012045
REMARK  5 active torsions:
REMARK  status: ('A' for Active; 'I' for Inactive)
REMARK    1  A    between atoms: C_3  and  N_11
REMARK    2  A    between atoms: C_4  and  N_8
REMARK    3  A    between atoms: N_11  and  C_12
REMARK    4  A    between atoms: C_12  and  N_14
REMARK    5  A    between atoms: C_15  and  C_17
REMARK                            x       y       z     vdW  Elec       q    Type
REMARK                         _______ _______ _______ _____ _____    ______ ____
ROOT
ATOM      1  N   UNL     1      -1.222   2.067  -0.014  0.00  0.00    -0.295 N 
ATOM      2  H   UNL     1      -1.235   3.036   0.028  0.00  0.00    +0.154 HD
ENDROOT
BRANCH   1   5
ATOM      3  C   UNL     1       1.415  -0.400  -0.709  0.00  0.00    +0.022 A 
ATOM      4  C   UNL     1       0.210   0.273  -0.765  0.00  0.00    +0.027 A 
ATOM      5  C   UNL     1      -0.005   1.380   0.045  0.00  0.00    +0.063 A 
ATOM      6  C   UNL     1       0.994   1.808   0.910  0.00  0.00    +0.149 A 
ATOM      7  C   UNL     1       2.197   1.132   0.963  0.00  0.00    +0.054 A 
ATOM      8  C   UNL     1       2.408   0.029   0.153  0.00  0.00    +0.043 A 
ATOM      9 CL   UNL     1       3.921  -0.819   0.222  0.00  0.00    -0.083 Cl
BRANCH   6  10
ATOM     10  N   UNL     1       0.769   2.988   1.775  0.00  0.00    +0.058 N 
ATOM     11  O   UNL     1       1.679   3.425   2.458  0.00  0.00    -0.126 OA
ATOM     12  O   UNL     1      -0.325   3.522   1.805  0.00  0.00    -0.126 OA
ENDBRANCH   6  10
ENDBRANCH   1   5
BRANCH   1  13
ATOM     13  C   UNL     1      -2.377   1.382  -0.130  0.00  0.00    +0.141 C 
ATOM     14  S   UNL     1      -2.360  -0.330  -0.138  0.00  0.00    -0.018 S 
BRANCH  13  15
ATOM     15  N   UNL     1      -3.546   2.045  -0.239  0.00  0.00    -0.261 N 
ATOM     16  C   UNL     1      -4.701   1.360  -0.354  0.00  0.00    +0.285 C 
ATOM     17  O   UNL     1      -4.689   0.143  -0.360  0.00  0.00    -0.266 OA
ATOM     18  H   UNL     1      -3.555   3.015  -0.234  0.00  0.00    +0.157 HD
BRANCH  16  19
ATOM     19  C   UNL     1      -5.970   2.080  -0.473  0.00  0.00    +0.191 A 
ATOM     20  C   UNL     1      -7.207   1.512  -0.596  0.00  0.00    +0.056 A 
ATOM     21  C   UNL     1      -8.129   2.566  -0.678  0.00  0.00    +0.058 A 
ATOM     22  C   UNL     1      -7.424   3.719  -0.604  0.00  0.00    +0.171 A 
ATOM     23  O   UNL     1      -6.124   3.421  -0.474  0.00  0.00    -0.444 OA
ATOM     24 BR   UNL     1      -8.154   5.462  -0.664  0.00  0.00    -0.008 Br
ENDBRANCH  16  19
ENDBRANCH  13  15
ENDBRANCH   1  13
TORSDOF 5
