REMARK  Name = ZINC36743205
REMARK  7 active torsions:
REMARK  status: ('A' for Active; 'I' for Inactive)
REMARK    1  A    between atoms: C_1  and  C_2
REMARK    2  A    between atoms: C_2  and  C_3
REMARK    3  A    between atoms: C_3  and  C_4
REMARK    4  A    between atoms: C_4  and  S_5
REMARK    5  A    between atoms: S_5  and  N_8
REMARK    6  A    between atoms: N_8  and  C_9
REMARK    7  A    between atoms: C_10  and  N_17
REMARK                            x       y       z     vdW  Elec       q    Type
REMARK                         _______ _______ _______ _____ _____    ______ ____
ROOT
ATOM      1  C   UNL     1      -2.224  -4.748   1.167  0.00  0.00    +0.082 A 
ATOM      2  C   UNL     1      -3.135  -5.174   2.133  0.00  0.00    +0.049 A 
ATOM      3  C   UNL     1      -2.830  -6.261   2.938  0.00  0.00    +0.040 A 
ATOM      4  C   UNL     1      -1.623  -6.920   2.782  0.00  0.00    +0.021 A 
ATOM      5  C   UNL     1      -0.719  -6.497   1.825  0.00  0.00    +0.032 A 
ATOM      6  C   UNL     1      -1.019  -5.417   1.013  0.00  0.00    +0.043 A 
ATOM      7 BR   UNL     1       0.218  -4.849  -0.300  0.00  0.00    -0.048 Br
ATOM      8 BR   UNL     1      -1.209  -8.402   3.881  0.00  0.00    -0.050 Br
ENDROOT
BRANCH   2   9
ATOM      9  N   UNL     1      -4.355  -4.506   2.290  0.00  0.00    -0.356 N 
ATOM     10  H   UNL     1      -4.684  -3.924   1.586  0.00  0.00    +0.142 HD
ATOM     11  H   UNL     1      -4.872  -4.624   3.102  0.00  0.00    +0.142 HD
ENDBRANCH   2   9
BRANCH   1  12
ATOM     12  N   UNL     1      -2.526  -3.650   0.351  0.00  0.00    -0.218 N 
ATOM     13  H   UNL     1      -2.643  -3.773  -0.604  0.00  0.00    +0.173 HD
BRANCH  12  14
ATOM     14  S   UNL     1      -2.685  -2.142   1.018  0.00  0.00    +0.043 S 
ATOM     15  O   UNL     1      -3.573  -2.321   2.112  0.00  0.00    -0.155 OA
ATOM     16  O   UNL     1      -3.037  -1.300  -0.071  0.00  0.00    -0.155 OA
BRANCH  14  17
ATOM     17  C   UNL     1      -1.026  -1.722   1.621  0.00  0.00    +0.188 C 
BRANCH  17  18
ATOM     18  C   UNL     1      -1.062  -0.350   2.297  0.00  0.00    +0.024 C 
BRANCH  18  20
ATOM     19  C   UNL     1       0.302   1.376   3.482  0.00  0.00    +0.004 C 
ATOM     20  C   UNL     1       0.337   0.004   2.806  0.00  0.00    -0.002 C 
ENDBRANCH  18  20
ENDBRANCH  17  18
ENDBRANCH  14  17
ENDBRANCH  12  14
ENDBRANCH   1  12
TORSDOF 6
