REMARK  Name = ZINC01036295
REMARK  9 active torsions:
REMARK  status: ('A' for Active; 'I' for Inactive)
REMARK    1  A    between atoms: C_1  and  C_2
REMARK    2  A    between atoms: N_4  and  N_5
REMARK    3  A    between atoms: N_5  and  C_6
REMARK    4  A    between atoms: N_5  and  C_7
REMARK    5  A    between atoms: C_10  and  C_25
REMARK    6  A    between atoms: C_12  and  N_13
REMARK    7  A    between atoms: N_13  and  C_14
REMARK    8  A    between atoms: C_14  and  N_16
REMARK    9  A    between atoms: N_16  and  C_17
REMARK                            x       y       z     vdW  Elec       q    Type
REMARK                         _______ _______ _______ _____ _____    ______ ____
ROOT
ATOM      1  C   UNL     1      -2.485   2.118  -1.359  0.00  0.00    +0.068 A 
ATOM      2  C   UNL     1      -3.766   1.592  -1.439  0.00  0.00    +0.027 A 
ATOM      3  C   UNL     1      -4.672   2.115  -2.342  0.00  0.00    +0.014 A 
ATOM      4  C   UNL     1      -4.306   3.162  -3.168  0.00  0.00    +0.057 A 
ATOM      5  C   UNL     1      -3.031   3.692  -3.095  0.00  0.00    +0.037 A 
ATOM      6  C   UNL     1      -2.117   3.177  -2.188  0.00  0.00    +0.056 A 
ENDROOT
BRANCH   4   7
ATOM      7  C   UNL     1      -5.299   3.727  -4.151  0.00  0.00    +0.417 C 
ATOM      8  F   UNL     1      -6.510   3.034  -4.040  0.00  0.00    -0.166 F 
ATOM      9  F   UNL     1      -5.510   5.082  -3.873  0.00  0.00    -0.166 F 
ATOM     10  F   UNL     1      -4.800   3.589  -5.450  0.00  0.00    -0.166 F 
ENDBRANCH   4   7
BRANCH   1  11
ATOM     11  N   UNL     1      -1.566   1.590  -0.445  0.00  0.00    -0.252 N 
ATOM     12  C   UNL     1      -1.544   2.079   0.936  0.00  0.00    +0.154 C 
BRANCH  11  16
ATOM     13  C   UNL     1       1.620  -0.195  -1.366  0.00  0.00    +0.110 C 
ATOM     14  C   UNL     1       0.634   0.895  -1.032  0.00  0.00    +0.226 C 
ATOM     15  O   UNL     1       1.012   2.043  -0.926  0.00  0.00    -0.275 OA
ATOM     16  N   UNL     1      -0.667   0.595  -0.851  0.00  0.00    -0.234 N 
ATOM     17  H   UNL     1      -0.982  -0.309  -1.005  0.00  0.00    +0.173 HD
ENDBRANCH  11  16
ENDBRANCH   1  11
BRANCH   6  18
ATOM     18  N   UNL     1      -0.826   3.716  -2.108  0.00  0.00    -0.295 N 
ATOM     19  H   UNL     1      -0.429   3.898  -1.242  0.00  0.00    +0.154 HD
BRANCH  18  20
ATOM     20  C   UNL     1      -0.137   3.983  -3.235  0.00  0.00    +0.139 C 
ATOM     21  S   UNL     1      -0.881   3.777  -4.763  0.00  0.00    -0.018 S 
BRANCH  20  22
ATOM     22  N   UNL     1       1.139   4.411  -3.159  0.00  0.00    -0.295 N 
ATOM     23  H   UNL     1       1.585   4.456  -2.299  0.00  0.00    +0.154 HD
BRANCH  22  24
ATOM     24  C   UNL     1       1.820   4.791  -4.321  0.00  0.00    +0.053 A 
ATOM     25  C   UNL     1       1.717   4.020  -5.471  0.00  0.00    +0.044 A 
ATOM     26  C   UNL     1       2.388   4.400  -6.619  0.00  0.00    +0.043 A 
ATOM     27  C   UNL     1       3.169   5.543  -6.619  0.00  0.00    +0.021 A 
ATOM     28  C   UNL     1       3.277   6.310  -5.474  0.00  0.00    +0.023 A 
ATOM     29  C   UNL     1       2.606   5.937  -4.324  0.00  0.00    +0.062 A 
ATOM     30 CL   UNL     1       2.743   6.901  -2.887  0.00  0.00    -0.082 Cl
ATOM     31 CL   UNL     1       2.255   3.440  -8.059  0.00  0.00    -0.083 Cl
ENDBRANCH  22  24
ENDBRANCH  20  22
ENDBRANCH  18  20
ENDBRANCH   6  18
TORSDOF 7
