REMARK  Name = ZINC50478023
REMARK  6 active torsions:
REMARK  status: ('A' for Active; 'I' for Inactive)
REMARK    1  A    between atoms: C_3  and  N_18
REMARK    2  A    between atoms: C_6  and  C_7
REMARK    3  A    between atoms: C_7  and  C_8
REMARK    4  A    between atoms: C_8  and  S_9
REMARK    5  A    between atoms: S_9  and  C_11
REMARK    6  A    between atoms: C_16  and  N_17
REMARK                            x       y       z     vdW  Elec       q    Type
REMARK                         _______ _______ _______ _____ _____    ______ ____
ROOT
ATOM      1  C   UNL     1      -1.805  -0.881  -1.453  0.00  0.00    +0.114 C 
ENDROOT
BRANCH   1   2
ATOM      2  S   UNL     1      -3.280  -1.936  -1.427  0.00  0.00    +0.056 S 
ATOM      3  O   UNL     1      -4.380  -1.200  -0.911  0.00  0.00    -0.252 OA
BRANCH   2   4
ATOM      4  C   UNL     1      -3.675  -2.157  -3.130  0.00  0.00    +0.062 A 
ATOM      5  C   UNL     1      -4.601  -1.338  -3.756  0.00  0.00    +0.038 A 
ATOM      6  C   UNL     1      -4.886  -1.539  -5.093  0.00  0.00    +0.112 A 
ATOM      7  N   UNL     1      -4.291  -2.497  -5.777  0.00  0.00    -0.261 NA
ATOM      8  C   UNL     1      -3.404  -3.299  -5.221  0.00  0.00    +0.134 A 
ATOM      9  C   UNL     1      -3.061  -3.155  -3.882  0.00  0.00    +0.059 A 
BRANCH   9  10
ATOM     10  N   UNL     1      -2.116  -4.003  -3.298  0.00  0.00    -0.356 N 
ATOM     11  H   UNL     1      -1.944  -3.953  -2.345  0.00  0.00    +0.142 HD
ATOM     12  H   UNL     1      -1.633  -4.641  -3.845  0.00  0.00    +0.142 HD
ENDBRANCH   9  10
ENDBRANCH   2   4
ENDBRANCH   1   2
BRANCH   1  13
ATOM     13  C   UNL     1      -1.349  -0.608  -0.018  0.00  0.00    +0.048 C 
BRANCH  13  19
ATOM     14  C   UNL     1      -0.257   1.645  -0.013  0.00  0.00    +0.006 A 
ATOM     15  C   UNL     1       0.867   2.449  -0.032  0.00  0.00    +0.033 A 
ATOM     16  C   UNL     1       2.125   1.878  -0.077  0.00  0.00    +0.126 A 
ATOM     17  C   UNL     1       2.259   0.502  -0.103  0.00  0.00    +0.033 A 
ATOM     18  C   UNL     1       1.135  -0.302  -0.083  0.00  0.00    +0.006 A 
ATOM     19  C   UNL     1      -0.123   0.269  -0.039  0.00  0.00    -0.046 A 
BRANCH  16  20
ATOM     20  N   UNL     1       3.329   2.739  -0.099  0.00  0.00    +0.056 N 
ATOM     21  O   UNL     1       3.212   3.942  -0.077  0.00  0.00    -0.126 OA
ATOM     22  O   UNL     1       4.429   2.239  -0.138  0.00  0.00    -0.126 OA
ENDBRANCH  16  20
ENDBRANCH  13  19
ENDBRANCH   1  13
TORSDOF 6
