REMARK  Name = ZINC00441816
REMARK  3 active torsions:
REMARK  status: ('A' for Active; 'I' for Inactive)
REMARK    1  A    between atoms: C_4  and  S_7
REMARK    2  A    between atoms: S_7  and  C_10
REMARK    3  A    between atoms: C_11  and  N_23
REMARK                            x       y       z     vdW  Elec       q    Type
REMARK                         _______ _______ _______ _____ _____    ______ ____
ROOT
ATOM      1  C   UNL     1       0.002  -0.004   0.002  0.00  0.00    +0.154 A 
ATOM      2  C   UNL     1      -0.016   1.339   0.009  0.00  0.00    +0.067 A 
ATOM      3  C   UNL     1       1.247   2.066   0.001  0.00  0.00    +0.030 A 
ATOM      4  C   UNL     1       1.476   3.459   0.005  0.00  0.00    +0.017 A 
ATOM      5  C   UNL     1       2.772   3.939  -0.005  0.00  0.00    -0.025 A 
ATOM      6  C   UNL     1       3.836   3.056  -0.014  0.00  0.00    +0.046 A 
ATOM      7  N   UNL     1       3.613   1.749  -0.020  0.00  0.00    -0.244 NA
ATOM      8  C   UNL     1       2.401   1.249  -0.013  0.00  0.00    +0.112 A 
ATOM      9  S   UNL     1       1.740  -0.399  -0.016  0.00  0.00    -0.048 S 
ATOM     10  C   UNL     1       5.271   3.517  -0.010  0.00  0.00    +0.056 C 
ATOM     11  C   UNL     1       5.366   4.980  -0.435  0.00  0.00    +0.006 C 
ATOM     12  C   UNL     1       4.385   5.796   0.415  0.00  0.00    +0.005 C 
ATOM     13  C   UNL     1       2.963   5.434  -0.009  0.00  0.00    +0.037 C 
ENDROOT
BRANCH   1  14
ATOM     14  S   UNL     1      -1.367  -1.113   0.009  0.00  0.00    +0.033 S 
ATOM     15  O   UNL     1      -0.894  -2.339   0.549  0.00  0.00    -0.164 OA
ATOM     16  O   UNL     1      -2.461  -0.403   0.575  0.00  0.00    -0.164 OA
BRANCH  14  20
ATOM     17  C   UNL     1      -2.450  -1.932  -4.309  0.00  0.00    +0.000 A 
ATOM     18  C   UNL     1      -1.532  -2.737  -3.662  0.00  0.00    +0.002 A 
ATOM     19  C   UNL     1      -1.201  -2.487  -2.343  0.00  0.00    +0.027 A 
ATOM     20  C   UNL     1      -1.789  -1.431  -1.672  0.00  0.00    +0.094 A 
ATOM     21  C   UNL     1      -2.711  -0.629  -2.317  0.00  0.00    +0.027 A 
ATOM     22  C   UNL     1      -3.038  -0.877  -3.637  0.00  0.00    +0.002 A 
ENDBRANCH  14  20
ENDBRANCH   1  14
BRANCH   2  23
ATOM     23  N   UNL     1      -1.239   2.036   0.019  0.00  0.00    -0.356 N 
ATOM     24  H   UNL     1      -2.076   1.546   0.021  0.00  0.00    +0.142 HD
ATOM     25  H   UNL     1      -1.244   3.006   0.024  0.00  0.00    +0.142 HD
ENDBRANCH   2  23
TORSDOF 3
