REMARK  Name = ZINC05247229
REMARK  9 active torsions:
REMARK  status: ('A' for Active; 'I' for Inactive)
REMARK    1  A    between atoms: C_1  and  C_2
REMARK    2  A    between atoms: C_2  and  N_54
REMARK    3  A    between atoms: C_3  and  C_5
REMARK    4  A    between atoms: C_3  and  C_6
REMARK    5  A    between atoms: C_3  and  N_54
REMARK    6  A    between atoms: C_20  and  N_23
REMARK    7  A    between atoms: C_24  and  O_26
REMARK    8  A    between atoms: O_26  and  C_27
REMARK    9  A    between atoms: C_27  and  C_28
REMARK                            x       y       z     vdW  Elec       q    Type
REMARK                         _______ _______ _______ _____ _____    ______ ____
ROOT
ATOM      1  C   UNL     1      -0.539   2.011   1.327  0.00  0.00    +0.210 C 
ATOM      2  O   UNL     1      -0.033   2.645   2.228  0.00  0.00    -0.277 OA
ATOM      3  N   UNL     1      -1.809   1.574   1.441  0.00  0.00    -0.241 N 
ATOM      4  C   UNL     1      -2.311   0.726   0.457  0.00  0.00    +0.044 A 
ATOM      5  C   UNL     1      -1.462  -0.326   0.076  0.00  0.00    +0.024 A 
ATOM      6  C   UNL     1      -1.866  -1.257  -0.853  0.00  0.00    +0.002 A 
ATOM      7  C   UNL     1      -3.128  -1.154  -1.411  0.00  0.00    +0.000 A 
ATOM      8  C   UNL     1      -3.954  -0.115  -1.049  0.00  0.00    +0.005 A 
ATOM      9  C   UNL     1      -3.550   0.848  -0.118  0.00  0.00    -0.025 A 
ATOM     10  C   UNL     1      -4.564   1.938   0.125  0.00  0.00    +0.042 C 
ATOM     11  C   UNL     1      -4.030   3.130   0.880  0.00  0.00    +0.042 C 
ATOM     12  C   UNL     1      -3.652   2.791   2.291  0.00  0.00    -0.025 A 
ATOM     13  C   UNL     1      -2.562   1.997   2.536  0.00  0.00    +0.046 A 
ATOM     14  C   UNL     1      -2.220   1.631   3.829  0.00  0.00    +0.047 A 
ATOM     15  C   UNL     1      -2.991   2.094   4.889  0.00  0.00    +0.038 A 
ATOM     16  C   UNL     1      -4.086   2.912   4.642  0.00  0.00    +0.024 A 
ATOM     17  C   UNL     1      -4.418   3.262   3.346  0.00  0.00    +0.007 A 
ENDROOT
BRANCH  15  18
ATOM     18  N   UNL     1      -2.665   1.736   6.202  0.00  0.00    -0.251 N 
ATOM     19  C   UNL     1      -2.124   0.528   6.457  0.00  0.00    +0.405 C 
ATOM     20  O   UNL     1      -2.004  -0.285   5.562  0.00  0.00    -0.226 OA
ATOM     21  H   UNL     1      -2.829   2.357   6.929  0.00  0.00    +0.158 HD
BRANCH  19  22
ATOM     22  O   UNL     1      -1.716   0.222   7.703  0.00  0.00    -0.450 OA
BRANCH  22  23
ATOM     23  C   UNL     1      -1.142  -1.097   7.904  0.00  0.00    +0.230 C 
ATOM     24  C   UNL     1      -0.740  -1.260   9.371  0.00  0.00    +0.048 C 
ENDBRANCH  22  23
ENDBRANCH  19  22
ENDBRANCH  15  18
BRANCH   1  25
ATOM     25  C   UNL     1       0.251   1.711   0.080  0.00  0.00    +0.014 C 
ATOM     26  C   UNL     1      -0.450   2.332  -1.130  0.00  0.00    -0.004 C 
BRANCH  25  27
ATOM     27  N   UNL     1       1.603   2.285   0.214  0.00  0.00    +0.386 N 
ATOM     28  H   UNL     1       1.582   3.271  -0.071  0.00  0.00    -0.085 HD
ATOM     29  H   UNL     1       1.904   2.218   1.193  0.00  0.00    -0.085 HD
BRANCH  27  31
ATOM     30  C   UNL     1       3.949   2.169  -0.480  0.00  0.00    -0.017 C 
ATOM     31  C   UNL     1       2.558   1.552  -0.640  0.00  0.00    -0.085 C 
ENDBRANCH  27  31
ENDBRANCH  25  27
ENDBRANCH   1  25
TORSDOF 6
