REMARK  Name = ZINC39566367
REMARK  6 active torsions:
REMARK  status: ('A' for Active; 'I' for Inactive)
REMARK    1  A    between atoms: C_1  and  C_2
REMARK    2  A    between atoms: C_4  and  S_9
REMARK    3  A    between atoms: C_5  and  C_8
REMARK    4  A    between atoms: S_9  and  N_12
REMARK    5  A    between atoms: N_12  and  C_13
REMARK    6  A    between atoms: C_19  and  N_23
REMARK                            x       y       z     vdW  Elec       q    Type
REMARK                         _______ _______ _______ _____ _____    ______ ____
ROOT
ATOM      1  C   UNL     1       2.198   1.685  -3.244  0.00  0.00    +0.224 C 
ATOM      2  N   UNL     1       2.312   3.128  -2.990  0.00  0.00    -0.318 N 
ATOM      3  C   UNL     1       2.924   3.910  -3.973  0.00  0.00    +0.043 A 
ATOM      4  C   UNL     1       3.121   5.301  -3.906  0.00  0.00    +0.026 A 
ATOM      5  C   UNL     1       3.735   5.985  -4.928  0.00  0.00    +0.024 A 
ATOM      6  C   UNL     1       4.181   5.324  -6.065  0.00  0.00    +0.026 A 
ATOM      7  C   UNL     1       3.998   3.949  -6.157  0.00  0.00    +0.039 A 
ATOM      8  C   UNL     1       3.383   3.271  -5.128  0.00  0.00    +0.034 A 
ATOM      9  S   UNL     1       2.986   1.551  -4.899  0.00  0.00    -0.084 S 
ATOM     10  H   UNL     1       1.976   3.522  -2.170  0.00  0.00    +0.148 HD
ENDROOT
BRANCH   6  11
ATOM     11  N   UNL     1       4.804   6.030  -7.101  0.00  0.00    -0.358 N 
ATOM     12  H   UNL     1       4.927   6.990  -7.029  0.00  0.00    +0.142 HD
ATOM     13  H   UNL     1       5.112   5.560  -7.892  0.00  0.00    +0.142 HD
ENDBRANCH   6  11
BRANCH   1  14
ATOM     14  N   UNL     1       0.794   1.269  -3.294  0.00  0.00    -0.160 NA
ATOM     15  H   UNL     1       0.108   1.905  -3.551  0.00  0.00    +0.151 HD
BRANCH  14  16
ATOM     16  S   UNL     1       0.378  -0.287  -2.911  0.00  0.00    +0.061 S 
ATOM     17  O   UNL     1       1.253  -1.134  -3.644  0.00  0.00    -0.153 OA
ATOM     18  O   UNL     1      -1.036  -0.370  -3.026  0.00  0.00    -0.153 OA
BRANCH  16  21
ATOM     19  C   UNL     1      -0.019   1.526   0.010  0.00  0.00    +0.041 C 
ATOM     20  C   UNL     1       0.002  -0.004   0.002  0.00  0.00    +0.176 C 
ATOM     21  C   UNL     1       0.759  -0.524  -1.207  0.00  0.00    +0.131 C 
ATOM     22  C   UNL     1       1.780  -1.203  -0.679  0.00  0.00    +0.084 C 
ATOM     23  N   UNL     1       1.738  -1.160   0.671  0.00  0.00    -0.157 NA
ATOM     24  N   UNL     1       0.787  -0.521   1.136  0.00  0.00    -0.178 NA
ATOM     25  C   UNL     1       2.837  -1.919  -1.480  0.00  0.00    +0.069 C 
ENDBRANCH  16  21
ENDBRANCH  14  16
ENDBRANCH   1  14
TORSDOF 4
