REMARK  Name = ZINC38052620
REMARK  5 active torsions:
REMARK  status: ('A' for Active; 'I' for Inactive)
REMARK    1  A    between atoms: C_1  and  C_2
REMARK    2  A    between atoms: C_6  and  O_19
REMARK    3  A    between atoms: C_7  and  N_8
REMARK    4  A    between atoms: N_8  and  S_9
REMARK    5  A    between atoms: S_9  and  C_12
REMARK                            x       y       z     vdW  Elec       q    Type
REMARK                         _______ _______ _______ _____ _____    ______ ____
ROOT
ATOM      1  N   UNL     1      -0.234  -0.095   2.440  0.00  0.00    -0.212 N 
ATOM      2  H   UNL     1      -0.444   0.852   2.455  0.00  0.00    +0.174 HD
ENDROOT
BRANCH   1   9
ATOM      3  C   UNL     1       2.021   0.695   0.898  0.00  0.00    +0.046 C 
ATOM      4  C   UNL     1       1.081  -0.389   0.437  0.00  0.00    -0.025 A 
ATOM      5  C   UNL     1       1.306  -1.034  -0.765  0.00  0.00    +0.005 A 
ATOM      6  C   UNL     1       0.446  -2.029  -1.191  0.00  0.00    +0.004 A 
ATOM      7  C   UNL     1      -0.644  -2.384  -0.417  0.00  0.00    +0.047 A 
ATOM      8  C   UNL     1      -0.876  -1.743   0.788  0.00  0.00    +0.139 A 
ATOM      9  C   UNL     1      -0.007  -0.743   1.221  0.00  0.00    +0.092 A 
BRANCH   8  10
ATOM     10  O   UNL     1      -1.948  -2.091   1.550  0.00  0.00    -0.505 OA
ATOM     11  H   UNL     1      -1.795  -2.860   2.116  0.00  0.00    +0.292 HD
ENDBRANCH   8  10
ENDBRANCH   1   9
BRANCH   1  12
ATOM     12  S   UNL     1      -0.143  -0.945   3.859  0.00  0.00    +0.072 S 
ATOM     13  O   UNL     1      -0.397  -0.018   4.905  0.00  0.00    -0.150 OA
ATOM     14  O   UNL     1      -0.920  -2.121   3.678  0.00  0.00    -0.150 OA
BRANCH  12  15
ATOM     15  C   UNL     1       1.529  -1.470   4.046  0.00  0.00    +0.109 A 
ATOM     16  C   UNL     1       1.910  -2.728   3.617  0.00  0.00    +0.030 A 
ATOM     17  C   UNL     1       3.221  -3.140   3.763  0.00  0.00    +0.017 A 
ATOM     18  C   UNL     1       4.152  -2.293   4.338  0.00  0.00    +0.018 A 
ATOM     19  C   UNL     1       3.770  -1.035   4.767  0.00  0.00    +0.017 A 
ATOM     20  C   UNL     1       2.460  -0.622   4.616  0.00  0.00    +0.030 A 
ATOM     21 BR   UNL     1       5.946  -2.856   4.538  0.00  0.00    -0.050 Br
ENDBRANCH  12  15
ENDBRANCH   1  12
TORSDOF 4
