REMARK  Name = ZINC39945772
REMARK  11 active torsions:
REMARK  status: ('A' for Active; 'I' for Inactive)
REMARK    1  A    between atoms: C_1  and  C_2
REMARK    2  A    between atoms: C_2  and  C_3
REMARK    3  A    between atoms: C_3  and  C_4
REMARK    4  A    between atoms: C_4  and  N_5
REMARK    5  A    between atoms: C_9  and  S_34
REMARK    6  A    between atoms: C_13  and  S_14
REMARK    7  A    between atoms: S_14  and  C_15
REMARK    8  A    between atoms: C_15  and  C_17
REMARK    9  A    between atoms: C_15  and  C_23
REMARK   10  A    between atoms: C_23  and  C_25
REMARK   11  A    between atoms: S_34  and  N_37
REMARK                            x       y       z     vdW  Elec       q    Type
REMARK                         _______ _______ _______ _____ _____    ______ ____
ROOT
ATOM      1  S   UNL     1       3.954  -2.554  -1.314  0.00  0.00    -0.072 S 
ENDROOT
BRANCH   1  10
ATOM      2  N   UNL     1       1.425  -2.500  -2.470  0.00  0.00    -0.319 N 
ATOM      3  C   UNL     1       0.839  -2.770  -3.697  0.00  0.00    +0.070 A 
ATOM      4  C   UNL     1      -0.459  -2.700  -4.178  0.00  0.00    +0.030 A 
ATOM      5  C   UNL     1      -0.727  -3.047  -5.486  0.00  0.00    +0.030 A 
ATOM      6  C   UNL     1       0.296  -3.466  -6.325  0.00  0.00    +0.107 A 
ATOM      7  C   UNL     1       1.591  -3.541  -5.864  0.00  0.00    +0.058 A 
ATOM      8  C   UNL     1       1.878  -3.193  -4.542  0.00  0.00    +0.092 A 
ATOM      9  N   UNL     1       3.024  -3.163  -3.812  0.00  0.00    -0.222 NA
ATOM     10  C   UNL     1       2.762  -2.751  -2.596  0.00  0.00    +0.171 A 
BRANCH   6  11
ATOM     11  S   UNL     1      -0.066  -3.905  -7.992  0.00  0.00    +0.056 S 
ATOM     12  O   UNL     1       0.969  -4.783  -8.415  0.00  0.00    -0.153 OA
ATOM     13  O   UNL     1      -1.438  -4.272  -8.027  0.00  0.00    -0.153 OA
BRANCH  11  14
ATOM     14  N   UNL     1       0.080  -2.530  -8.904  0.00  0.00    -0.204 NA
ATOM     15  H   UNL     1       0.352  -2.590  -9.833  0.00  0.00    +0.144 HD
ATOM     16  H   UNL     1      -0.107  -1.664  -8.508  0.00  0.00    +0.144 HD
ENDBRANCH  11  14
ENDBRANCH   6  11
BRANCH   2  17
ATOM     17  C   UNL     1       0.739  -2.027  -1.265  0.00  0.00    +0.124 C 
BRANCH  17  18
ATOM     18  C   UNL     1       0.718  -0.497  -1.257  0.00  0.00    +0.021 C 
BRANCH  18  20
ATOM     19  C   UNL     1      -0.019   1.526   0.010  0.00  0.00    +0.004 C 
ATOM     20  C   UNL     1       0.002  -0.004   0.002  0.00  0.00    -0.002 C 
ENDBRANCH  18  20
ENDBRANCH  17  18
ENDBRANCH   2  17
ENDBRANCH   1  10
BRANCH   1  21
ATOM     21  C   UNL     1       5.520  -3.038  -2.093  0.00  0.00    +0.155 C 
BRANCH  21  22
ATOM     22  C   UNL     1       5.858  -2.062  -3.190  0.00  0.00    -0.027 A 
ATOM     23  C   UNL     1       6.037  -0.724  -2.894  0.00  0.00    +0.005 A 
ATOM     24  C   UNL     1       6.347   0.171  -3.901  0.00  0.00    +0.000 A 
ATOM     25  C   UNL     1       6.478  -0.272  -5.204  0.00  0.00    +0.000 A 
ATOM     26  C   UNL     1       6.300  -1.610  -5.500  0.00  0.00    +0.000 A 
ATOM     27  C   UNL     1       5.994  -2.506  -4.492  0.00  0.00    +0.005 A 
ENDBRANCH  21  22
BRANCH  21  28
ATOM     28  C   UNL     1       6.617  -3.032  -1.060  0.00  0.00    +0.179 C 
ATOM     29  O   UNL     1       6.518  -2.333  -0.072  0.00  0.00    -0.291 OA
BRANCH  28  30
ATOM     30  C   UNL     1       7.760  -3.840  -1.241  0.00  0.00    +0.025 C 
ATOM     31  C   UNL     1       8.847  -3.954  -0.392  0.00  0.00    +0.006 A 
ATOM     32  C   UNL     1       9.166  -3.353   0.848  0.00  0.00    +0.010 A 
ATOM     33  C   UNL     1      10.326  -3.655   1.473  0.00  0.00    +0.001 A 
ATOM     34  C   UNL     1      11.257  -4.560   0.938  0.00  0.00    +0.002 A 
ATOM     35  C   UNL     1      11.048  -5.188  -0.239  0.00  0.00    +0.026 A 
ATOM     36  C   UNL     1       9.808  -4.916  -0.985  0.00  0.00    +0.043 A 
ATOM     37  N   UNL     1       9.358  -5.370  -2.120  0.00  0.00    -0.380 N 
ATOM     38  C   UNL     1       8.052  -4.767  -2.400  0.00  0.00    +0.152 C 
ATOM     39  H   UNL     1       9.814  -6.010  -2.688  0.00  0.00    +0.160 HD
ENDBRANCH  28  30
ENDBRANCH  21  28
ENDBRANCH   1  21
TORSDOF 10
