REMARK  Name = ZINC38743815
REMARK  6 active torsions:
REMARK  status: ('A' for Active; 'I' for Inactive)
REMARK    1  A    between atoms: C_1  and  C_2
REMARK    2  A    between atoms: C_2  and  C_3
REMARK    3  A    between atoms: C_2  and  C_4
REMARK    4  A    between atoms: C_6  and  C_10
REMARK    5  A    between atoms: C_14  and  S_18
REMARK    6  A    between atoms: N_16  and  N_17
REMARK                            x       y       z     vdW  Elec       q    Type
REMARK                         _______ _______ _______ _____ _____    ______ ____
ROOT
ATOM      1  C   UNL     1       2.045  -2.942  -3.073  0.00  0.00    +0.185 C 
ATOM      2  N   UNL     1       0.648  -3.441  -2.982  0.00  0.00    -0.234 NA
ATOM      3  N   UNL     1       0.654  -4.611  -3.874  0.00  0.00    -0.228 NA
ATOM      4  C   UNL     1       1.523  -4.209  -5.004  0.00  0.00    +0.211 C 
ATOM      5  N   UNL     1       2.415  -3.145  -4.492  0.00  0.00    -0.197 NA
ATOM      6  H   UNL     1       0.421  -3.710  -2.036  0.00  0.00    +0.143 HD
ATOM      7  H   UNL     1       1.025  -5.423  -3.404  0.00  0.00    +0.143 HD
ENDROOT
BRANCH   1  10
ATOM      8  C   UNL     1       0.707  -0.490  -1.238  0.00  0.00    +0.064 C 
ATOM      9  C   UNL     1       1.805  -1.250  -1.237  0.00  0.00    +0.029 C 
ATOM     10  C   UNL     1       2.107  -1.457  -2.710  0.00  0.00    +0.186 C 
ATOM     11  N   UNL     1       1.029  -0.708  -3.378  0.00  0.00    -0.177 NA
ATOM     12  N   UNL     1       0.311  -0.220  -2.502  0.00  0.00    -0.158 NA
BRANCH   8  14
ATOM     13  C   UNL     1      -0.019   1.526   0.010  0.00  0.00    +0.014 C 
ATOM     14  C   UNL     1       0.002  -0.004   0.002  0.00  0.00    +0.033 C 
ATOM     15  C   UNL     1      -1.433  -0.534   0.013  0.00  0.00    +0.014 C 
ENDBRANCH   8  14
ENDBRANCH   1  10
BRANCH   5  16
ATOM     16  N   UNL     1       3.812  -3.528  -4.617  0.00  0.00    -0.264 NA
ATOM     17  H   UNL     1       4.065  -3.667  -5.584  0.00  0.00    +0.137 HD
ATOM     18  H   UNL     1       4.415  -2.846  -4.180  0.00  0.00    +0.137 HD
ENDBRANCH   5  16
BRANCH   4  19
ATOM     19  S   UNL     1       2.506  -5.626  -5.566  0.00  0.00    -0.142 S 
ATOM     20  H   UNL     1       1.587  -6.521  -5.970  0.00  0.00    +0.105 HD
ENDBRANCH   4  19
TORSDOF 4
