REMARK  Name = ZINC50639095
REMARK  3 active torsions:
REMARK  status: ('A' for Active; 'I' for Inactive)
REMARK    1  A    between atoms: C_3  and  N_19
REMARK    2  A    between atoms: C_6  and  S_7
REMARK    3  A    between atoms: S_7  and  N_10
REMARK                            x       y       z     vdW  Elec       q    Type
REMARK                         _______ _______ _______ _____ _____    ______ ____
ROOT
ATOM      1  S   UNL     1      -1.506  -0.915   0.012  0.00  0.00    +0.063 S 
ATOM      2  O   UNL     1      -1.205  -2.194   0.553  0.00  0.00    -0.153 OA
ATOM      3  O   UNL     1      -2.492  -0.061   0.577  0.00  0.00    -0.153 OA
ENDROOT
BRANCH   1   4
ATOM      4  N   UNL     1      -1.941  -1.159  -1.567  0.00  0.00    -0.172 NA
ATOM      5  C   UNL     1      -2.787  -0.181  -2.267  0.00  0.00    +0.115 C 
ATOM      6  C   UNL     1      -1.965   0.438  -3.408  0.00  0.00    +0.060 C 
ATOM      7  C   UNL     1      -1.208  -0.649  -4.098  0.00  0.00    -0.004 A 
ATOM      8  C   UNL     1      -0.958  -1.909  -3.649  0.00  0.00    -0.021 A 
ATOM      9  C   UNL     1      -0.214  -2.737  -4.488  0.00  0.00    +0.013 A 
ATOM     10  C   UNL     1       0.215  -2.276  -5.686  0.00  0.00    +0.046 A 
ATOM     11  S   UNL     1      -0.425  -0.609  -5.689  0.00  0.00    -0.101 S 
ATOM     12  C   UNL     1      -1.482  -2.353  -2.289  0.00  0.00    +0.145 C 
ENDBRANCH   1   4
BRANCH   1  18
ATOM     13  C   UNL     1      -0.017   1.384   0.010  0.00  0.00    +0.033 A 
ATOM     14  C   UNL     1       1.190   2.061   0.002  0.00  0.00    +0.045 A 
ATOM     15  C   UNL     1       2.374   1.332  -0.013  0.00  0.00    +0.116 A 
ATOM     16  N   UNL     1       2.350   0.008  -0.020  0.00  0.00    -0.239 NA
ATOM     17  C   UNL     1       1.215  -0.664  -0.013  0.00  0.00    +0.141 A 
ATOM     18  C   UNL     1       0.002  -0.004   0.002  0.00  0.00    +0.124 A 
BRANCH  15  19
ATOM     19  N   UNL     1       3.594   1.999  -0.022  0.00  0.00    -0.343 N 
ATOM     20  H   UNL     1       3.616   2.969  -0.017  0.00  0.00    +0.144 HD
ATOM     21  H   UNL     1       4.422   1.495  -0.033  0.00  0.00    +0.144 HD
ENDBRANCH  15  19
ENDBRANCH   1  18
TORSDOF 3
