REMARK  Name = ZINC66769145
REMARK  5 active torsions:
REMARK  status: ('A' for Active; 'I' for Inactive)
REMARK    1  A    between atoms: C_3  and  C_11
REMARK    2  A    between atoms: C_17  and  C_19
REMARK    3  A    between atoms: C_19  and  N_20
REMARK    4  A    between atoms: N_23  and  C_24
REMARK    5  A    between atoms: C_24  and  C_25
REMARK                            x       y       z     vdW  Elec       q    Type
REMARK                         _______ _______ _______ _____ _____    ______ ____
ROOT
ATOM      1  C   UNL     1       3.670   2.195  -0.023  0.00  0.00    +0.110 C 
ATOM      2  C   UNL     1       4.242   2.278   1.407  0.00  0.00    +0.029 C 
ATOM      3  C   UNL     1       4.814   3.719   1.469  0.00  0.00    +0.021 C 
ATOM      4  C   UNL     1       3.787   4.499   0.612  0.00  0.00    +0.108 C 
ATOM      5  N   UNL     1       3.422   3.571  -0.479  0.00  0.00    -0.293 N 
ATOM      6  C   UNL     1       2.943   3.924  -1.688  0.00  0.00    +0.233 C 
ATOM      7  O   UNL     1       2.677   3.070  -2.508  0.00  0.00    -0.274 OA
ENDROOT
BRANCH   1  10
ATOM      8  C   UNL     1      -0.017   1.378   0.010  0.00  0.00    +0.004 A 
ATOM      9  C   UNL     1       1.170   2.088   0.002  0.00  0.00    +0.009 A 
ATOM     10  C   UNL     1       2.378   1.418  -0.014  0.00  0.00    +0.018 A 
ATOM     11  C   UNL     1       2.404   0.031  -0.023  0.00  0.00    +0.167 A 
ATOM     12  C   UNL     1       1.212  -0.683  -0.013  0.00  0.00    +0.162 A 
ATOM     13  C   UNL     1       0.002  -0.004   0.002  0.00  0.00    +0.049 A 
ATOM     14  O   UNL     1       1.214  -2.044  -0.013  0.00  0.00    -0.485 OA
ATOM     15  C   UNL     1       2.434  -2.685  -0.404  0.00  0.00    +0.270 C 
ATOM     16  C   UNL     1       3.594  -1.997   0.328  0.00  0.00    +0.270 C 
ATOM     17  O   UNL     1       3.602  -0.615  -0.043  0.00  0.00    -0.485 OA
ENDBRANCH   1  10
BRANCH   6  18
ATOM     18  C   UNL     1       2.737   5.379  -2.022  0.00  0.00    +0.201 C 
BRANCH  18  19
ATOM     19  N   UNL     1       2.212   5.498  -3.384  0.00  0.00    -0.291 N 
ATOM     20  C   UNL     1       1.950   6.715  -3.901  0.00  0.00    +0.300 C 
ATOM     21  O   UNL     1       2.149   7.713  -3.237  0.00  0.00    -0.253 OA
ATOM     22  N   UNL     1       1.467   6.824  -5.154  0.00  0.00    -0.292 N 
ATOM     23  H   UNL     1       2.054   4.701  -3.914  0.00  0.00    +0.151 HD
ATOM     24  H   UNL     1       1.308   6.028  -5.685  0.00  0.00    +0.151 HD
BRANCH  22  25
ATOM     25  C   UNL     1       1.182   8.147  -5.716  0.00  0.00    +0.180 C 
BRANCH  25  26
ATOM     26  C   UNL     1       0.656   7.993  -7.120  0.00  0.00    +0.122 A 
ATOM     27  C   UNL     1      -0.638   7.864  -7.466  0.00  0.00    +0.046 A 
ATOM     28  C   UNL     1      -0.676   7.748  -8.875  0.00  0.00    +0.041 A 
ATOM     29  C   UNL     1       0.597   7.814  -9.306  0.00  0.00    +0.195 A 
ATOM     30  O   UNL     1       1.399   7.969  -8.239  0.00  0.00    -0.466 OA
ENDBRANCH  25  26
ENDBRANCH  22  25
ENDBRANCH  18  19
ENDBRANCH   6  18
TORSDOF 5
