REMARK  Name = ZINC08790215
REMARK  11 active torsions:
REMARK  status: ('A' for Active; 'I' for Inactive)
REMARK    1  A    between atoms: C_1  and  C_2
REMARK    2  A    between atoms: C_4  and  C_39
REMARK    3  A    between atoms: C_13  and  C_15
REMARK    4  A    between atoms: C_15  and  C_16
REMARK    5  A    between atoms: N_21  and  C_24
REMARK    6  A    between atoms: C_24  and  C_25
REMARK    7  A    between atoms: C_25  and  C_26
REMARK    8  A    between atoms: C_29  and  O_34
REMARK    9  A    between atoms: C_30  and  O_32
REMARK   10  A    between atoms: O_32  and  C_33
REMARK   11  A    between atoms: O_34  and  C_35
REMARK                            x       y       z     vdW  Elec       q    Type
REMARK                         _______ _______ _______ _____ _____    ______ ____
ROOT
ATOM      1  C   UNL     1       2.235  -5.871   2.446  0.00  0.00    +0.044 C 
ATOM      2  C   UNL     1       1.759  -5.840   1.016  0.00  0.00    -0.050 A 
ATOM      3  C   UNL     1       2.319  -6.692   0.081  0.00  0.00    +0.008 A 
ATOM      4  C   UNL     1       1.887  -6.668  -1.229  0.00  0.00    -0.029 A 
ATOM      5  C   UNL     1       0.883  -5.785  -1.620  0.00  0.00    +0.039 A 
ATOM      6  C   UNL     1       0.327  -4.933  -0.670  0.00  0.00    -0.027 A 
ATOM      7  C   UNL     1       0.761  -4.961   0.636  0.00  0.00    +0.008 A 
ATOM      8  C   UNL     1      -0.708  -4.125  -1.400  0.00  0.00    +0.050 C 
ATOM      9  C   UNL     1      -2.103  -4.318  -0.793  0.00  0.00    +0.088 C 
ATOM     10  C   UNL     1      -2.300  -3.085   0.134  0.00  0.00    +0.073 C 
ATOM     11  C   UNL     1      -0.993  -2.276  -0.001  0.00  0.00    -0.049 C 
ATOM     12  C   UNL     1      -3.428  -2.328  -0.528  0.00  0.00    +0.224 C 
ATOM     13  O   UNL     1      -3.899  -1.284  -0.130  0.00  0.00    -0.275 OA
ATOM     14  N   UNL     1      -3.826  -2.988  -1.621  0.00  0.00    -0.241 N 
ATOM     15  C   UNL     1      -3.153  -4.119  -1.863  0.00  0.00    +0.225 C 
ATOM     16  O   UNL     1      -3.354  -4.868  -2.795  0.00  0.00    -0.275 OA
ATOM     17  C   UNL     1      -0.656  -4.614  -2.821  0.00  0.00    +0.211 C 
ATOM     18  O   UNL     1      -1.332  -4.219  -3.748  0.00  0.00    -0.277 OA
ATOM     19  N   UNL     1       0.287  -5.575  -2.865  0.00  0.00    -0.286 N 
ATOM     20  C   UNL     1       2.503  -7.601  -2.240  0.00  0.00    +0.045 C 
ATOM     21  H   UNL     1       0.523  -6.065  -3.669  0.00  0.00    +0.155 HD
ATOM     22  N   UNL     1      -0.443  -2.701  -1.290  0.00  0.00    +0.394 N 
ATOM     23  H   UNL     1      -0.901  -2.194  -2.056  0.00  0.00    -0.083 HD
ATOM     24  H   UNL     1       0.568  -2.525  -1.320  0.00  0.00    -0.083 HD
ENDROOT
BRANCH  11  25
ATOM     25  C   UNL     1      -1.293  -0.775   0.010  0.00  0.00    +0.080 C 
BRANCH  25  26
ATOM     26  C   UNL     1       0.002  -0.004   0.002  0.00  0.00    +0.209 C 
ATOM     27  O   UNL     1       1.060  -0.596  -0.011  0.00  0.00    -0.276 OA
ATOM     28  N   UNL     1      -0.016   1.344   0.009  0.00  0.00    -0.329 N 
ATOM     29  H   UNL     1       0.817   1.840   0.004  0.00  0.00    +0.145 HD
ATOM     30  H   UNL     1      -0.863   1.817   0.016  0.00  0.00    +0.145 HD
ENDBRANCH  25  26
ENDBRANCH  11  25
BRANCH  14  31
ATOM     31  C   UNL     1      -4.910  -2.512  -2.484  0.00  0.00    +0.121 C 
BRANCH  31  32
ATOM     32  C   UNL     1      -4.333  -1.609  -3.576  0.00  0.00    +0.054 C 
BRANCH  32  33
ATOM     33  C   UNL     1      -5.448  -1.119  -4.464  0.00  0.00    -0.042 A 
ATOM     34  C   UNL     1      -6.105   0.059  -4.159  0.00  0.00    +0.007 A 
ATOM     35  C   UNL     1      -7.128   0.513  -4.971  0.00  0.00    +0.049 A 
ATOM     36  C   UNL     1      -7.497  -0.212  -6.092  0.00  0.00    +0.161 A 
ATOM     37  C   UNL     1      -6.837  -1.398  -6.398  0.00  0.00    +0.162 A 
ATOM     38  C   UNL     1      -5.808  -1.845  -5.584  0.00  0.00    +0.053 A 
BRANCH  37  39
ATOM     39  O   UNL     1      -7.196  -2.114  -7.497  0.00  0.00    -0.491 OA
ATOM     40  C   UNL     1      -6.473  -3.321  -7.749  0.00  0.00    +0.277 C 
ENDBRANCH  37  39
BRANCH  36  41
ATOM     41  O   UNL     1      -8.503   0.233  -6.891  0.00  0.00    -0.491 OA
ATOM     42  C   UNL     1      -9.136   1.458  -6.516  0.00  0.00    +0.277 C 
ENDBRANCH  36  41
ENDBRANCH  32  33
ENDBRANCH  31  32
ENDBRANCH  14  31
TORSDOF 7
