REMARK  Name = ZINC60414998
REMARK  5 active torsions:
REMARK  status: ('A' for Active; 'I' for Inactive)
REMARK    1  A    between atoms: C_3  and  C_14
REMARK    2  A    between atoms: C_5  and  N_7
REMARK    3  A    between atoms: N_16  and  N_17
REMARK    4  A    between atoms: N_20  and  C_21
REMARK    5  A    between atoms: C_21  and  C_22
REMARK                            x       y       z     vdW  Elec       q    Type
REMARK                         _______ _______ _______ _____ _____    ______ ____
ROOT
ATOM      1  C   UNL     1       3.656   2.172  -0.023  0.00  0.00    +0.260 C 
ATOM      2  O   UNL     1       4.718   1.581  -0.036  0.00  0.00    -0.269 OA
ATOM      3  N   UNL     1       3.635   3.519  -0.016  0.00  0.00    -0.229 N 
ATOM      4  H   UNL     1       2.787   3.991  -0.005  0.00  0.00    +0.173 HD
ENDROOT
BRANCH   1   7
ATOM      5  C   UNL     1      -0.017   1.378   0.010  0.00  0.00    +0.003 A 
ATOM      6  C   UNL     1       1.166   2.089   0.002  0.00  0.00    +0.013 A 
ATOM      7  C   UNL     1       2.387   1.412  -0.014  0.00  0.00    +0.040 A 
ATOM      8  C   UNL     1       2.406   0.018  -0.021  0.00  0.00    +0.037 A 
ATOM      9  C   UNL     1       1.213  -0.687  -0.013  0.00  0.00    +0.052 A 
ATOM     10  C   UNL     1       0.002  -0.004   0.002  0.00  0.00    +0.025 A 
BRANCH   9  11
ATOM     11  N   UNL     1       1.226  -2.084  -0.021  0.00  0.00    -0.207 N 
ATOM     12  C   UNL     1       2.299  -2.959  -0.528  0.00  0.00    +0.133 C 
ATOM     13  C   UNL     1       2.323  -4.296   0.235  0.00  0.00    +0.045 C 
ATOM     14  C   UNL     1       0.832  -4.747   0.308  0.00  0.00    +0.190 C 
ATOM     15  S   UNL     1       0.030  -3.110   0.550  0.00  0.00    +0.046 S 
ATOM     16  O   UNL     1      -0.098  -2.809   1.933  0.00  0.00    -0.155 OA
ATOM     17  O   UNL     1      -1.064  -2.951  -0.342  0.00  0.00    -0.155 OA
ENDBRANCH   9  11
ENDBRANCH   1   7
BRANCH   3  18
ATOM     18  N   UNL     1       4.837   4.239  -0.024  0.00  0.00    -0.218 N 
ATOM     19  C   UNL     1       4.816   5.587  -0.017  0.00  0.00    +0.316 C 
ATOM     20  O   UNL     1       5.859   6.211  -0.025  0.00  0.00    -0.251 OA
ATOM     21  N   UNL     1       3.638   6.242  -0.002  0.00  0.00    -0.290 N 
ATOM     22  H   UNL     1       5.684   3.767  -0.035  0.00  0.00    +0.174 HD
ATOM     23  H   UNL     1       2.806   5.744   0.004  0.00  0.00    +0.151 HD
BRANCH  21  24
ATOM     24  C   UNL     1       3.615   7.707   0.006  0.00  0.00    +0.219 C 
BRANCH  24  25
ATOM     25  C   UNL     1       2.165   8.194   0.023  0.00  0.00    +0.405 C 
ATOM     26  F   UNL     1       1.524   7.712   1.169  0.00  0.00    -0.169 F 
ATOM     27  F   UNL     1       2.143   9.593   0.030  0.00  0.00    -0.169 F 
ATOM     28  F   UNL     1       1.501   7.723  -1.115  0.00  0.00    -0.169 F 
ENDBRANCH  24  25
ENDBRANCH  21  24
ENDBRANCH   3  18
TORSDOF 5
