REMARK  Name = ZINC17014845
REMARK  5 active torsions:
REMARK  status: ('A' for Active; 'I' for Inactive)
REMARK    1  A    between atoms: C_1  and  C_2
REMARK    2  A    between atoms: N_7  and  C_8
REMARK    3  A    between atoms: C_8  and  C_10
REMARK    4  A    between atoms: C_11  and  N_24
REMARK    5  A    between atoms: N_14  and  C_15
REMARK                            x       y       z     vdW  Elec       q    Type
REMARK                         _______ _______ _______ _____ _____    ______ ____
ROOT
ATOM      1  C   UNL     1      -1.834   3.250  -6.654  0.00  0.00    +0.119 A 
ATOM      2  C   UNL     1      -2.777   3.435  -7.667  0.00  0.00    +0.138 A 
ATOM      3  N   UNL     1      -2.303   3.783  -8.842  0.00  0.00    -0.210 NA
ATOM      4  C   UNL     1      -1.008   3.946  -9.041  0.00  0.00    +0.165 A 
ATOM      5  N   UNL     1      -0.364   4.306 -10.207  0.00  0.00    -0.291 N 
ATOM      6  S   UNL     1      -0.327   3.617  -7.538  0.00  0.00    -0.045 S 
ATOM      7  H   UNL     1       0.605   4.307 -10.246  0.00  0.00    +0.154 HD
ENDROOT
BRANCH   5   8
ATOM      8  C   UNL     1      -1.110   4.672 -11.333  0.00  0.00    +0.070 A 
ATOM      9  C   UNL     1      -2.479   4.872 -11.226  0.00  0.00    +0.046 A 
ATOM     10  C   UNL     1      -3.213   5.234 -12.340  0.00  0.00    +0.043 A 
ATOM     11  C   UNL     1      -2.584   5.396 -13.562  0.00  0.00    +0.023 A 
ATOM     12  C   UNL     1      -1.221   5.197 -13.674  0.00  0.00    +0.041 A 
ATOM     13  C   UNL     1      -0.480   4.842 -12.561  0.00  0.00    +0.145 A 
ATOM     14  F   UNL     1       0.854   4.654 -12.669  0.00  0.00    -0.204 F 
ATOM     15 CL   UNL     1      -4.926   5.484 -12.207  0.00  0.00    -0.083 Cl
ENDBRANCH   5   8
BRANCH   2  16
ATOM     16  N   UNL     1      -4.138   3.260  -7.445  0.00  0.00    -0.342 N 
ATOM     17  H   UNL     1      -4.457   3.002  -6.566  0.00  0.00    +0.144 HD
ATOM     18  H   UNL     1      -4.769   3.396  -8.169  0.00  0.00    +0.144 HD
ENDBRANCH   2  16
BRANCH   1  19
ATOM     19  C   UNL     1      -2.021   2.880  -5.299  0.00  0.00    +0.281 C 
ATOM     20  O   UNL     1      -3.146   2.667  -4.874  0.00  0.00    -0.267 OA
BRANCH  19  27
ATOM     21  C   UNL     1      -0.003   1.635   0.165  0.00  0.00    +0.088 C 
ATOM     22  C   UNL     1      -0.739   1.905  -1.122  0.00  0.00    +0.122 A 
ATOM     23  C   UNL     1      -2.053   1.831  -1.291  0.00  0.00    +0.128 A 
ATOM     24  N   UNL     1      -2.326   2.152  -2.613  0.00  0.00    -0.315 N 
ATOM     25  C   UNL     1      -1.135   2.416  -3.216  0.00  0.00    +0.293 A 
ATOM     26  O   UNL     1      -0.170   2.268  -2.294  0.00  0.00    -0.430 OA
ATOM     27  N   UNL     1      -0.960   2.762  -4.482  0.00  0.00    -0.124 NA
ATOM     28  H   UNL     1      -3.202   2.182  -3.029  0.00  0.00    +0.170 HD
ENDBRANCH  19  27
ENDBRANCH   1  19
TORSDOF 4
