REMARK  Name = ZINC38994268
REMARK  6 active torsions:
REMARK  status: ('A' for Active; 'I' for Inactive)
REMARK    1  A    between atoms: C_10  and  N_11
REMARK    2  A    between atoms: C_12  and  C_14
REMARK    3  A    between atoms: C_14  and  S_15
REMARK    4  A    between atoms: S_15  and  C_16
REMARK    5  A    between atoms: C_19  and  C_23
REMARK    6  A    between atoms: N_21  and  N_22
REMARK                            x       y       z     vdW  Elec       q    Type
REMARK                         _______ _______ _______ _____ _____    ______ ____
ROOT
ATOM      1  C   UNL     1      10.142   0.113   0.363  0.00  0.00    +0.189 C 
ATOM      2  N   UNL     1      10.087   1.402   0.372  0.00  0.00    -0.161 NA
ATOM      3  N   UNL     1      11.363   1.969   0.473  0.00  0.00    -0.243 N 
ATOM      4  C   UNL     1      12.310   0.842   0.532  0.00  0.00    +0.222 C 
ATOM      5  N   UNL     1      11.446  -0.349   0.461  0.00  0.00    -0.223 N 
ATOM      6  H   UNL     1      11.581   2.914   0.499  0.00  0.00    +0.170 HD
ENDROOT
BRANCH   4   7
ATOM      7  C   UNL     1      13.086   0.861   1.850  0.00  0.00    +0.197 C 
ATOM      8  C   UNL     1      13.852   2.160   2.003  0.00  0.00    -0.017 C 
ATOM      9  C   UNL     1      13.344   2.726   3.096  0.00  0.00    +0.065 C 
ATOM     10  C   UNL     1      14.036   4.052   3.358  0.00  0.00    +0.057 C 
ATOM     11  C   UNL     1      15.329   4.004   2.514  0.00  0.00    +0.011 C 
ATOM     12  C   UNL     1      14.936   3.012   1.396  0.00  0.00    +0.035 C 
ATOM     13  N   UNL     1      12.371   1.932   3.620  0.00  0.00    -0.158 NA
ATOM     14  N   UNL     1      12.165   0.884   2.999  0.00  0.00    -0.176 NA
ENDBRANCH   4   7
BRANCH   5  15
ATOM     15  N   UNL     1      11.850  -1.654   0.484  0.00  0.00    -0.250 NA
ATOM     16  H   UNL     1      11.061  -2.278   0.419  0.00  0.00    +0.141 HD
ATOM     17  H   UNL     1      12.519  -1.838  -0.248  0.00  0.00    +0.141 HD
ENDBRANCH   5  15
BRANCH   1  18
ATOM     18  S   UNL     1       8.730  -0.934   0.247  0.00  0.00    -0.078 S 
BRANCH  18  19
ATOM     19  C   UNL     1       7.334   0.221   0.146  0.00  0.00    +0.173 C 
BRANCH  19  21
ATOM     20  N   UNL     1       4.871   0.098  -0.045  0.00  0.00    -0.284 N 
ATOM     21  C   UNL     1       6.047  -0.555   0.042  0.00  0.00    +0.227 C 
ATOM     22  O   UNL     1       6.068  -1.768   0.036  0.00  0.00    -0.275 OA
ATOM     23  H   UNL     1       4.858   1.065  -0.121  0.00  0.00    +0.155 HD
BRANCH  20  33
ATOM     24  C   UNL     1       0.203   0.945  -1.767  0.00  0.00    +0.001 A 
ATOM     25  C   UNL     1       1.389   1.676  -1.797  0.00  0.00    +0.001 A 
ATOM     26  C   UNL     1       2.529   1.185  -1.236  0.00  0.00    +0.010 A 
ATOM     27  C   UNL     1       2.511  -0.076  -0.618  0.00  0.00    +0.003 A 
ATOM     28  C   UNL     1       1.306  -0.819  -0.587  0.00  0.00    -0.016 A 
ATOM     29  C   UNL     1       0.149  -0.280  -1.177  0.00  0.00    +0.008 A 
ATOM     30  C   UNL     1       1.286  -2.080   0.032  0.00  0.00    +0.008 A 
ATOM     31  C   UNL     1       2.422  -2.578   0.596  0.00  0.00    +0.002 A 
ATOM     32  C   UNL     1       3.612  -1.857   0.572  0.00  0.00    +0.024 A 
ATOM     33  C   UNL     1       3.672  -0.617  -0.026  0.00  0.00    +0.041 A 
ENDBRANCH  20  33
ENDBRANCH  19  21
ENDBRANCH  18  19
ENDBRANCH   1  18
TORSDOF 6
