REMARK  Name = ZINC00032307
REMARK  4 active torsions:
REMARK  status: ('A' for Active; 'I' for Inactive)
REMARK    1  A    between atoms: C_6  and  N_7
REMARK    2  A    between atoms: N_7  and  C_8
REMARK    3  A    between atoms: C_8  and  C_9
REMARK    4  A    between atoms: C_14  and  O_15
REMARK                            x       y       z     vdW  Elec       q    Type
REMARK                         _______ _______ _______ _____ _____    ______ ____
ROOT
ATOM      1  N   UNL     1       0.262  -0.496   1.357  0.00  0.00    -0.340 N 
ATOM      2  H   UNL     1       0.388   0.132   2.086  0.00  0.00    +0.146 HD
ENDROOT
BRANCH   1   8
ATOM      3  C   UNL     1       0.140  -2.772   0.560  0.00  0.00    +0.027 A 
ATOM      4  C   UNL     1       0.208  -4.132   0.799  0.00  0.00    +0.051 A 
ATOM      5  C   UNL     1       0.455  -4.601   2.078  0.00  0.00    +0.166 A 
ATOM      6  C   UNL     1       0.637  -3.701   3.126  0.00  0.00    +0.168 A 
ATOM      7  C   UNL     1       0.573  -2.339   2.885  0.00  0.00    +0.072 A 
ATOM      8  C   UNL     1       0.327  -1.873   1.601  0.00  0.00    +0.031 A 
ATOM      9  O   UNL     1       0.861  -4.407   4.273  0.00  0.00    -0.453 OA
ATOM     10  C   UNL     1       0.409  -5.746   3.996  0.00  0.00    +0.466 C 
ATOM     11  O   UNL     1       0.565  -5.871   2.570  0.00  0.00    -0.453 OA
ENDBRANCH   1   8
BRANCH   1  12
ATOM     12  C   UNL     1       0.002  -0.004   0.002  0.00  0.00    +0.140 C 
BRANCH  12  13
ATOM     13  C   UNL     1      -0.018   1.503   0.010  0.00  0.00    +0.012 A 
ATOM     14  C   UNL     1      -1.224   2.178   0.020  0.00  0.00    +0.024 A 
ATOM     15  C   UNL     1      -1.243   3.561   0.032  0.00  0.00    +0.018 A 
ATOM     16  C   UNL     1      -0.056   4.271   0.025  0.00  0.00    +0.019 A 
ATOM     17  C   UNL     1       1.151   3.600   0.010  0.00  0.00    +0.047 A 
ATOM     18  C   UNL     1       1.173   2.213   0.003  0.00  0.00    +0.122 A 
ATOM     19 BR   UNL     1      -2.894   4.482   0.052  0.00  0.00    -0.050 Br
BRANCH  18  20
ATOM     20  O   UNL     1       2.360   1.551  -0.011  0.00  0.00    -0.506 OA
ATOM     21  H   UNL     1       2.695   1.363  -0.899  0.00  0.00    +0.292 HD
ENDBRANCH  18  20
ENDBRANCH  12  13
ENDBRANCH   1  12
TORSDOF 4
