REMARK  Name = ZINC20720323
REMARK  2 active torsions:
REMARK  status: ('A' for Active; 'I' for Inactive)
REMARK    1  A    between atoms: C_7  and  C_11
REMARK    2  A    between atoms: C_24  and  C_27
REMARK                            x       y       z     vdW  Elec       q    Type
REMARK                         _______ _______ _______ _____ _____    ______ ____
ROOT
ATOM      1  C   UNL     1       3.064   0.497  -1.175  0.00  0.00    +0.107 C 
ATOM      2  C   UNL     1       2.105   0.487  -2.347  0.00  0.00    +0.029 C 
ATOM      3  C   UNL     1       2.157   1.661  -3.330  0.00  0.00    +0.033 C 
ATOM      4  C   UNL     1       0.708   1.712  -3.820  0.00  0.00    -0.030 C 
ATOM      5  C   UNL     1      -0.101   1.206  -2.896  0.00  0.00    -0.023 C 
ATOM      6  C   UNL     1       0.715   0.816  -1.719  0.00  0.00    +0.049 C 
ATOM      7  C   UNL     1       0.362  -0.322  -0.843  0.00  0.00    -0.019 A 
ATOM      8  C   UNL     1      -0.944  -0.726  -0.669  0.00  0.00    +0.006 A 
ATOM      9  C   UNL     1      -1.254  -1.786   0.166  0.00  0.00    +0.001 A 
ATOM     10  C   UNL     1      -0.249  -2.448   0.837  0.00  0.00    +0.015 A 
ATOM     11  C   UNL     1       1.077  -2.056   0.670  0.00  0.00    +0.058 A 
ATOM     12  C   UNL     1       1.404  -0.985  -0.188  0.00  0.00    +0.044 A 
ATOM     13  N   UNL     1       2.744  -0.675  -0.344  0.00  0.00    -0.336 N 
ATOM     14  H   UNL     1       3.554  -1.258   0.120  0.00  0.00    +0.147 HD
ENDROOT
BRANCH   1  21
ATOM     15  C   UNL     1       4.674   4.871  -1.672  0.00  0.00    +0.001 A 
ATOM     16  C   UNL     1       4.237   5.726  -0.670  0.00  0.00    +0.002 A 
ATOM     17  C   UNL     1       3.415   5.267   0.336  0.00  0.00    +0.026 A 
ATOM     18  C   UNL     1       3.018   3.933   0.349  0.00  0.00    +0.047 A 
ATOM     19  C   UNL     1       3.470   3.070  -0.665  0.00  0.00    +0.005 A 
ATOM     20  C   UNL     1       4.297   3.558  -1.679  0.00  0.00    +0.010 A 
ATOM     21  C   UNL     1       2.882   1.760  -0.373  0.00  0.00    -0.002 A 
ATOM     22  C   UNL     1       2.155   1.897   0.747  0.00  0.00    +0.089 A 
ATOM     23  N   UNL     1       2.225   3.189   1.193  0.00  0.00    -0.360 N 
ATOM     24  H   UNL     1       1.761   3.662   2.071  0.00  0.00    +0.165 HD
ENDBRANCH   1  21
BRANCH  11  25
ATOM     25  C   UNL     1       2.147  -2.765   1.396  0.00  0.00    +0.248 C 
ATOM     26  O   UNL     1       3.061  -2.138   1.897  0.00  0.00    -0.270 OA
ATOM     27  N   UNL     1       2.112  -4.108   1.506  0.00  0.00    -0.297 N 
ATOM     28  C   UNL     1       1.061  -4.886   0.836  0.00  0.00    +0.108 C 
ATOM     29  C   UNL     1       1.729  -5.969  -0.025  0.00  0.00    +0.019 C 
ATOM     30  C   UNL     1       2.666  -6.803   0.852  0.00  0.00    +0.003 C 
ATOM     31  C   UNL     1       3.762  -5.904   1.429  0.00  0.00    +0.019 C 
ATOM     32  C   UNL     1       3.120  -4.821   2.302  0.00  0.00    +0.108 C 
ENDBRANCH  11  25
TORSDOF 2
