REMARK  Name = ZINC38038636
REMARK  3 active torsions:
REMARK  status: ('A' for Active; 'I' for Inactive)
REMARK    1  A    between atoms: C_5  and  N_8
REMARK    2  A    between atoms: C_9  and  C_11
REMARK    3  A    between atoms: C_11  and  N_12
REMARK                            x       y       z     vdW  Elec       q    Type
REMARK                         _______ _______ _______ _____ _____    ______ ____
ROOT
ATOM      1  N   UNL     1       1.238  -2.081  -0.021  0.00  0.00    -0.282 N 
ATOM      2  C   UNL     1       0.155  -2.775   0.384  0.00  0.00    +0.239 C 
ATOM      3  O   UNL     1      -0.868  -2.190   0.670  0.00  0.00    -0.273 OA
ATOM      4  H   UNL     1       2.032  -2.552  -0.319  0.00  0.00    +0.155 HD
ENDROOT
BRANCH   1   9
ATOM      5  C   UNL     1       0.782   1.397  -1.133  0.00  0.00    +0.042 A 
ATOM      6  C   UNL     1       1.171   2.088   0.001  0.00  0.00    +0.044 A 
ATOM      7  C   UNL     1       1.583   1.397   1.127  0.00  0.00    +0.042 A 
ATOM      8  C   UNL     1       1.606   0.015   1.123  0.00  0.00    +0.065 A 
ATOM      9  C   UNL     1       1.215  -0.681  -0.014  0.00  0.00    +0.071 A 
ATOM     10  C   UNL     1       0.802   0.015  -1.143  0.00  0.00    +0.065 A 
ATOM     11 CL   UNL     1       0.313  -0.851  -2.566  0.00  0.00    -0.082 Cl
ATOM     12 CL   UNL     1       2.123  -0.850   2.537  0.00  0.00    -0.082 Cl
ATOM     13 CL   UNL     1       1.145   3.823   0.010  0.00  0.00    -0.083 Cl
ENDBRANCH   1   9
BRANCH   2  14
ATOM     14  C   UNL     1       0.217  -4.277   0.483  0.00  0.00    +0.241 C 
BRANCH  14  15
ATOM     15  N   UNL     1      -1.076  -4.790   0.943  0.00  0.00    -0.241 N 
ATOM     16  C   UNL     1      -1.835  -5.718   0.336  0.00  0.00    +0.221 A 
ATOM     17  N   UNL     1      -2.911  -5.902   1.058  0.00  0.00    -0.202 NA
ATOM     18  C   UNL     1      -2.875  -5.109   2.134  0.00  0.00    +0.232 A 
ATOM     19  N   UNL     1      -1.763  -4.413   2.108  0.00  0.00    -0.134 NA
ATOM     20  N   UNL     1      -3.856  -5.039   3.125  0.00  0.00    -0.326 N 
ATOM     21  H   UNL     1      -4.647  -5.597   3.065  0.00  0.00    +0.145 HD
ATOM     22  H   UNL     1      -3.746  -4.432   3.874  0.00  0.00    +0.145 HD
ENDBRANCH  14  15
ENDBRANCH   2  14
TORSDOF 3
