REMARK  Name = ZINC03554462
REMARK  6 active torsions:
REMARK  status: ('A' for Active; 'I' for Inactive)
REMARK    1  A    between atoms: C_1  and  C_2
REMARK    2  A    between atoms: C_5  and  N_9
REMARK    3  A    between atoms: C_6  and  O_8
REMARK    4  A    between atoms: C_10  and  C_12
REMARK    5  A    between atoms: C_12  and  C_14
REMARK    6  A    between atoms: C_12  and  N_15
REMARK                            x       y       z     vdW  Elec       q    Type
REMARK                         _______ _______ _______ _____ _____    ______ ____
ROOT
ATOM      1  C   UNL     1       4.701   4.638  -0.033  0.00  0.00    +0.155 C 
ATOM      2  C   UNL     1       5.007   5.062   1.405  0.00  0.00    +0.038 C 
ENDROOT
BRANCH   1   3
ATOM      3  N   UNL     1       3.591   3.682  -0.035  0.00  0.00    -0.316 N 
ATOM      4  C   UNL     1       2.290   4.137  -0.032  0.00  0.00    +0.150 C 
ATOM      5  N   UNL     1       2.041   5.407  -0.028  0.00  0.00    -0.113 NA
ATOM      6  S   UNL     1       0.373   5.546  -0.025  0.00  0.00    +0.101 S 
ATOM      7  O   UNL     1      -0.015   6.090   1.229  0.00  0.00    -0.146 OA
ATOM      8  O   UNL     1      -0.018   6.100  -1.274  0.00  0.00    -0.146 OA
ATOM      9  C   UNL     1      -0.074   3.831  -0.030  0.00  0.00    +0.123 A 
ATOM     10  C   UNL     1       1.169   3.184  -0.034  0.00  0.00    +0.043 A 
ATOM     11  C   UNL     1       1.167   1.781  -0.038  0.00  0.00    +0.013 A 
ATOM     12  C   UNL     1      -0.024   1.088  -0.038  0.00  0.00    +0.001 A 
ATOM     13  C   UNL     1      -1.236   1.755  -0.040  0.00  0.00    +0.002 A 
ATOM     14  C   UNL     1      -1.252   3.143  -0.031  0.00  0.00    +0.030 A 
ATOM     15  H   UNL     1       3.772   2.729  -0.038  0.00  0.00    +0.148 HD
ENDBRANCH   1   3
BRANCH   1  17
ATOM     16  N   UNL     1       7.071   4.688  -0.740  0.00  0.00    -0.281 N 
ATOM     17  C   UNL     1       5.921   3.992  -0.637  0.00  0.00    +0.237 C 
ATOM     18  O   UNL     1       5.869   2.846  -1.030  0.00  0.00    -0.273 OA
ATOM     19  H   UNL     1       7.096   5.624  -0.486  0.00  0.00    +0.155 HD
BRANCH  16  24
ATOM     20  C   UNL     1      11.765   2.140  -2.667  0.00  0.00    +0.044 C 
ATOM     21  C   UNL     1      10.521   2.818  -2.154  0.00  0.00    -0.047 A 
ATOM     22  C   UNL     1       9.284   2.463  -2.660  0.00  0.00    +0.005 A 
ATOM     23  C   UNL     1       8.139   3.081  -2.194  0.00  0.00    +0.027 A 
ATOM     24  C   UNL     1       8.230   4.060  -1.215  0.00  0.00    +0.075 A 
ATOM     25  C   UNL     1       9.477   4.420  -0.709  0.00  0.00    +0.138 A 
ATOM     26  C   UNL     1      10.619   3.792  -1.178  0.00  0.00    +0.050 A 
BRANCH  25  27
ATOM     27  O   UNL     1       9.572   5.383   0.246  0.00  0.00    -0.505 OA
ATOM     28  H   UNL     1       9.523   5.046   1.151  0.00  0.00    +0.292 HD
ENDBRANCH  25  27
ENDBRANCH  16  24
ENDBRANCH   1  17
TORSDOF 4
