REMARK  Name = ZINC05212642
REMARK  8 active torsions:
REMARK  status: ('A' for Active; 'I' for Inactive)
REMARK    1  A    between atoms: C_1  and  C_2
REMARK    2  A    between atoms: C_2  and  C_3
REMARK    3  A    between atoms: C_2  and  C_4
REMARK    4  A    between atoms: C_4  and  C_6
REMARK    5  A    between atoms: C_4  and  S_12
REMARK    6  A    between atoms: S_12  and  C_13
REMARK    7  A    between atoms: N_26  and  C_27
REMARK    8  A    between atoms: C_27  and  C_28
REMARK                            x       y       z     vdW  Elec       q    Type
REMARK                         _______ _______ _______ _____ _____    ______ ____
ROOT
ATOM      1  C   UNL     1       1.144   3.287   0.111  0.00  0.00    +0.174 A 
ATOM      2  N   UNL     1       0.050   3.971   0.379  0.00  0.00    -0.216 NA
ATOM      3  C   UNL     1      -1.103   3.351   0.602  0.00  0.00    +0.117 A 
ATOM      4  C   UNL     1      -1.219   1.952   0.559  0.00  0.00    +0.076 A 
ATOM      5  C   UNL     1      -2.553   1.412   0.831  0.00  0.00    -0.023 A 
ATOM      6  C   UNL     1      -3.533   2.302   1.083  0.00  0.00    -0.004 A 
ATOM      7  S   UNL     1      -2.751   3.890   0.983  0.00  0.00    -0.073 S 
ATOM      8  C   UNL     1      -4.972   2.008   1.381  0.00  0.00    +0.043 C 
ATOM      9  C   UNL     1      -5.258   0.549   0.998  0.00  0.00    +0.005 C 
ATOM     10  C   UNL     1      -4.151  -0.338   1.577  0.00  0.00    +0.005 C 
ATOM     11  C   UNL     1      -2.841  -0.087   0.829  0.00  0.00    +0.037 C 
ATOM     12  C   UNL     1      -0.014   1.234   0.272  0.00  0.00    +0.263 A 
ATOM     13  O   UNL     1      -0.018   0.017   0.218  0.00  0.00    -0.267 OA
ATOM     14  N   UNL     1       1.121   1.924   0.055  0.00  0.00    -0.283 N 
ENDROOT
BRANCH   1  15
ATOM     15  S   UNL     1       2.655   4.144  -0.180  0.00  0.00    -0.075 S 
BRANCH  15  16
ATOM     16  C   UNL     1       2.061   5.853  -0.137  0.00  0.00    +0.143 C 
BRANCH  16  17
ATOM     17  C   UNL     1       1.180   6.109  -1.333  0.00  0.00    +0.234 C 
ATOM     18  O   UNL     1       1.252   5.387  -2.304  0.00  0.00    -0.274 OA
ATOM     19  N   UNL     1       0.312   7.139  -1.323  0.00  0.00    -0.239 N 
ATOM     20  C   UNL     1      -0.476   7.368  -2.392  0.00  0.00    +0.303 C 
ATOM     21  O   UNL     1      -0.403   6.644  -3.366  0.00  0.00    -0.253 OA
ATOM     22  N   UNL     1      -1.344   8.398  -2.382  0.00  0.00    -0.313 N 
ATOM     23  H   UNL     1       0.254   7.717  -0.546  0.00  0.00    +0.159 HD
ATOM     24  H   UNL     1      -1.402   8.976  -1.605  0.00  0.00    +0.146 HD
ATOM     25  H   UNL     1      -1.911   8.563  -3.152  0.00  0.00    +0.146 HD
ENDBRANCH  16  17
BRANCH  16  27
ATOM     26  C   UNL     1       2.752   8.254  -0.168  0.00  0.00    +0.009 C 
ATOM     27  C   UNL     1       3.255   6.809  -0.170  0.00  0.00    +0.005 C 
ATOM     28  C   UNL     1       4.131   6.573   1.062  0.00  0.00    +0.009 C 
ENDBRANCH  16  27
ENDBRANCH  15  16
ENDBRANCH   1  15
BRANCH  14  29
ATOM     29  C   UNL     1       2.357   1.196  -0.246  0.00  0.00    +0.154 C 
BRANCH  29  30
ATOM     30  C   UNL     1       2.479   1.008  -1.736  0.00  0.00    -0.013 C 
ATOM     31  C   UNL     1       3.554   1.418  -2.362  0.00  0.00    +0.005 C 
ENDBRANCH  29  30
ENDBRANCH  14  29
TORSDOF 6
