REMARK  Name = ZINC12416700
REMARK  8 active torsions:
REMARK  status: ('A' for Active; 'I' for Inactive)
REMARK    1  A    between atoms: C_1  and  C_2
REMARK    2  A    between atoms: C_3  and  C_28
REMARK    3  A    between atoms: N_11  and  C_14
REMARK    4  A    between atoms: C_14  and  C_15
REMARK    5  A    between atoms: C_22  and  C_26
REMARK    6  A    between atoms: C_23  and  N_25
REMARK    7  A    between atoms: C_28  and  O_30
REMARK    8  A    between atoms: O_30  and  C_31
REMARK                            x       y       z     vdW  Elec       q    Type
REMARK                         _______ _______ _______ _____ _____    ______ ____
ROOT
ATOM      1  C   UNL     1      -1.581   7.553   2.486  0.00  0.00    +0.087 C 
ATOM      2  C   UNL     1      -1.220   6.836   1.210  0.00  0.00    +0.116 C 
ATOM      3  C   UNL     1      -0.112   6.082   1.183  0.00  0.00    +0.099 C 
ATOM      4  C   UNL     1       0.291   5.352  -0.065  0.00  0.00    +0.148 C 
ATOM      5  C   UNL     1       0.040   3.872   0.082  0.00  0.00    -0.001 A 
ATOM      6  C   UNL     1      -1.098   3.128   0.298  0.00  0.00    +0.007 A 
ATOM      7  C   UNL     1      -1.017   1.749   0.384  0.00  0.00    +0.000 A 
ATOM      8  C   UNL     1       0.211   1.124   0.262  0.00  0.00    +0.002 A 
ATOM      9  C   UNL     1       1.353   1.866   0.046  0.00  0.00    +0.024 A 
ATOM     10  C   UNL     1       1.278   3.255  -0.047  0.00  0.00    +0.041 A 
ATOM     11  N   UNL     1       2.274   4.210  -0.258  0.00  0.00    -0.265 N 
ATOM     12  C   UNL     1       1.782   5.461  -0.282  0.00  0.00    +0.241 C 
ATOM     13  O   UNL     1       2.414   6.482  -0.447  0.00  0.00    -0.274 OA
ATOM     14  C   UNL     1      -0.450   5.895  -1.254  0.00  0.00    +0.110 C 
ATOM     15  C   UNL     1      -1.550   6.670  -1.082  0.00  0.00    +0.199 C 
ATOM     16  O   UNL     1      -2.017   6.974   0.141  0.00  0.00    -0.445 OA
ENDROOT
BRANCH  15  17
ATOM     17  N   UNL     1      -2.204   7.155  -2.187  0.00  0.00    -0.328 N 
ATOM     18  H   UNL     1      -2.992   7.710  -2.079  0.00  0.00    +0.145 HD
ATOM     19  H   UNL     1      -1.878   6.944  -3.076  0.00  0.00    +0.145 HD
ENDBRANCH  15  17
BRANCH  14  20
ATOM     20  C   UNL     1       0.008   5.593  -2.576  0.00  0.00    +0.102 C 
ATOM     21  N   UNL     1       0.372   5.353  -3.626  0.00  0.00    -0.191 NA
ENDBRANCH  14  20
BRANCH   3  22
ATOM     22  C   UNL     1       0.689   5.972   2.346  0.00  0.00    +0.340 C 
ATOM     23  O   UNL     1       0.674   4.947   3.001  0.00  0.00    -0.245 OA
BRANCH  22  24
ATOM     24  O   UNL     1       1.468   7.005   2.729  0.00  0.00    -0.465 OA
ATOM     25  C   UNL     1       2.249   6.825   3.912  0.00  0.00    +0.280 C 
ENDBRANCH  22  24
ENDBRANCH   3  22
BRANCH  11  26
ATOM     26  C   UNL     1       3.692   3.886  -0.433  0.00  0.00    +0.148 C 
BRANCH  26  27
ATOM     27  C   UNL     1       3.981   3.671  -1.896  0.00  0.00    -0.030 A 
ATOM     28  C   UNL     1       3.869   2.406  -2.444  0.00  0.00    +0.008 A 
ATOM     29  C   UNL     1       4.129   2.208  -3.786  0.00  0.00    +0.038 A 
ATOM     30  C   UNL     1       4.513   3.275  -4.581  0.00  0.00    +0.123 A 
ATOM     31  C   UNL     1       4.630   4.540  -4.031  0.00  0.00    +0.038 A 
ATOM     32  C   UNL     1       4.364   4.737  -2.689  0.00  0.00    +0.008 A 
ATOM     33  F   UNL     1       4.772   3.082  -5.893  0.00  0.00    -0.205 F 
ENDBRANCH  26  27
ENDBRANCH  11  26
TORSDOF 6
