REMARK  Name = ZINC61916748
REMARK  3 active torsions:
REMARK  status: ('A' for Active; 'I' for Inactive)
REMARK    1  A    between atoms: C_1  and  C_2
REMARK    2  A    between atoms: N_5  and  C_10
REMARK    3  A    between atoms: C_11  and  N_17
REMARK                            x       y       z     vdW  Elec       q    Type
REMARK                         _______ _______ _______ _____ _____    ______ ____
ROOT
ATOM      1  C   UNL     1      -1.519  -2.482  -1.487  0.00  0.00    +0.069 A 
ATOM      2  C   UNL     1      -2.755  -2.846  -2.021  0.00  0.00    +0.047 A 
ATOM      3  C   UNL     1      -2.827  -3.344  -3.313  0.00  0.00    +0.024 A 
ATOM      4  C   UNL     1      -1.677  -3.478  -4.069  0.00  0.00    +0.003 A 
ATOM      5  C   UNL     1      -0.452  -3.117  -3.541  0.00  0.00    +0.022 A 
ATOM      6  C   UNL     1      -0.371  -2.613  -2.254  0.00  0.00    +0.064 A 
ATOM      7 CL   UNL     1       1.169  -2.153  -1.597  0.00  0.00    -0.082 Cl
ENDROOT
BRANCH   1  11
ATOM      8  C   UNL     1      -0.003   1.519   0.012  0.00  0.00    +0.039 C 
ATOM      9  C   UNL     1       0.011  -0.011   0.004  0.00  0.00    +0.132 C 
ATOM     10  C   UNL     1      -1.444  -0.540   0.013  0.00  0.00    +0.136 C 
ATOM     11  N   UNL     1      -1.439  -1.978  -0.182  0.00  0.00    -0.325 N 
ATOM     12  C   UNL     1      -1.352  -2.929   0.942  0.00  0.00    +0.107 C 
ATOM     13  C   UNL     1      -0.335  -2.454   1.989  0.00  0.00    +0.047 C 
ATOM     14  C   UNL     1       0.876  -1.867   1.291  0.00  0.00    +0.162 C 
ATOM     15  O   UNL     1       0.674  -0.470   1.123  0.00  0.00    -0.375 OA
ENDBRANCH   1  11
BRANCH   2  16
ATOM     16  N   UNL     1      -3.918  -2.711  -1.254  0.00  0.00    -0.356 N 
ATOM     17  H   UNL     1      -3.866  -2.363  -0.351  0.00  0.00    +0.142 HD
ATOM     18  H   UNL     1      -4.777  -2.965  -1.627  0.00  0.00    +0.142 HD
ENDBRANCH   2  16
TORSDOF 2
