REMARK  Name = ZINC32259071
REMARK  3 active torsions:
REMARK  status: ('A' for Active; 'I' for Inactive)
REMARK    1  A    between atoms: C_5  and  C_6
REMARK    2  A    between atoms: N_8  and  N_9
REMARK    3  A    between atoms: C_10  and  C_12
REMARK                            x       y       z     vdW  Elec       q    Type
REMARK                         _______ _______ _______ _____ _____    ______ ____
ROOT
ATOM      1  C   UNL     1      -1.123  -0.944   0.009  0.00  0.00    +0.267 C 
ATOM      2  O   UNL     1      -2.265  -0.525   0.023  0.00  0.00    -0.268 OA
ATOM      3  N   UNL     1      -0.891  -2.272  -0.001  0.00  0.00    -0.230 N 
ATOM      4  H   UNL     1       0.141  -2.650  -0.014  0.00  0.00    +0.173 HD
ENDROOT
BRANCH   1   9
ATOM      5  C   UNL     1      -0.017   1.375   0.010  0.00  0.00    +0.024 A 
ATOM      6  C   UNL     1       1.204   2.051   0.002  0.00  0.00    -0.036 A 
ATOM      7  C   UNL     1       2.327   1.285  -0.016  0.00  0.00    -0.006 A 
ATOM      8  S   UNL     1       1.752  -0.345  -0.017  0.00  0.00    -0.088 S 
ATOM      9  C   UNL     1       0.002  -0.004   0.002  0.00  0.00    +0.076 A 
ATOM     10  C   UNL     1       3.577   2.121  -0.029  0.00  0.00    +0.043 C 
ATOM     11  C   UNL     1       3.101   3.528  -0.454  0.00  0.00    +0.010 C 
ATOM     12  C   UNL     1       1.632   3.521   0.012  0.00  0.00    +0.036 C 
ENDBRANCH   1   9
BRANCH   3  13
ATOM     13  N   UNL     1      -1.967  -3.170   0.005  0.00  0.00    -0.232 N 
ATOM     14  C   UNL     1      -1.735  -4.498  -0.004  0.00  0.00    +0.258 C 
ATOM     15  O   UNL     1      -0.597  -4.915  -0.018  0.00  0.00    -0.271 OA
ATOM     16  H   UNL     1      -2.999  -2.792   0.018  0.00  0.00    +0.173 HD
BRANCH  14  17
ATOM     17  C   UNL     1      -2.892  -5.464   0.003  0.00  0.00    +0.205 C 
ATOM     18  C   UNL     1      -3.683  -5.346   1.324  0.00  0.00    +0.043 C 
ATOM     19  C   UNL     1      -4.095  -6.800   1.646  0.00  0.00    +0.031 C 
ATOM     20  C   UNL     1      -3.504  -7.625   0.481  0.00  0.00    +0.161 C 
ATOM     21  O   UNL     1      -2.410  -6.825  -0.019  0.00  0.00    -0.367 OA
ENDBRANCH  14  17
ENDBRANCH   3  13
TORSDOF 3
