REMARK  Name = ZINC60865320
REMARK  5 active torsions:
REMARK  status: ('A' for Active; 'I' for Inactive)
REMARK    1  A    between atoms: C_1  and  N_2
REMARK    2  A    between atoms: N_2  and  C_3
REMARK    3  A    between atoms: N_2  and  C_4
REMARK    4  A    between atoms: C_9  and  N_10
REMARK    5  A    between atoms: N_10  and  C_11
REMARK                            x       y       z     vdW  Elec       q    Type
REMARK                         _______ _______ _______ _____ _____    ______ ____
ROOT
ATOM      1  N   UNL     1      -2.417  -0.808  -1.161  0.00  0.00    -0.318 N 
ATOM      2  H   UNL     1      -2.410  -0.518  -0.235  0.00  0.00    +0.152 HD
ENDROOT
BRANCH   1   3
ATOM      3  C   UNL     1      -3.588  -1.083  -1.772  0.00  0.00    +0.090 C 
ATOM      4  C   UNL     1      -4.782  -0.851  -1.115  0.00  0.00    +0.113 C 
ATOM      5  C   UNL     1      -4.828  -0.119   0.163  0.00  0.00    +0.256 C 
ATOM      6  O   UNL     1      -3.809   0.303   0.678  0.00  0.00    -0.270 OA
ATOM      7  N   UNL     1      -6.029   0.070   0.747  0.00  0.00    -0.263 N 
ATOM      8  C   UNL     1      -7.159  -0.389   0.191  0.00  0.00    +0.143 C 
ATOM      9  S   UNL     1      -8.638  -0.101   1.003  0.00  0.00    -0.018 S 
ATOM     10  N   UNL     1      -7.192  -1.062  -0.968  0.00  0.00    -0.263 N 
ATOM     11  C   UNL     1      -6.067  -1.319  -1.666  0.00  0.00    +0.256 C 
ATOM     12  O   UNL     1      -6.110  -1.926  -2.720  0.00  0.00    -0.270 OA
ATOM     13  H   UNL     1      -6.076   0.550   1.589  0.00  0.00    +0.157 HD
ATOM     14  H   UNL     1      -8.045  -1.366  -1.315  0.00  0.00    +0.157 HD
ENDBRANCH   1   3
BRANCH   1  20
ATOM     15  C   UNL     1      -0.002  -0.655  -1.232  0.00  0.00    +0.051 A 
ATOM     16  C   UNL     1       1.188  -0.792  -1.930  0.00  0.00    +0.026 A 
ATOM     17  C   UNL     1       1.172  -1.204  -3.250  0.00  0.00    +0.022 A 
ATOM     18  C   UNL     1      -0.030  -1.482  -3.877  0.00  0.00    +0.043 A 
ATOM     19  C   UNL     1      -1.222  -1.347  -3.188  0.00  0.00    +0.045 A 
ATOM     20  C   UNL     1      -1.214  -0.939  -1.862  0.00  0.00    +0.054 A 
ATOM     21 CL   UNL     1      -0.043  -1.999  -5.534  0.00  0.00    -0.083 Cl
BRANCH  15  23
ATOM     22  C   UNL     1      -0.067   1.189   0.426  0.00  0.00    +0.129 C 
ATOM     23  N   UNL     1       0.013  -0.237   0.104  0.00  0.00    -0.335 N 
ATOM     24  C   UNL     1       0.108  -1.227   1.180  0.00  0.00    +0.129 C 
ENDBRANCH  15  23
ENDBRANCH   1  20
TORSDOF 3
