REMARK  Name = ZINC45166564
REMARK  4 active torsions:
REMARK  status: ('A' for Active; 'I' for Inactive)
REMARK    1  A    between atoms: C_3  and  N_22
REMARK    2  A    between atoms: C_4  and  S_8
REMARK    3  A    between atoms: S_8  and  N_11
REMARK    4  A    between atoms: C_15  and  C_18
REMARK                            x       y       z     vdW  Elec       q    Type
REMARK                         _______ _______ _______ _____ _____    ______ ____
ROOT
ATOM      1  S   UNL     1       3.869  -0.832  -0.628  0.00  0.00    +0.064 S 
ATOM      2  O   UNL     1       3.525  -1.925  -1.468  0.00  0.00    -0.153 OA
ATOM      3  O   UNL     1       4.820   0.152  -1.010  0.00  0.00    -0.153 OA
ENDROOT
BRANCH   1   7
ATOM      4  C   UNL     1       0.012   1.373   0.268  0.00  0.00    +0.003 A 
ATOM      5  C   UNL     1       1.222   2.023   0.411  0.00  0.00    +0.025 A 
ATOM      6  C   UNL     1       2.407   1.350   0.138  0.00  0.00    +0.053 A 
ATOM      7  C   UNL     1       2.369   0.026  -0.279  0.00  0.00    +0.144 A 
ATOM      8  C   UNL     1       1.155  -0.618  -0.421  0.00  0.00    +0.069 A 
ATOM      9  C   UNL     1      -0.023   0.055  -0.147  0.00  0.00    +0.022 A 
ATOM     10 CL   UNL     1       1.107  -2.273  -0.942  0.00  0.00    -0.081 Cl
BRANCH   6  11
ATOM     11  N   UNL     1       3.632   2.005   0.281  0.00  0.00    -0.356 N 
ATOM     12  H   UNL     1       3.662   2.973   0.332  0.00  0.00    +0.142 HD
ATOM     13  H   UNL     1       4.454   1.491   0.330  0.00  0.00    +0.142 HD
ENDBRANCH   6  11
ENDBRANCH   1   7
BRANCH   1  14
ATOM     14  N   UNL     1       4.405  -1.480   0.798  0.00  0.00    -0.176 NA
ATOM     15  C   UNL     1       5.300  -0.716   1.678  0.00  0.00    +0.109 C 
ATOM     16  C   UNL     1       4.688  -0.668   3.082  0.00  0.00    +0.018 C 
ATOM     17  C   UNL     1       4.403  -2.094   3.559  0.00  0.00    +0.015 C 
ATOM     18  C   UNL     1       3.398  -2.759   2.616  0.00  0.00    +0.109 C 
ATOM     19  C   UNL     1       3.990  -2.828   1.210  0.00  0.00    +0.121 C 
BRANCH  18  20
ATOM     20  C   UNL     1       3.088  -4.172   3.114  0.00  0.00    +0.394 C 
ATOM     21  F   UNL     1       2.546  -4.105   4.401  0.00  0.00    -0.170 F 
ATOM     22  F   UNL     1       2.169  -4.779   2.251  0.00  0.00    -0.170 F 
ATOM     23  F   UNL     1       4.267  -4.925   3.143  0.00  0.00    -0.170 F 
ENDBRANCH  18  20
ENDBRANCH   1  14
TORSDOF 4
