REMARK  Name = ZINC20291883
REMARK  4 active torsions:
REMARK  status: ('A' for Active; 'I' for Inactive)
REMARK    1  A    between atoms: C_4  and  N_7
REMARK    2  A    between atoms: C_11  and  N_12
REMARK    3  A    between atoms: N_12  and  C_13
REMARK    4  A    between atoms: C_19  and  N_21
REMARK                            x       y       z     vdW  Elec       q    Type
REMARK                         _______ _______ _______ _____ _____    ______ ____
ROOT
ATOM      1  N   UNL     1       3.628  -0.650  -0.047  0.00  0.00    -0.217 N 
ATOM      2  C   UNL     1       3.632  -1.994   0.066  0.00  0.00    +0.263 C 
ATOM      3  O   UNL     1       2.594  -2.613   0.209  0.00  0.00    -0.269 OA
ATOM      4  C   UNL     1       4.928  -2.694   0.011  0.00  0.00    +0.113 C 
ATOM      5  C   UNL     1       5.011  -4.069   0.120  0.00  0.00    +0.086 C 
ATOM      6  C   UNL     1       6.133  -1.862  -0.165  0.00  0.00    +0.256 C 
ATOM      7  O   UNL     1       7.238  -2.367  -0.220  0.00  0.00    -0.270 OA
ATOM      8  N   UNL     1       5.976  -0.526  -0.264  0.00  0.00    -0.263 N 
ATOM      9  C   UNL     1       4.763   0.043  -0.211  0.00  0.00    +0.150 C 
ATOM     10  S   UNL     1       4.660   1.746  -0.353  0.00  0.00    -0.018 S 
ATOM     11  H   UNL     1       6.758   0.036  -0.381  0.00  0.00    +0.157 HD
ENDROOT
BRANCH   1  15
ATOM     12  C   UNL     1      -0.003   1.392   0.098  0.00  0.00    +0.000 A 
ATOM     13  C   UNL     1       0.450   0.874  -1.102  0.00  0.00    +0.002 A 
ATOM     14  C   UNL     1       1.653   0.197  -1.153  0.00  0.00    +0.024 A 
ATOM     15  C   UNL     1       2.408   0.037   0.001  0.00  0.00    +0.043 A 
ATOM     16  C   UNL     1       1.950   0.558   1.204  0.00  0.00    +0.024 A 
ATOM     17  C   UNL     1       0.747   1.234   1.249  0.00  0.00    +0.002 A 
ENDBRANCH   1  15
BRANCH   5  18
ATOM     18  N   UNL     1       6.216  -4.668   0.201  0.00  0.00    -0.348 N 
ATOM     19  H   UNL     1       7.021  -4.130   0.271  0.00  0.00    +0.146 HD
BRANCH  18  20
ATOM     20  C   UNL     1       6.311  -6.130   0.183  0.00  0.00    +0.055 C 
ATOM     21  C   UNL     1       6.111  -6.671   1.600  0.00  0.00    +0.020 C 
ATOM     22  C   UNL     1       7.191  -6.101   2.521  0.00  0.00    +0.002 C 
ATOM     23  C   UNL     1       8.571  -6.517   2.007  0.00  0.00    -0.001 C 
ATOM     24  C   UNL     1       8.771  -5.975   0.590  0.00  0.00    -0.014 C 
ATOM     25  C   UNL     1       7.691  -6.545  -0.331  0.00  0.00    -0.055 C 
BRANCH  25  26
ATOM     26  N   UNL     1       7.883  -6.025  -1.692  0.00  0.00    +0.381 N 
ATOM     27  H   UNL     1       7.818  -5.019  -1.679  0.00  0.00    -0.090 HD
ATOM     28  H   UNL     1       8.793  -6.299  -2.031  0.00  0.00    -0.090 HD
ATOM     29  H   UNL     1       7.170  -6.401  -2.299  0.00  0.00    -0.090 HD
ENDBRANCH  25  26
ENDBRANCH  18  20
ENDBRANCH   5  18
TORSDOF 4
