REMARK  Name = ZINC44748562
REMARK  6 active torsions:
REMARK  status: ('A' for Active; 'I' for Inactive)
REMARK    1  A    between atoms: C_1  and  C_2
REMARK    2  A    between atoms: C_4  and  N_22
REMARK    3  A    between atoms: C_7  and  C_8
REMARK    4  A    between atoms: N_10  and  C_11
REMARK    5  A    between atoms: C_11  and  C_13
REMARK    6  A    between atoms: C_11  and  C_14
REMARK                            x       y       z     vdW  Elec       q    Type
REMARK                         _______ _______ _______ _____ _____    ______ ____
ROOT
ATOM      1  C   UNL     1      -0.034   0.113   2.511  0.00  0.00    +0.245 C 
ATOM      2  O   UNL     1      -0.053   1.328   2.564  0.00  0.00    -0.270 OA
ATOM      3  N   UNL     1       0.248  -0.606   3.615  0.00  0.00    -0.300 N 
ATOM      4  H   UNL     1       0.263  -1.575   3.572  0.00  0.00    +0.150 HD
ENDROOT
BRANCH   1  11
ATOM      5  C   UNL     1      -0.898   1.657   0.224  0.00  0.00    +0.044 C 
ATOM      6  C   UNL     1      -0.739   0.162   0.124  0.00  0.00    -0.037 A 
ATOM      7  C   UNL     1      -1.000  -0.481  -1.065  0.00  0.00    +0.026 A 
ATOM      8  C   UNL     1      -0.853  -1.862  -1.158  0.00  0.00    +0.025 A 
ATOM      9  C   UNL     1      -0.442  -2.598  -0.049  0.00  0.00    +0.023 A 
ATOM     10  C   UNL     1      -0.180  -1.961   1.142  0.00  0.00    +0.015 A 
ATOM     11  C   UNL     1      -0.320  -0.573   1.237  0.00  0.00    +0.040 A 
BRANCH   8  12
ATOM     12  N   UNL     1      -1.117  -2.509  -2.360  0.00  0.00    -0.358 N 
ATOM     13  H   UNL     1      -1.404  -1.997  -3.133  0.00  0.00    +0.142 HD
ATOM     14  H   UNL     1      -1.015  -3.471  -2.426  0.00  0.00    +0.142 HD
ENDBRANCH   8  12
ENDBRANCH   1  11
BRANCH   3  15
ATOM     15  C   UNL     1       0.532   0.076   4.881  0.00  0.00    +0.156 C 
ATOM     16  C   UNL     1       2.012   0.460   4.931  0.00  0.00    +0.038 C 
BRANCH  15  17
ATOM     17  C   UNL     1       0.212  -0.845   6.030  0.00  0.00    +0.236 C 
ATOM     18  O   UNL     1       0.192  -2.045   5.858  0.00  0.00    -0.274 OA
ATOM     19  N   UNL     1      -0.051  -0.334   7.249  0.00  0.00    -0.300 N 
ATOM     20  C   UNL     1      -0.100   1.119   7.457  0.00  0.00    +0.108 C 
ATOM     21  C   UNL     1      -1.436   1.479   8.114  0.00  0.00    +0.019 C 
ATOM     22  C   UNL     1      -1.610   0.655   9.392  0.00  0.00    +0.003 C 
ATOM     23  C   UNL     1      -1.630  -0.835   9.041  0.00  0.00    +0.019 C 
ATOM     24  C   UNL     1      -0.302  -1.221   8.394  0.00  0.00    +0.108 C 
ENDBRANCH  15  17
ENDBRANCH   3  15
TORSDOF 4
