REMARK  Name = ZINC67467467
REMARK  8 active torsions:
REMARK  status: ('A' for Active; 'I' for Inactive)
REMARK    1  A    between atoms: C_1  and  C_2
REMARK    2  A    between atoms: C_2  and  N_3
REMARK    3  A    between atoms: C_4  and  C_26
REMARK    4  A    between atoms: C_5  and  C_9
REMARK    5  A    between atoms: C_6  and  C_8
REMARK    6  A    between atoms: C_9  and  N_10
REMARK    7  A    between atoms: N_13  and  N_14
REMARK    8  A    between atoms: N_14  and  C_15
REMARK                            x       y       z     vdW  Elec       q    Type
REMARK                         _______ _______ _______ _____ _____    ______ ____
ROOT
ATOM      1  N   UNL     1      -5.093  -0.388   2.223  0.00  0.00    -0.294 N 
ATOM      2  C   UNL     1      -6.239  -0.561   2.910  0.00  0.00    +0.316 C 
ATOM      3  O   UNL     1      -6.474  -1.628   3.442  0.00  0.00    -0.251 OA
ATOM      4  N   UNL     1      -7.126   0.450   3.006  0.00  0.00    -0.220 N 
ATOM      5  H   UNL     1      -4.905   0.464   1.799  0.00  0.00    +0.151 HD
ATOM      6  H   UNL     1      -7.951   0.326   3.501  0.00  0.00    +0.174 HD
ENDROOT
BRANCH   4   7
ATOM      7  N   UNL     1      -6.855   1.680   2.393  0.00  0.00    -0.258 N 
ATOM      8  H   UNL     1      -6.068   1.781   1.835  0.00  0.00    +0.170 HD
BRANCH   7   9
ATOM      9  C   UNL     1      -7.722   2.765   2.586  0.00  0.00    +0.121 A 
ATOM     10  C   UNL     1      -8.347   2.946   3.813  0.00  0.00    +0.186 A 
ATOM     11  C   UNL     1      -9.203   4.019   4.002  0.00  0.00    +0.198 A 
ATOM     12  C   UNL     1      -9.435   4.911   2.968  0.00  0.00    +0.199 A 
ATOM     13  C   UNL     1      -8.812   4.732   1.742  0.00  0.00    +0.198 A 
ATOM     14  C   UNL     1      -7.952   3.664   1.552  0.00  0.00    +0.186 A 
ATOM     15  F   UNL     1      -7.340   3.493   0.359  0.00  0.00    -0.200 F 
ATOM     16  F   UNL     1      -9.039   5.604   0.736  0.00  0.00    -0.199 F 
ATOM     17  F   UNL     1     -10.270   5.957   3.153  0.00  0.00    -0.199 F 
ATOM     18  F   UNL     1      -9.811   4.195   5.195  0.00  0.00    -0.199 F 
ATOM     19  F   UNL     1      -8.121   2.076   4.822  0.00  0.00    -0.200 F 
ENDBRANCH   7   9
ENDBRANCH   4   7
BRANCH   1  20
ATOM     20  C   UNL     1      -4.129  -1.486   2.118  0.00  0.00    +0.144 C 
BRANCH  20  23
ATOM     21  N   UNL     1      -1.003  -0.207   0.744  0.00  0.00    -0.268 N 
ATOM     22  C   UNL     1      -1.821  -0.454   1.788  0.00  0.00    +0.041 A 
ATOM     23  C   UNL     1      -2.942  -1.038   1.305  0.00  0.00    +0.013 A 
ATOM     24  C   UNL     1      -2.805  -1.151  -0.082  0.00  0.00    +0.065 A 
ATOM     25  N   UNL     1      -1.645  -0.648  -0.420  0.00  0.00    -0.176 NA
ATOM     26  C   UNL     1      -3.820  -1.744  -1.025  0.00  0.00    +0.068 C 
ATOM     27  C   UNL     1      -1.537  -0.137   3.234  0.00  0.00    +0.065 C 
BRANCH  21  29
ATOM     28  C   UNL     1       0.176   1.934   0.680  0.00  0.00    +0.029 C 
ATOM     29  C   UNL     1       0.320   0.417   0.814  0.00  0.00    +0.140 C 
ENDBRANCH  21  29
ENDBRANCH  20  23
ENDBRANCH   1  20
TORSDOF 5
