REMARK  Name = ZINC16973829
REMARK  8 active torsions:
REMARK  status: ('A' for Active; 'I' for Inactive)
REMARK    1  A    between atoms: C_1  and  O_2
REMARK    2  A    between atoms: O_2  and  C_3
REMARK    3  A    between atoms: C_8  and  N_9
REMARK    4  A    between atoms: C_10  and  C_12
REMARK    5  A    between atoms: C_13  and  N_27
REMARK    6  A    between atoms: N_14  and  C_18
REMARK    7  A    between atoms: C_23  and  O_24
REMARK    8  A    between atoms: O_24  and  C_25
REMARK                            x       y       z     vdW  Elec       q    Type
REMARK                         _______ _______ _______ _____ _____    ______ ____
ROOT
ATOM      1  C   UNL     1      -2.955   2.180   5.575  0.00  0.00    +0.115 A 
ATOM      2  C   UNL     1      -3.518   2.480   6.792  0.00  0.00    +0.121 A 
ATOM      3  N   UNL     1      -3.870   1.452   7.593  0.00  0.00    -0.282 N 
ATOM      4  C   UNL     1      -3.653   0.182   7.188  0.00  0.00    +0.132 A 
ATOM      5  S   UNL     1      -4.000  -1.277   8.014  0.00  0.00    -0.024 S 
ATOM      6  S   UNL     1      -2.935   0.396   5.623  0.00  0.00    -0.055 S 
ENDROOT
BRANCH   3   7
ATOM      7  C   UNL     1      -4.453   1.702   8.844  0.00  0.00    +0.092 A 
ATOM      8  C   UNL     1      -3.653   1.845   9.968  0.00  0.00    +0.050 A 
ATOM      9  C   UNL     1      -4.230   2.096  11.199  0.00  0.00    +0.043 A 
ATOM     10  C   UNL     1      -5.606   2.194  11.315  0.00  0.00    +0.024 A 
ATOM     11  C   UNL     1      -6.409   2.047  10.199  0.00  0.00    +0.049 A 
ATOM     12  C   UNL     1      -5.837   1.801   8.961  0.00  0.00    +0.144 A 
ATOM     13 CL   UNL     1      -3.227   2.282  12.604  0.00  0.00    -0.083 Cl
BRANCH  12  14
ATOM     14  O   UNL     1      -6.627   1.656   7.863  0.00  0.00    -0.493 OA
ATOM     15  C   UNL     1      -8.037   1.770   8.059  0.00  0.00    +0.277 C 
ENDBRANCH  12  14
ENDBRANCH   3   7
BRANCH   1  17
ATOM     16  N   UNL     1      -1.973   2.550   3.429  0.00  0.00    -0.278 N 
ATOM     17  C   UNL     1      -2.507   3.051   4.560  0.00  0.00    +0.258 C 
ATOM     18  O   UNL     1      -2.602   4.258   4.706  0.00  0.00    -0.269 OA
ATOM     19  H   UNL     1      -1.970   1.591   3.277  0.00  0.00    +0.155 HD
BRANCH  16  25
ATOM     20  C   UNL     1      -1.342   3.015   1.139  0.00  0.00    +0.141 A 
ATOM     21  C   UNL     1      -0.801   3.874   0.195  0.00  0.00    +0.047 A 
ATOM     22  C   UNL     1      -0.338   5.119   0.579  0.00  0.00    +0.004 A 
ATOM     23  C   UNL     1      -0.413   5.511   1.903  0.00  0.00    +0.002 A 
ATOM     24  C   UNL     1      -0.951   4.660   2.849  0.00  0.00    +0.027 A 
ATOM     25  C   UNL     1      -1.422   3.411   2.472  0.00  0.00    +0.076 A 
BRANCH  20  27
ATOM     26  C   UNL     1      -1.690   1.454  -0.622  0.00  0.00    +0.277 C 
ATOM     27  O   UNL     1      -1.799   1.790   0.763  0.00  0.00    -0.493 OA
ENDBRANCH  20  27
ENDBRANCH  16  25
ENDBRANCH   1  17
BRANCH   2  28
ATOM     28  N   UNL     1      -3.719   3.787   7.181  0.00  0.00    -0.343 N 
ATOM     29  H   UNL     1      -3.463   4.513   6.591  0.00  0.00    +0.144 HD
ATOM     30  H   UNL     1      -4.117   3.980   8.044  0.00  0.00    +0.144 HD
ENDBRANCH   2  28
TORSDOF 6
