REMARK  Name = ZINC46462537
REMARK  3 active torsions:
REMARK  status: ('A' for Active; 'I' for Inactive)
REMARK    1  A    between atoms: C_11  and  C_13
REMARK    2  A    between atoms: C_15  and  S_20
REMARK    3  A    between atoms: S_20  and  N_23
REMARK                            x       y       z     vdW  Elec       q    Type
REMARK                         _______ _______ _______ _____ _____    ______ ____
ROOT
ATOM      1  C   UNL     1       6.070  -0.651  -0.238  0.00  0.00    +0.053 A 
ATOM      2  C   UNL     1       6.127  -2.020   0.031  0.00  0.00    +0.042 A 
ATOM      3  C   UNL     1       7.349  -2.655   0.107  0.00  0.00    +0.106 A 
ATOM      4  C   UNL     1       8.518  -1.938  -0.081  0.00  0.00    +0.029 A 
ATOM      5  C   UNL     1       8.470  -0.582  -0.348  0.00  0.00    +0.018 A 
ATOM      6  C   UNL     1       7.253   0.065  -0.433  0.00  0.00    +0.030 A 
ATOM      7 BR   UNL     1       7.188   1.918  -0.806  0.00  0.00    -0.050 Br
ENDROOT
BRANCH   1  18
ATOM      8  C   UNL     1      -0.063   1.205  -0.644  0.00  0.00    +0.000 A 
ATOM      9  C   UNL     1       1.009   1.778   0.016  0.00  0.00    +0.002 A 
ATOM     10  C   UNL     1       2.243   1.160  -0.011  0.00  0.00    +0.024 A 
ATOM     11  C   UNL     1       2.408  -0.037  -0.700  0.00  0.00    +0.040 A 
ATOM     12  C   UNL     1       1.332  -0.612  -1.357  0.00  0.00    -0.026 A 
ATOM     13  C   UNL     1       0.098   0.015  -1.327  0.00  0.00    +0.005 A 
ATOM     14  C   UNL     1       1.471  -1.913  -2.104  0.00  0.00    +0.038 C 
ATOM     15  C   UNL     1       2.935  -2.177  -2.451  0.00  0.00    +0.024 C 
ATOM     16  C   UNL     1       3.781  -2.036  -1.179  0.00  0.00    +0.114 C 
ATOM     17  N   UNL     1       3.670  -0.645  -0.719  0.00  0.00    -0.267 N 
ATOM     18  C   UNL     1       4.764   0.035  -0.322  0.00  0.00    +0.252 C 
ATOM     19  O   UNL     1       4.676   1.212  -0.033  0.00  0.00    -0.270 OA
ENDBRANCH   1  18
BRANCH   3  20
ATOM     20  S   UNL     1       7.423  -4.382   0.447  0.00  0.00    +0.056 S 
ATOM     21  O   UNL     1       8.654  -4.612   1.117  0.00  0.00    -0.153 OA
ATOM     22  O   UNL     1       6.169  -4.739   1.013  0.00  0.00    -0.153 OA
BRANCH  20  23
ATOM     23  N   UNL     1       7.523  -5.164  -1.010  0.00  0.00    -0.204 NA
ATOM     24  H   UNL     1       7.990  -6.011  -1.074  0.00  0.00    +0.144 HD
ATOM     25  H   UNL     1       7.116  -4.773  -1.799  0.00  0.00    +0.144 HD
ENDBRANCH  20  23
ENDBRANCH   3  20
TORSDOF 3
