REMARK  Name = ZINC16795908
REMARK  8 active torsions:
REMARK  status: ('A' for Active; 'I' for Inactive)
REMARK    1  A    between atoms: C_1  and  C_2
REMARK    2  A    between atoms: C_14  and  C_15
REMARK    3  A    between atoms: C_15  and  O_17
REMARK    4  A    between atoms: O_17  and  C_18
REMARK    5  A    between atoms: C_18  and  C_20
REMARK    6  A    between atoms: C_18  and  C_21
REMARK    7  A    between atoms: N_23  and  C_24
REMARK    8  A    between atoms: C_25  and  C_29
REMARK                            x       y       z     vdW  Elec       q    Type
REMARK                         _______ _______ _______ _____ _____    ______ ____
ROOT
ATOM      1  O   UNL     1       2.477   8.681   0.024  0.00  0.00    -0.447 OA
ENDROOT
BRANCH   1   2
ATOM      2  C   UNL     1       1.128   8.691   0.037  0.00  0.00    +0.376 C 
ATOM      3  O   UNL     1       0.528   9.749   0.048  0.00  0.00    -0.241 OA
BRANCH   2  17
ATOM      4  C   UNL     1      -1.969   8.437   0.067  0.00  0.00    +0.048 C 
ATOM      5  C   UNL     1      -0.970   7.309   0.051  0.00  0.00    +0.010 A 
ATOM      6  C   UNL     1      -1.263   5.922   0.046  0.00  0.00    +0.025 A 
ATOM      7  C   UNL     1      -2.468   5.190   0.053  0.00  0.00    +0.012 A 
ATOM      8  C   UNL     1      -2.456   3.837   0.046  0.00  0.00    +0.009 A 
ATOM      9  C   UNL     1      -1.232   3.135   0.030  0.00  0.00    -0.014 A 
ATOM     10  C   UNL     1      -1.207   1.731   0.017  0.00  0.00    +0.008 A 
ATOM     11  C   UNL     1      -0.013   1.076   0.008  0.00  0.00    +0.001 A 
ATOM     12  C   UNL     1       1.189   1.778   0.000  0.00  0.00    +0.001 A 
ATOM     13  C   UNL     1       1.202   3.141   0.006  0.00  0.00    +0.012 A 
ATOM     14  C   UNL     1      -0.009   3.848   0.021  0.00  0.00    +0.025 A 
ATOM     15  C   UNL     1      -0.031   5.260   0.029  0.00  0.00    +0.144 A 
ATOM     16  O   UNL     1       0.937   6.194   0.025  0.00  0.00    -0.447 OA
ATOM     17  C   UNL     1       0.385   7.426   0.038  0.00  0.00    +0.216 A 
ENDBRANCH   2  17
ENDBRANCH   1   2
BRANCH   1  18
ATOM     18  C   UNL     1       3.146   9.969   0.024  0.00  0.00    +0.259 C 
ATOM     19  C   UNL     1       3.395  10.414   1.466  0.00  0.00    +0.062 C 
BRANCH  18  20
ATOM     20  C   UNL     1       4.462   9.851  -0.700  0.00  0.00    +0.258 C 
ATOM     21  O   UNL     1       4.803   8.786  -1.170  0.00  0.00    -0.271 OA
ATOM     22  N   UNL     1       5.261  10.930  -0.826  0.00  0.00    -0.276 N 
ATOM     23  H   UNL     1       4.989  11.781  -0.450  0.00  0.00    +0.155 HD
BRANCH  22  24
ATOM     24  C   UNL     1       6.472  10.821  -1.492  0.00  0.00    +0.084 A 
ATOM     25  C   UNL     1       7.420  11.811  -1.726  0.00  0.00    +0.065 A 
ATOM     26  C   UNL     1       8.605  11.416  -2.451  0.00  0.00    +0.022 A 
ATOM     27  C   UNL     1       8.685  10.132  -2.844  0.00  0.00    +0.048 A 
ATOM     28  S   UNL     1       7.168   9.423  -2.239  0.00  0.00    -0.081 S 
BRANCH  25  29
ATOM     29  C   UNL     1       7.228  13.187  -1.258  0.00  0.00    +0.244 C 
ATOM     30  O   UNL     1       6.218  13.486  -0.647  0.00  0.00    -0.270 OA
ATOM     31  N   UNL     1       8.168  14.120  -1.504  0.00  0.00    -0.325 N 
ATOM     32  H   UNL     1       8.973  13.881  -1.991  0.00  0.00    +0.145 HD
ATOM     33  H   UNL     1       8.041  15.030  -1.194  0.00  0.00    +0.145 HD
ENDBRANCH  25  29
ENDBRANCH  22  24
ENDBRANCH  18  20
ENDBRANCH   1  18
TORSDOF 6
