REMARK  Name = ZINC51673693
REMARK  4 active torsions:
REMARK  status: ('A' for Active; 'I' for Inactive)
REMARK    1  A    between atoms: C_1  and  C_2
REMARK    2  A    between atoms: C_4  and  N_21
REMARK    3  A    between atoms: C_7  and  N_8
REMARK    4  A    between atoms: C_15  and  C_18
REMARK                            x       y       z     vdW  Elec       q    Type
REMARK                         _______ _______ _______ _____ _____    ______ ____
ROOT
ATOM      1  N   UNL     1       0.023  -0.017   2.422  0.00  0.00    -0.269 N 
ATOM      2  C   UNL     1       0.128  -0.746   3.551  0.00  0.00    +0.307 C 
ATOM      3  O   UNL     1       0.312  -1.946   3.485  0.00  0.00    -0.252 OA
ATOM      4  N   UNL     1       0.030  -0.145   4.753  0.00  0.00    -0.280 N 
ATOM      5  C   UNL     1      -0.087   1.318   4.861  0.00  0.00    +0.137 C 
ATOM      6  C   UNL     1      -1.279   1.642   5.768  0.00  0.00    +0.180 C 
ATOM      7  O   UNL     1      -1.144   0.924   6.997  0.00  0.00    -0.364 OA
ATOM      8  C   UNL     1      -1.162  -0.498   6.849  0.00  0.00    +0.221 C 
ATOM      9  C   UNL     1       0.030  -0.932   5.996  0.00  0.00    +0.150 C 
ATOM     10  H   UNL     1      -0.056   0.948   2.473  0.00  0.00    +0.156 HD
ENDROOT
BRANCH   1  17
ATOM     11  C   UNL     1       0.583   1.550   0.116  0.00  0.00    +0.046 C 
ATOM     12  C   UNL     1       0.295   0.074   0.023  0.00  0.00    -0.027 A 
ATOM     13  C   UNL     1       0.304  -0.555  -1.207  0.00  0.00    +0.028 A 
ATOM     14  C   UNL     1       0.039  -1.915  -1.293  0.00  0.00    +0.030 A 
ATOM     15  C   UNL     1      -0.235  -2.643  -0.142  0.00  0.00    +0.025 A 
ATOM     16  C   UNL     1      -0.244  -2.014   1.087  0.00  0.00    +0.025 A 
ATOM     17  C   UNL     1       0.026  -0.655   1.173  0.00  0.00    +0.038 A 
BRANCH  14  18
ATOM     18  N   UNL     1       0.048  -2.552  -2.538  0.00  0.00    -0.328 N 
ATOM     19  C   UNL     1      -0.109  -4.006  -2.608  0.00  0.00    +0.116 C 
ATOM     20  C   UNL     1      -1.432  -4.344  -3.305  0.00  0.00    +0.088 C 
ATOM     21  S   UNL     1      -1.435  -3.572  -4.951  0.00  0.00    -0.158 S 
ATOM     22  C   UNL     1      -1.071  -1.827  -4.590  0.00  0.00    +0.088 C 
ATOM     23  C   UNL     1       0.207  -1.756  -3.756  0.00  0.00    +0.116 C 
ENDBRANCH  14  18
ENDBRANCH   1  17
BRANCH   8  24
ATOM     24  C   UNL     1      -1.076  -1.146   8.207  0.00  0.00    +0.241 C 
ATOM     25  O   UNL     1      -0.915  -0.463   9.196  0.00  0.00    -0.273 OA
ATOM     26  N   UNL     1      -1.178  -2.485   8.321  0.00  0.00    -0.327 N 
ATOM     27  H   UNL     1      -1.306  -3.031   7.530  0.00  0.00    +0.145 HD
ATOM     28  H   UNL     1      -1.123  -2.903   9.195  0.00  0.00    +0.145 HD
ENDBRANCH   8  24
TORSDOF 3
