REMARK  Name = ZINC03082167
REMARK  2 active torsions:
REMARK  status: ('A' for Active; 'I' for Inactive)
REMARK    1  A    between atoms: C_10  and  N_11
REMARK    2  A    between atoms: N_14  and  C_15
REMARK                            x       y       z     vdW  Elec       q    Type
REMARK                         _______ _______ _______ _____ _____    ______ ____
ROOT
ATOM      1  N   UNL     1      -2.487   5.272   0.070  0.00  0.00    -0.269 N 
ATOM      2  C   UNL     1      -3.661   5.927  -0.029  0.00  0.00    +0.308 C 
ATOM      3  O   UNL     1      -4.706   5.305  -0.029  0.00  0.00    -0.252 OA
ATOM      4  N   UNL     1      -3.677   7.271  -0.127  0.00  0.00    -0.268 N 
ATOM      5  H   UNL     1      -1.659   5.771   0.152  0.00  0.00    +0.156 HD
ATOM      6  H   UNL     1      -2.844   7.761  -0.209  0.00  0.00    +0.156 HD
ENDROOT
BRANCH   1  16
ATOM      7  C   UNL     1       0.677   1.754   1.826  0.00  0.00    +0.001 A 
ATOM      8  C   UNL     1       0.673   3.147   1.854  0.00  0.00    +0.001 A 
ATOM      9  C   UNL     1      -0.340   3.856   1.283  0.00  0.00    +0.010 A 
ATOM     10  C   UNL     1      -1.396   3.176   0.656  0.00  0.00    +0.003 A 
ATOM     11  C   UNL     1      -1.389   1.760   0.621  0.00  0.00    -0.016 A 
ATOM     12  C   UNL     1      -0.329   1.062   1.227  0.00  0.00    +0.008 A 
ATOM     13  C   UNL     1      -2.448   1.078  -0.001  0.00  0.00    +0.008 A 
ATOM     14  C   UNL     1      -3.465   1.779  -0.574  0.00  0.00    +0.002 A 
ATOM     15  C   UNL     1      -3.480   3.170  -0.551  0.00  0.00    +0.024 A 
ATOM     16  C   UNL     1      -2.462   3.876   0.054  0.00  0.00    +0.042 A 
ENDBRANCH   1  16
BRANCH   4  17
ATOM     17  C   UNL     1      -4.895   7.960  -0.112  0.00  0.00    +0.048 A 
ATOM     18  C   UNL     1      -6.007   7.393   0.498  0.00  0.00    +0.024 A 
ATOM     19  C   UNL     1      -7.206   8.077   0.516  0.00  0.00    +0.002 A 
ATOM     20  C   UNL     1      -7.304   9.321  -0.080  0.00  0.00    +0.001 A 
ATOM     21  C   UNL     1      -6.201   9.886  -0.693  0.00  0.00    +0.016 A 
ATOM     22  C   UNL     1      -4.996   9.209  -0.710  0.00  0.00    +0.035 A 
ATOM     23  I   UNL     1      -3.325  10.065  -1.639  0.00  0.00    -0.042 I 
ENDBRANCH   4  17
TORSDOF 2
