REMARK  Name = ZINC32608079
REMARK  3 active torsions:
REMARK  status: ('A' for Active; 'I' for Inactive)
REMARK    1  A    between atoms: C_4  and  N_11
REMARK    2  A    between atoms: C_5  and  C_7
REMARK    3  A    between atoms: C_12  and  C_14
REMARK                            x       y       z     vdW  Elec       q    Type
REMARK                         _______ _______ _______ _____ _____    ______ ____
ROOT
ATOM      1  N   UNL     1      -6.080   3.036   0.076  0.00  0.00    -0.281 N 
ATOM      2  C   UNL     1      -4.952   3.775   0.063  0.00  0.00    +0.253 C 
ATOM      3  O   UNL     1      -5.020   4.989   0.074  0.00  0.00    -0.270 OA
ATOM      4  H   UNL     1      -6.021   1.941  -0.009  0.00  0.00    +0.155 HD
ENDROOT
BRANCH   2   5
ATOM      5  C   UNL     1      -3.638   3.111   0.036  0.00  0.00    +0.100 A 
ATOM      6  C   UNL     1      -3.551   1.709   0.024  0.00  0.00    +0.100 A 
ATOM      7  N   UNL     1      -2.397   1.093   0.001  0.00  0.00    -0.360 N 
ATOM      8  C   UNL     1      -1.236   1.764  -0.018  0.00  0.00    +0.056 A 
ATOM      9  C   UNL     1      -0.013   1.078  -0.038  0.00  0.00    +0.064 A 
ATOM     10  C   UNL     1       1.159   1.778  -0.051  0.00  0.00    +0.128 A 
ATOM     11  C   UNL     1       1.163   3.172  -0.040  0.00  0.00    +0.077 A 
ATOM     12  C   UNL     1      -0.008   3.872  -0.016  0.00  0.00    +0.139 A 
ATOM     13  C   UNL     1      -1.231   3.180  -0.002  0.00  0.00    +0.081 A 
ATOM     14  C   UNL     1      -2.461   3.871   0.023  0.00  0.00    +0.204 A 
ATOM     15  O   UNL     1      -2.503   5.223   0.034  0.00  0.00    -0.286 OA
ATOM     16  F   UNL     1       0.008   5.223  -0.006  0.00  0.00    -0.205 F 
ATOM     17  F   UNL     1       2.333   1.110  -0.075  0.00  0.00    -0.205 F 
ATOM     18  H   UNL     1      -2.360  -0.006  -0.004  0.00  0.00    +0.165 HD
ENDBRANCH   2   5
BRANCH   1  22
ATOM     19  C   UNL     1      -9.786   4.903   0.436  0.00  0.00    +0.001 A 
ATOM     20  C   UNL     1      -8.769   5.519  -0.269  0.00  0.00    +0.002 A 
ATOM     21  C   UNL     1      -7.537   4.906  -0.387  0.00  0.00    +0.024 A 
ATOM     22  C   UNL     1      -7.324   3.663   0.197  0.00  0.00    +0.045 A 
ATOM     23  C   UNL     1      -8.348   3.047   0.905  0.00  0.00    +0.076 A 
ATOM     24  C   UNL     1      -9.575   3.668   1.022  0.00  0.00    +0.014 A 
BRANCH  23  25
ATOM     25  C   UNL     1      -8.118   1.702   1.544  0.00  0.00    +0.419 C 
ATOM     26  F   UNL     1      -9.286   1.290   2.195  0.00  0.00    -0.166 F 
ATOM     27  F   UNL     1      -7.780   0.768   0.559  0.00  0.00    -0.166 F 
ATOM     28  F   UNL     1      -7.077   1.798   2.473  0.00  0.00    -0.166 F 
ENDBRANCH  23  25
ENDBRANCH   1  22
TORSDOF 3
