REMARK  Name = ZINC39637133
REMARK  8 active torsions:
REMARK  status: ('A' for Active; 'I' for Inactive)
REMARK    1  A    between atoms: C_1  and  C_2
REMARK    2  A    between atoms: C_7  and  N_12
REMARK    3  A    between atoms: C_9  and  C_11
REMARK    4  A    between atoms: C_13  and  C_15
REMARK    5  A    between atoms: C_26  and  C_28
REMARK    6  A    between atoms: C_33  and  O_34
REMARK    7  A    between atoms: O_34  and  C_35
REMARK    8  A    between atoms: C_35  and  C_37
REMARK                            x       y       z     vdW  Elec       q    Type
REMARK                         _______ _______ _______ _____ _____    ______ ____
ROOT
ATOM      1  C   UNL     1       2.703  -4.551   3.986  0.00  0.00    +0.100 C 
ATOM      2  C   UNL     1       3.904  -3.584   4.092  0.00  0.00    +0.121 C 
ATOM      3  N   UNL     1       5.055  -4.453   4.433  0.00  0.00    -0.296 N 
ATOM      4  C   UNL     1       4.847  -5.676   3.621  0.00  0.00    +0.115 C 
ATOM      5  C   UNL     1       3.326  -5.922   3.677  0.00  0.00    -0.004 C 
ATOM      6  C   UNL     1       2.826  -6.438   2.331  0.00  0.00    -0.010 C 
ATOM      7  C   UNL     1       3.413  -7.828   2.072  0.00  0.00    -0.082 C 
ATOM      8  N   UNL     1       3.009  -8.740   3.148  0.00  0.00    +0.379 N 
ATOM      9  C   UNL     1       3.572  -8.287   4.426  0.00  0.00    -0.082 C 
ATOM     10  C   UNL     1       2.991  -6.917   4.785  0.00  0.00    -0.010 C 
ATOM     11  C   UNL     1       6.063  -4.191   5.288  0.00  0.00    +0.250 C 
ATOM     12  O   UNL     1       6.991  -4.970   5.392  0.00  0.00    -0.270 OA
ATOM     13  H   UNL     1       2.002  -8.757   3.213  0.00  0.00    -0.086 HD
ATOM     14  H   UNL     1       3.345  -9.669   2.944  0.00  0.00    -0.086 HD
ENDROOT
BRANCH  11  15
ATOM     15  C   UNL     1       6.041  -2.958   6.099  0.00  0.00    +0.079 A 
ATOM     16  C   UNL     1       5.509  -1.780   5.571  0.00  0.00    +0.017 A 
ATOM     17  C   UNL     1       5.491  -0.632   6.333  0.00  0.00    +0.001 A 
ATOM     18  C   UNL     1       5.998  -0.641   7.622  0.00  0.00    +0.004 A 
ATOM     19  C   UNL     1       6.527  -1.799   8.156  0.00  0.00    +0.047 A 
ATOM     20  C   UNL     1       6.548  -2.965   7.405  0.00  0.00    +0.144 A 
BRANCH  20  21
ATOM     21  O   UNL     1       7.063  -4.105   7.931  0.00  0.00    -0.425 OA
BRANCH  21  22
ATOM     22  C   UNL     1       6.221  -4.955   8.541  0.00  0.00    +0.309 C 
ATOM     23  O   UNL     1       5.032  -4.739   8.529  0.00  0.00    -0.251 OA
ATOM     24  C   UNL     1       6.758  -6.177   9.239  0.00  0.00    +0.136 C 
ENDBRANCH  21  22
ENDBRANCH  20  21
ENDBRANCH  11  15
BRANCH   1  26
ATOM     25  N   UNL     1       0.488  -4.493   2.887  0.00  0.00    -0.312 N 
ATOM     26  C   UNL     1       1.785  -4.127   2.869  0.00  0.00    +0.218 C 
ATOM     27  O   UNL     1       2.213  -3.457   1.954  0.00  0.00    -0.275 OA
ATOM     28  H   UNL     1       0.145  -5.029   3.619  0.00  0.00    +0.149 HD
BRANCH  25  34
ATOM     29  C   UNL     1      -4.222  -3.591   1.683  0.00  0.00    +0.008 C 
ATOM     30  C   UNL     1      -2.779  -3.621   1.175  0.00  0.00    -0.009 C 
ATOM     31  C   UNL     1      -2.667  -4.615   0.017  0.00  0.00    +0.003 C 
ATOM     32  C   UNL     1      -1.224  -4.645  -0.491  0.00  0.00    +0.002 C 
ATOM     33  C   UNL     1      -0.292  -5.075   0.643  0.00  0.00    +0.022 C 
ATOM     34  C   UNL     1      -0.405  -4.081   1.801  0.00  0.00    +0.076 C 
ATOM     35  C   UNL     1      -1.847  -4.051   2.309  0.00  0.00    +0.009 C 
ATOM     36  C   UNL     1      -2.245  -5.446   2.795  0.00  0.00    +0.009 C 
ENDBRANCH  25  34
ENDBRANCH   1  26
TORSDOF 5
