REMARK  Name = ZINC13131298
REMARK  6 active torsions:
REMARK  status: ('A' for Active; 'I' for Inactive)
REMARK    1  A    between atoms: C_1  and  O_2
REMARK    2  A    between atoms: O_2  and  C_3
REMARK    3  A    between atoms: C_6  and  C_11
REMARK    4  A    between atoms: C_8  and  O_9
REMARK    5  A    between atoms: O_9  and  C_10
REMARK    6  A    between atoms: C_14  and  C_23
REMARK                            x       y       z     vdW  Elec       q    Type
REMARK                         _______ _______ _______ _____ _____    ______ ____
ROOT
ATOM      1  C   UNL     1       2.507  -2.501  -4.386  0.00  0.00    +0.143 C 
ATOM      2  C   UNL     1       3.977  -2.068  -4.452  0.00  0.00    +0.059 C 
ATOM      3  C   UNL     1       4.589  -2.514  -5.785  0.00  0.00    +0.107 C 
ATOM      4  N   UNL     1       3.872  -1.838  -6.882  0.00  0.00    -0.307 N 
ATOM      5  C   UNL     1       2.488  -1.791  -6.774  0.00  0.00    +0.216 A 
ATOM      6  N   UNL     1       1.839  -2.100  -5.624  0.00  0.00    -0.224 N 
ATOM      7  N   UNL     1       0.475  -1.951  -5.880  0.00  0.00    -0.132 NA
ATOM      8  C   UNL     1       0.364  -1.571  -7.134  0.00  0.00    +0.233 A 
ATOM      9  N   UNL     1       1.594  -1.471  -7.672  0.00  0.00    -0.180 NA
ATOM     10  N   UNL     1      -0.835  -1.310  -7.797  0.00  0.00    -0.326 N 
ATOM     11  H   UNL     1       4.340  -1.447  -7.637  0.00  0.00    +0.149 HD
ATOM     12  H   UNL     1      -1.680  -1.405  -7.329  0.00  0.00    +0.145 HD
ATOM     13  H   UNL     1      -0.825  -1.033  -8.727  0.00  0.00    +0.145 HD
ENDROOT
BRANCH   3  14
ATOM     14  C   UNL     1       6.048  -2.139  -5.823  0.00  0.00    -0.009 A 
ATOM     15  C   UNL     1       6.442  -0.953  -6.413  0.00  0.00    +0.008 A 
ATOM     16  C   UNL     1       7.780  -0.608  -6.448  0.00  0.00    +0.020 A 
ATOM     17  C   UNL     1       8.726  -1.450  -5.891  0.00  0.00    +0.042 A 
ATOM     18  C   UNL     1       8.333  -2.638  -5.300  0.00  0.00    +0.040 A 
ATOM     19  C   UNL     1       6.993  -2.980  -5.261  0.00  0.00    +0.047 A 
ATOM     20 CL   UNL     1       6.498  -4.467  -4.514  0.00  0.00    -0.083 Cl
ATOM     21 CL   UNL     1      10.407  -1.018  -5.936  0.00  0.00    -0.083 Cl
ENDBRANCH   3  14
BRANCH   1  25
ATOM     22  C   UNL     1       0.606  -0.608  -1.056  0.00  0.00    +0.162 A 
ATOM     23  C   UNL     1       1.173   0.159  -2.062  0.00  0.00    +0.050 A 
ATOM     24  C   UNL     1       1.787  -0.456  -3.137  0.00  0.00    +0.009 A 
ATOM     25  C   UNL     1       1.837  -1.836  -3.212  0.00  0.00    -0.019 A 
ATOM     26  C   UNL     1       1.273  -2.606  -2.212  0.00  0.00    +0.055 A 
ATOM     27  C   UNL     1       0.662  -1.996  -1.129  0.00  0.00    +0.162 A 
BRANCH  22  29
ATOM     28  C   UNL     1      -0.017   1.425   0.010  0.00  0.00    +0.277 C 
ATOM     29  O   UNL     1       0.002  -0.004   0.002  0.00  0.00    -0.491 OA
ENDBRANCH  22  29
BRANCH  27  30
ATOM     30  O   UNL     1       0.112  -2.753  -0.142  0.00  0.00    -0.491 OA
ATOM     31  C   UNL     1       0.206  -4.171  -0.283  0.00  0.00    +0.277 C 
ENDBRANCH  27  30
ENDBRANCH   1  25
TORSDOF 4
