REMARK  Name = ZINC20344223
REMARK  7 active torsions:
REMARK  status: ('A' for Active; 'I' for Inactive)
REMARK    1  A    between atoms: C_1  and  C_2
REMARK    2  A    between atoms: C_4  and  O_5
REMARK    3  A    between atoms: N_13  and  C_14
REMARK    4  A    between atoms: C_14  and  N_16
REMARK    5  A    between atoms: N_19  and  C_22
REMARK    6  A    between atoms: C_22  and  C_23
REMARK    7  A    between atoms: C_23  and  C_24
REMARK                            x       y       z     vdW  Elec       q    Type
REMARK                         _______ _______ _______ _____ _____    ______ ____
ROOT
ATOM      1  C   UNL     1      -0.021   1.709   0.011  0.00  0.00    +0.137 C 
ATOM      2  S   UNL     1      -0.006  -0.003   0.022  0.00  0.00    -0.018 S 
ENDROOT
BRANCH   1  14
ATOM      3  C   UNL     1      -2.563   4.272  -6.085  0.00  0.00    +0.045 C 
ATOM      4  C   UNL     1      -3.239   4.517  -4.761  0.00  0.00    -0.033 A 
ATOM      5  C   UNL     1      -4.370   5.266  -4.683  0.00  0.00    +0.091 A 
ATOM      6  C   UNL     1      -4.984   5.480  -3.432  0.00  0.00    +0.285 A 
ATOM      7  O   UNL     1      -4.481   4.961  -2.301  0.00  0.00    -0.425 OA
ATOM      8  C   UNL     1      -3.360   4.207  -2.309  0.00  0.00    +0.141 A 
ATOM      9  C   UNL     1      -2.696   3.953  -3.524  0.00  0.00    +0.021 A 
ATOM     10  C   UNL     1      -1.535   3.172  -3.538  0.00  0.00    +0.013 A 
ATOM     11  C   UNL     1      -1.046   2.662  -2.370  0.00  0.00    +0.024 A 
ATOM     12  C   UNL     1      -1.702   2.905  -1.164  0.00  0.00    +0.036 A 
ATOM     13  C   UNL     1      -2.854   3.677  -1.133  0.00  0.00    +0.070 A 
ATOM     14  N   UNL     1      -1.193   2.373   0.020  0.00  0.00    -0.297 N 
ATOM     15  H   UNL     1      -1.749   2.495   0.962  0.00  0.00    +0.154 HD
BRANCH   6  16
ATOM     16  O   UNL     1      -5.997   6.154  -3.375  0.00  0.00    -0.480 OA
ATOM     17  H   UNL     1      -6.487   6.330  -2.407  0.00  0.00    +0.295 HD
ENDBRANCH   6  16
ENDBRANCH   1  14
BRANCH   1  18
ATOM     18  N   UNL     1       1.141   2.392  -0.011  0.00  0.00    -0.316 N 
ATOM     19  C   UNL     1       1.152   3.858  -0.136  0.00  0.00    +0.088 C 
ATOM     20  C   UNL     1       2.034   4.430   0.984  0.00  0.00    -0.060 C 
ATOM     21  N   UNL     1       3.357   3.793   0.933  0.00  0.00    +0.382 N 
ATOM     22  C   UNL     1       3.263   2.349   1.188  0.00  0.00    -0.060 C 
ATOM     23  C   UNL     1       2.431   1.692   0.082  0.00  0.00    +0.088 C 
ATOM     24  H   UNL     1       3.754   3.928  -0.083  0.00  0.00    -0.082 HD
BRANCH  21  25
ATOM     25  C   UNL     1       4.286   4.434   1.873  0.00  0.00    -0.074 C 
BRANCH  25  26
ATOM     26  C   UNL     1       4.172   5.955   1.746  0.00  0.00    +0.016 C 
BRANCH  26  27
ATOM     27  C   UNL     1       5.126   6.612   2.710  0.00  0.00    -0.049 A 
ATOM     28  C   UNL     1       4.709   6.925   3.990  0.00  0.00    +0.003 A 
ATOM     29  C   UNL     1       5.585   7.523   4.876  0.00  0.00    +0.000 A 
ATOM     30  C   UNL     1       6.876   7.818   4.478  0.00  0.00    +0.000 A 
ATOM     31  C   UNL     1       7.291   7.511   3.196  0.00  0.00    +0.000 A 
ATOM     32  C   UNL     1       6.417   6.907   2.312  0.00  0.00    +0.003 A 
ENDBRANCH  26  27
ENDBRANCH  25  26
ENDBRANCH  21  25
ENDBRANCH   1  18
TORSDOF 6
