REMARK  Name = ZINC49486339
REMARK  6 active torsions:
REMARK  status: ('A' for Active; 'I' for Inactive)
REMARK    1  A    between atoms: C_1  and  C_2
REMARK    2  A    between atoms: C_6  and  C_21
REMARK    3  A    between atoms: C_10  and  C_12
REMARK    4  A    between atoms: C_12  and  C_14
REMARK    5  A    between atoms: C_12  and  S_15
REMARK    6  A    between atoms: S_15  and  C_16
REMARK                            x       y       z     vdW  Elec       q    Type
REMARK                         _______ _______ _______ _____ _____    ______ ____
ROOT
ATOM      1  C   UNL     1      -0.064   1.528   0.050  0.00  0.00    +0.028 C 
ATOM      2  C   UNL     1       0.126   0.017  -0.093  0.00  0.00    +0.073 C 
ATOM      3  C   UNL     1      -1.240  -0.677  -0.066  0.00  0.00    +0.023 C 
ATOM      4  C   UNL     1      -1.037  -2.194  -0.068  0.00  0.00    +0.016 C 
ATOM      5  C   UNL     1      -0.260  -2.608   1.183  0.00  0.00    +0.092 C 
ATOM      6  C   UNL     1       1.117  -1.937   1.170  0.00  0.00    +0.120 C 
ATOM      7  N   UNL     1       0.937  -0.485   1.024  0.00  0.00    -0.297 N 
ATOM      8  C   UNL     1       1.502   0.368   1.901  0.00  0.00    +0.229 C 
ATOM      9  O   UNL     1       1.277   1.558   1.819  0.00  0.00    -0.274 OA
ENDROOT
BRANCH   5  10
ATOM     10  C   UNL     1      -0.089  -4.106   1.196  0.00  0.00    +0.215 C 
ATOM     11  O   UNL     1       1.023  -4.590   1.198  0.00  0.00    -0.276 OA
ATOM     12  N   UNL     1      -1.173  -4.907   1.206  0.00  0.00    -0.329 N 
ATOM     13  H   UNL     1      -2.062  -4.520   1.205  0.00  0.00    +0.145 HD
ATOM     14  H   UNL     1      -1.063  -5.871   1.215  0.00  0.00    +0.145 HD
ENDBRANCH   5  10
BRANCH   8  15
ATOM     15  C   UNL     1       2.412  -0.154   2.982  0.00  0.00    +0.136 C 
ATOM     16  C   UNL     1       3.813  -0.371   2.409  0.00  0.00    +0.029 C 
BRANCH  15  17
ATOM     17  S   UNL     1       2.492   1.048   4.338  0.00  0.00    -0.085 S 
BRANCH  17  18
ATOM     18  C   UNL     1       3.459   0.238   5.569  0.00  0.00    +0.159 A 
ATOM     19  N   UNL     1       4.025  -0.962   5.557  0.00  0.00    -0.135 NA
ATOM     20  N   UNL     1       4.693  -1.391   6.537  0.00  0.00    -0.149 NA
ATOM     21  C   UNL     1       4.871  -0.680   7.631  0.00  0.00    +0.182 A 
ATOM     22  S   UNL     1       3.967   0.802   7.191  0.00  0.00    -0.048 S 
ENDBRANCH  17  18
ENDBRANCH  15  17
ENDBRANCH   8  15
TORSDOF 4
