REMARK  Name = ZINC44258577
REMARK  6 active torsions:
REMARK  status: ('A' for Active; 'I' for Inactive)
REMARK    1  A    between atoms: C_1  and  C_2
REMARK    2  A    between atoms: N_8  and  S_9
REMARK    3  A    between atoms: S_9  and  C_12
REMARK    4  A    between atoms: C_14  and  C_18
REMARK    5  A    between atoms: C_19  and  C_20
REMARK    6  A    between atoms: C_20  and  N_21
REMARK                            x       y       z     vdW  Elec       q    Type
REMARK                         _______ _______ _______ _____ _____    ______ ____
ROOT
ATOM      1  C   UNL     1       0.096  -6.599   1.100  0.00  0.00    +0.132 A 
ATOM      2  C   UNL     1      -1.090  -7.298   0.954  0.00  0.00    +0.049 A 
ATOM      3  C   UNL     1      -1.023  -8.664   0.662  0.00  0.00    +0.045 A 
ATOM      4  C   UNL     1       0.229  -9.265   0.530  0.00  0.00    +0.127 A 
ATOM      5  N   UNL     1       1.330  -8.558   0.678  0.00  0.00    -0.260 NA
ATOM      6  C   UNL     1       1.298  -7.266   0.948  0.00  0.00    +0.139 A 
ENDROOT
BRANCH   1   7
ATOM      7  S   UNL     1       0.075  -4.876   1.468  0.00  0.00    +0.102 S 
ATOM      8  O   UNL     1       1.319  -4.577   2.085  0.00  0.00    -0.146 OA
ATOM      9  O   UNL     1      -1.171  -4.611   2.098  0.00  0.00    -0.146 OA
BRANCH   7  17
ATOM     10  C   UNL     1      -0.018   1.503   0.010  0.00  0.00    +0.045 C 
ATOM     11  C   UNL     1       0.002  -0.004   0.002  0.00  0.00    -0.034 A 
ATOM     12  C   UNL     1       0.006  -0.696  -1.222  0.00  0.00    +0.008 A 
ATOM     13  C   UNL     1       0.024  -2.054  -1.226  0.00  0.00    +0.048 A 
ATOM     14  C   UNL     1       0.039  -2.750   0.006  0.00  0.00    +0.153 A 
ATOM     15  N   UNL     1       0.035  -2.044   1.185  0.00  0.00    -0.345 N 
ATOM     16  C   UNL     1       0.022  -0.681   1.169  0.00  0.00    +0.087 A 
ATOM     17  N   UNL     1       0.057  -4.067   0.023  0.00  0.00    -0.111 NA
ATOM     18  H   UNL     1       0.045  -2.517   2.031  0.00  0.00    +0.167 HD
ENDBRANCH   7  17
ENDBRANCH   1   7
BRANCH   3  19
ATOM     19  C   UNL     1      -2.220  -9.434   0.501  0.00  0.00    -0.067 C 
ATOM     20  C   UNL     1      -3.202 -10.065   0.369  0.00  0.00    -0.117 C 
BRANCH  20  21
ATOM     21  C   UNL     1      -4.432 -10.856   0.204  0.00  0.00    +0.005 C 
BRANCH  21  22
ATOM     22  N   UNL     1      -4.081 -12.251  -0.095  0.00  0.00    +0.385 N 
ATOM     23  H   UNL     1      -4.924 -12.793  -0.208  0.00  0.00    -0.089 HD
ATOM     24  H   UNL     1      -3.541 -12.286  -0.946  0.00  0.00    -0.089 HD
ATOM     25  H   UNL     1      -3.536 -12.630   0.665  0.00  0.00    -0.089 HD
ENDBRANCH  21  22
ENDBRANCH  20  21
ENDBRANCH   3  19
TORSDOF 5
