REMARK  Name = ZINC48837391
REMARK  4 active torsions:
REMARK  status: ('A' for Active; 'I' for Inactive)
REMARK    1  A    between atoms: C_1  and  N_2
REMARK    2  A    between atoms: N_2  and  C_3
REMARK    3  A    between atoms: C_8  and  C_9
REMARK    4  A    between atoms: C_18  and  N_21
REMARK                            x       y       z     vdW  Elec       q    Type
REMARK                         _______ _______ _______ _____ _____    ______ ____
ROOT
ATOM      1  C   UNL     1      -0.155  -0.858   1.209  0.00  0.00    +0.140 C 
ATOM      2  N   UNL     1       0.277  -0.030   0.080  0.00  0.00    -0.258 N 
ATOM      3  C   UNL     1       0.348  -0.560  -1.157  0.00  0.00    +0.309 C 
ATOM      4  O   UNL     1       0.110  -1.740  -1.327  0.00  0.00    -0.252 OA
ATOM      5  N   UNL     1       0.682   0.218  -2.205  0.00  0.00    -0.287 N 
ATOM      6  C   UNL     1       1.165  -0.381  -3.457  0.00  0.00    +0.109 C 
ATOM      7  C   UNL     1       0.311   0.143  -4.616  0.00  0.00    +0.017 C 
ATOM      8  C   UNL     1       0.326   1.674  -4.604  0.00  0.00    -0.013 C 
ATOM      9  C   UNL     1      -0.276   2.181  -3.292  0.00  0.00    -0.057 C 
ATOM     10  C   UNL     1       0.566   1.680  -2.120  0.00  0.00    +0.093 C 
ENDROOT
BRANCH   2  11
ATOM     11  C   UNL     1       0.614   1.304   0.285  0.00  0.00    +0.052 A 
ATOM     12  C   UNL     1       1.944   1.701   0.255  0.00  0.00    +0.024 A 
ATOM     13  C   UNL     1       2.276   3.025   0.459  0.00  0.00    +0.002 A 
ATOM     14  C   UNL     1       1.289   3.969   0.695  0.00  0.00    +0.001 A 
ATOM     15  C   UNL     1      -0.036   3.595   0.729  0.00  0.00    +0.017 A 
ATOM     16  C   UNL     1      -0.390   2.258   0.519  0.00  0.00    +0.085 A 
BRANCH  16  17
ATOM     17  C   UNL     1      -1.804   1.853   0.548  0.00  0.00    +0.388 C 
ATOM     18  O   UNL     1      -2.676   2.687   0.752  0.00  0.00    -0.241 OA
ATOM     19  O   UNL     1      -2.109   0.682   0.369  0.00  0.00    -0.241 OA
ENDBRANCH  16  17
ENDBRANCH   2  11
BRANCH   9  20
ATOM     20  N   UNL     1      -0.291   3.650  -3.295  0.00  0.00    +0.381 N 
ATOM     21  H   UNL     1      -0.848   3.979  -4.069  0.00  0.00    -0.090 HD
ATOM     22  H   UNL     1      -0.688   3.984  -2.429  0.00  0.00    -0.090 HD
ATOM     23  H   UNL     1       0.652   3.996  -3.387  0.00  0.00    -0.090 HD
ENDBRANCH   9  20
TORSDOF 3
