REMARK  Name = ZINC09184369
REMARK  6 active torsions:
REMARK  status: ('A' for Active; 'I' for Inactive)
REMARK    1  A    between atoms: C_4  and  N_11
REMARK    2  A    between atoms: C_5  and  C_7
REMARK    3  A    between atoms: C_12  and  C_14
REMARK    4  A    between atoms: C_14  and  O_15
REMARK    5  A    between atoms: O_15  and  C_16
REMARK    6  A    between atoms: C_21  and  P_22
REMARK                            x       y       z     vdW  Elec       q    Type
REMARK                         _______ _______ _______ _____ _____    ______ ____
ROOT
ATOM      1  N   UNL     1      -1.195   2.161   0.019  0.00  0.00    -0.282 N 
ATOM      2  C   UNL     1      -0.018   1.503   0.007  0.00  0.00    +0.255 C 
ATOM      3  O   UNL     1       1.024   2.124   0.005  0.00  0.00    -0.272 OA
ATOM      4  H   UNL     1      -2.027   1.667  -0.050  0.00  0.00    +0.155 HD
ENDROOT
BRANCH   1   8
ATOM      5  C   UNL     1      -1.256   6.313   0.357  0.00  0.00    +0.001 A 
ATOM      6  C   UNL     1      -0.242   5.693  -0.350  0.00  0.00    +0.002 A 
ATOM      7  C   UNL     1      -0.216   4.316  -0.459  0.00  0.00    +0.024 A 
ATOM      8  C   UNL     1      -1.215   3.555   0.133  0.00  0.00    +0.045 A 
ATOM      9  C   UNL     1      -2.232   4.181   0.842  0.00  0.00    +0.076 A 
ATOM     10  C   UNL     1      -2.250   5.557   0.952  0.00  0.00    +0.014 A 
BRANCH   9  11
ATOM     11  C   UNL     1      -3.315   3.358   1.492  0.00  0.00    +0.419 C 
ATOM     12  F   UNL     1      -4.218   4.206   2.142  0.00  0.00    -0.166 F 
ATOM     13  F   UNL     1      -3.990   2.620   0.513  0.00  0.00    -0.166 F 
ATOM     14  F   UNL     1      -2.742   2.485   2.422  0.00  0.00    -0.166 F 
ENDBRANCH   9  11
ENDBRANCH   1   8
BRANCH   2  15
ATOM     15  C   UNL     1       0.003  -0.004  -0.012  0.00  0.00    +0.324 C 
BRANCH  15  16
ATOM     16  O   UNL     1       1.356  -0.461  -0.029  0.00  0.00    -0.482 OA
BRANCH  16  17
ATOM     17  C   UNL     1       1.553  -1.806  -0.048  0.00  0.00    +0.136 A 
ATOM     18  C   UNL     1       0.465  -2.667  -0.043  0.00  0.00    +0.046 A 
ATOM     19  C   UNL     1       0.667  -4.033  -0.067  0.00  0.00    +0.004 A 
ATOM     20  C   UNL     1       1.953  -4.543  -0.085  0.00  0.00    +0.001 A 
ATOM     21  C   UNL     1       3.038  -3.687  -0.084  0.00  0.00    +0.020 A 
ATOM     22  C   UNL     1       2.841  -2.319  -0.065  0.00  0.00    +0.109 A 
BRANCH  22  23
ATOM     23  P   UNL     1       4.266  -1.197  -0.063  0.00  0.00    +0.420 P 
ATOM     24  O   UNL     1       4.665  -0.909   1.332  0.00  0.00    -0.248 OA
ATOM     25  O   UNL     1       5.494  -1.887  -0.842  0.00  0.00    -0.135 OA
ATOM     26  O   UNL     1       3.867   0.177  -0.802  0.00  0.00    -0.135 OA
ENDBRANCH  22  23
ENDBRANCH  16  17
ENDBRANCH  15  16
ENDBRANCH   2  15
TORSDOF 6
