REMARK  Name = ZINC20849499
REMARK  5 active torsions:
REMARK  status: ('A' for Active; 'I' for Inactive)
REMARK    1  A    between atoms: C_1  and  C_2
REMARK    2  A    between atoms: N_10  and  N_11
REMARK    3  A    between atoms: N_11  and  C_12
REMARK    4  A    between atoms: C_18  and  C_20
REMARK    5  A    between atoms: C_20  and  N_22
REMARK                            x       y       z     vdW  Elec       q    Type
REMARK                         _______ _______ _______ _____ _____    ______ ____
ROOT
ATOM      1  C   UNL     1      -0.099   5.368   0.028  0.00  0.00    +0.047 C 
ATOM      2  C   UNL     1      -0.059   3.862   0.021  0.00  0.00    -0.008 A 
ATOM      3  C   UNL     1      -1.237   3.138   0.030  0.00  0.00    +0.007 A 
ATOM      4  C   UNL     1      -1.214   1.753   0.017  0.00  0.00    +0.001 A 
ATOM      5  C   UNL     1      -0.013   1.076   0.008  0.00  0.00    +0.011 A 
ATOM      6  C   UNL     1       1.186   1.795   0.000  0.00  0.00    +0.018 A 
ATOM      7  C   UNL     1       1.158   3.201   0.004  0.00  0.00    +0.140 A 
ATOM      8  O   UNL     1       2.322   3.899  -0.009  0.00  0.00    -0.437 OA
ATOM      9  C   UNL     1       3.414   3.285   0.533  0.00  0.00    +0.221 A 
ATOM     10  N   UNL     1       4.263   3.948   1.268  0.00  0.00    -0.276 N 
ATOM     11  C   UNL     1       3.604   1.842   0.259  0.00  0.00    +0.065 A 
ATOM     12  C   UNL     1       2.478   1.099  -0.009  0.00  0.00    +0.027 A 
ATOM     13  H   UNL     1       5.137   3.436   1.696  0.00  0.00    +0.187 HD
ENDROOT
BRANCH  10  14
ATOM     14  N   UNL     1       4.062   5.313   1.512  0.00  0.00    -0.258 N 
ATOM     15  H   UNL     1       3.188   5.825   1.083  0.00  0.00    +0.172 HD
BRANCH  14  16
ATOM     16  C   UNL     1       4.969   6.021   2.297  0.00  0.00    +0.046 A 
ATOM     17  C   UNL     1       6.072   5.374   2.844  0.00  0.00    +0.024 A 
ATOM     18  C   UNL     1       6.971   6.081   3.617  0.00  0.00    +0.002 A 
ATOM     19  C   UNL     1       6.770   7.428   3.857  0.00  0.00    +0.000 A 
ATOM     20  C   UNL     1       5.672   8.074   3.319  0.00  0.00    +0.002 A 
ATOM     21  C   UNL     1       4.771   7.376   2.540  0.00  0.00    +0.024 A 
ENDBRANCH  14  16
ENDBRANCH  10  14
BRANCH  11  22
ATOM     22  C   UNL     1       4.941   1.229   0.273  0.00  0.00    +0.082 C 
ATOM     23  S   UNL     1       5.120  -0.443  -0.048  0.00  0.00    -0.035 S 
BRANCH  22  24
ATOM     24  N   UNL     1       6.025   1.984   0.539  0.00  0.00    -0.352 N 
ATOM     25  H   UNL     1       7.025   1.526   0.549  0.00  0.00    +0.143 HD
ATOM     26  H   UNL     1       5.911   3.058   0.745  0.00  0.00    +0.143 HD
ENDBRANCH  22  24
ENDBRANCH  11  22
TORSDOF 4
