REMARK  Name = ZINC12555717
REMARK  3 active torsions:
REMARK  status: ('A' for Active; 'I' for Inactive)
REMARK    1  A    between atoms: C_5  and  C_7
REMARK    2  A    between atoms: C_8  and  C_9
REMARK    3  A    between atoms: C_19  and  N_23
REMARK                            x       y       z     vdW  Elec       q    Type
REMARK                         _______ _______ _______ _____ _____    ______ ____
ROOT
ATOM      1  C   UNL     1       0.305   1.133   0.647  0.00  0.00    +0.240 C 
ATOM      2  O   UNL     1       0.314  -0.084   0.664  0.00  0.00    -0.271 OA
ATOM      3  N   UNL     1      -0.861   1.796   0.512  0.00  0.00    -0.293 N 
ATOM      4  C   UNL     1      -2.138   1.078   0.382  0.00  0.00    +0.113 C 
ATOM      5  C   UNL     1      -3.023   1.388   1.590  0.00  0.00    +0.056 C 
ATOM      6  C   UNL     1      -3.050   2.896   1.825  0.00  0.00    -0.022 A 
ATOM      7  C   UNL     1      -2.083   3.694   1.316  0.00  0.00    +0.013 A 
ATOM      8  S   UNL     1      -2.509   5.337   1.833  0.00  0.00    -0.072 S 
ATOM      9  C   UNL     1      -3.982   4.959   2.727  0.00  0.00    +0.114 A 
ATOM     10  C   UNL     1      -4.095   3.552   2.594  0.00  0.00    +0.051 A 
ATOM     11  C   UNL     1      -5.214   2.935   3.224  0.00  0.00    +0.128 A 
ATOM     12  N   UNL     1      -6.038   3.754   3.875  0.00  0.00    -0.220 NA
ATOM     13  C   UNL     1      -5.867   5.058   3.957  0.00  0.00    +0.224 A 
ATOM     14  N   UNL     1      -4.848   5.696   3.393  0.00  0.00    -0.228 NA
ATOM     15  C   UNL     1      -0.908   3.271   0.494  0.00  0.00    +0.150 C 
ENDROOT
BRANCH  11  16
ATOM     16  N   UNL     1      -5.431   1.570   3.163  0.00  0.00    -0.343 N 
ATOM     17  H   UNL     1      -4.705   0.973   2.925  0.00  0.00    +0.144 HD
ATOM     18  H   UNL     1      -6.311   1.210   3.358  0.00  0.00    +0.144 HD
ENDBRANCH  11  16
BRANCH   1  20
ATOM     19  C   UNL     1       2.727   1.214   0.898  0.00  0.00    +0.016 C 
ATOM     20  C   UNL     1       1.559   1.877   0.768  0.00  0.00    +0.068 C 
BRANCH  19  25
ATOM     21  C   UNL     1       5.167   4.053   1.115  0.00  0.00    +0.001 A 
ATOM     22  C   UNL     1       6.364   3.370   1.248  0.00  0.00    +0.003 A 
ATOM     23  C   UNL     1       6.382   1.987   1.267  0.00  0.00    +0.039 A 
ATOM     24  C   UNL     1       5.201   1.276   1.160  0.00  0.00    +0.131 A 
ATOM     25  C   UNL     1       3.987   1.961   1.019  0.00  0.00    +0.010 A 
ATOM     26  C   UNL     1       3.981   3.360   1.001  0.00  0.00    +0.011 A 
ATOM     27  F   UNL     1       5.219  -0.075   1.185  0.00  0.00    -0.205 F 
ENDBRANCH  19  25
ENDBRANCH   1  20
TORSDOF 3
