REMARK  Name = ZINC48822053
REMARK  8 active torsions:
REMARK  status: ('A' for Active; 'I' for Inactive)
REMARK    1  A    between atoms: C_1  and  C_2
REMARK    2  A    between atoms: C_2  and  C_3
REMARK    3  A    between atoms: N_7  and  C_8
REMARK    4  A    between atoms: C_8  and  C_10
REMARK    5  A    between atoms: C_8  and  C_11
REMARK    6  A    between atoms: N_13  and  C_14
REMARK    7  A    between atoms: C_19  and  C_20
REMARK    8  A    between atoms: C_20  and  N_22
REMARK                            x       y       z     vdW  Elec       q    Type
REMARK                         _______ _______ _______ _____ _____    ______ ____
ROOT
ATOM      1  C   UNL     1      -1.723   0.169  -3.692  0.00  0.00    +0.240 C 
ATOM      2  O   UNL     1      -0.836   0.922  -4.032  0.00  0.00    -0.273 OA
ATOM      3  N   UNL     1      -2.916   0.207  -4.317  0.00  0.00    -0.283 N 
ATOM      4  H   UNL     1      -3.602  -0.441  -4.093  0.00  0.00    +0.155 HD
ENDROOT
BRANCH   3   5
ATOM      5  C   UNL     1      -3.164   1.177  -5.287  0.00  0.00    +0.043 A 
ATOM      6  C   UNL     1      -2.247   1.394  -6.307  0.00  0.00    +0.024 A 
ATOM      7  C   UNL     1      -2.494   2.355  -7.266  0.00  0.00    +0.002 A 
ATOM      8  C   UNL     1      -3.655   3.110  -7.220  0.00  0.00    +0.001 A 
ATOM      9  C   UNL     1      -4.577   2.909  -6.215  0.00  0.00    +0.012 A 
ATOM     10  C   UNL     1      -4.343   1.935  -5.240  0.00  0.00    +0.024 A 
BRANCH  10  11
ATOM     11  C   UNL     1      -5.327   1.710  -4.167  0.00  0.00    +0.079 C 
ATOM     12  S   UNL     1      -4.952   0.660  -2.868  0.00  0.00    -0.035 S 
BRANCH  11  13
ATOM     13  N   UNL     1      -6.522   2.331  -4.207  0.00  0.00    -0.352 N 
ATOM     14  H   UNL     1      -6.735   2.926  -4.943  0.00  0.00    +0.143 HD
ATOM     15  H   UNL     1      -7.170   2.183  -3.500  0.00  0.00    +0.143 HD
ENDBRANCH  11  13
ENDBRANCH  10  11
ENDBRANCH   3   5
BRANCH   1  16
ATOM     16  C   UNL     1      -1.492  -0.810  -2.569  0.00  0.00    +0.171 C 
ATOM     17  C   UNL     1      -1.682  -2.236  -3.089  0.00  0.00    +0.041 C 
BRANCH  16  22
ATOM     18  C   UNL     1       0.223  -0.325  -0.797  0.00  0.00    +0.087 A 
ATOM     19  N   UNL     1       1.526  -0.287  -0.721  0.00  0.00    -0.350 N 
ATOM     20  C   UNL     1       2.047  -0.583  -1.921  0.00  0.00    +0.101 A 
ATOM     21  C   UNL     1       1.030  -0.812  -2.772  0.00  0.00    +0.105 A 
ATOM     22  N   UNL     1      -0.127  -0.654  -2.059  0.00  0.00    -0.324 N 
ATOM     23  H   UNL     1       2.036  -0.078   0.077  0.00  0.00    +0.166 HD
BRANCH  18  25
ATOM     24  C   UNL     1      -0.983   1.454   0.441  0.00  0.00    +0.012 C 
ATOM     25  C   UNL     1      -0.731  -0.052   0.337  0.00  0.00    +0.069 C 
ENDBRANCH  18  25
ENDBRANCH  16  22
ENDBRANCH   1  16
TORSDOF 6
