REMARK  Name = ZINC40590488
REMARK  6 active torsions:
REMARK  status: ('A' for Active; 'I' for Inactive)
REMARK    1  A    between atoms: C_1  and  C_2
REMARK    2  A    between atoms: C_2  and  C_3
REMARK    3  A    between atoms: C_2  and  N_4
REMARK    4  A    between atoms: N_4  and  C_5
REMARK    5  A    between atoms: C_5  and  C_6
REMARK    6  A    between atoms: N_11  and  C_12
REMARK                            x       y       z     vdW  Elec       q    Type
REMARK                         _______ _______ _______ _____ _____    ______ ____
ROOT
ATOM      1  N   UNL     1      -1.387  -0.498  -0.146  0.00  0.00    -0.272 N 
ATOM      2  C   UNL     1      -2.318  -0.153   0.765  0.00  0.00    +0.303 C 
ATOM      3  O   UNL     1      -3.479  -0.475   0.601  0.00  0.00    -0.253 OA
ATOM      4  N   UNL     1      -1.962   0.549   1.860  0.00  0.00    -0.296 N 
ATOM      5  H   UNL     1      -1.052   0.870   1.955  0.00  0.00    +0.151 HD
ENDROOT
BRANCH   4   6
ATOM      6  C   UNL     1      -2.950   0.827   2.905  0.00  0.00    +0.077 C 
ATOM      7  C   UNL     1      -3.757   2.062   2.518  0.00  0.00    +0.045 C 
ATOM      8  C   UNL     1      -4.961   2.213   3.451  0.00  0.00    +0.167 C 
ATOM      9  S   UNL     1      -4.363   2.482   5.145  0.00  0.00    -0.031 S 
ATOM     10  O   UNL     1      -5.458   2.342   6.039  0.00  0.00    -0.174 OA
ATOM     11  O   UNL     1      -3.597   3.679   5.170  0.00  0.00    -0.174 OA
ATOM     12  C   UNL     1      -3.242   1.070   5.379  0.00  0.00    +0.167 C 
ATOM     13  C   UNL     1      -2.229   1.047   4.232  0.00  0.00    +0.045 C 
ENDBRANCH   4   6
BRANCH   1  15
ATOM     14  C   UNL     1       0.951  -1.206  -0.019  0.00  0.00    +0.028 C 
ATOM     15  C   UNL     1      -0.011  -0.016  -0.007  0.00  0.00    +0.072 C 
ATOM     16  C   UNL     1       0.322   0.921  -1.170  0.00  0.00    +0.028 C 
ENDBRANCH   1  15
BRANCH   1  17
ATOM     17  C   UNL     1      -1.751  -1.356  -1.276  0.00  0.00    +0.234 C 
BRANCH  17  18
ATOM     18  C   UNL     1      -1.551  -2.800  -0.896  0.00  0.00    +0.373 C 
ATOM     19  O   UNL     1      -1.141  -3.087   0.216  0.00  0.00    -0.245 OA
ATOM     20  O   UNL     1      -1.798  -3.683  -1.700  0.00  0.00    -0.245 OA
ENDBRANCH  17  18
ENDBRANCH   1  17
TORSDOF 4
