REMARK  Name = ZINC67473397
REMARK  6 active torsions:
REMARK  status: ('A' for Active; 'I' for Inactive)
REMARK    1  A    between atoms: C_1  and  C_2
REMARK    2  A    between atoms: C_2  and  C_3
REMARK    3  A    between atoms: C_2  and  N_4
REMARK    4  A    between atoms: C_5  and  C_7
REMARK    5  A    between atoms: C_10  and  N_28
REMARK    6  A    between atoms: C_14  and  C_16
REMARK                            x       y       z     vdW  Elec       q    Type
REMARK                         _______ _______ _______ _____ _____    ______ ____
ROOT
ATOM      1  C   UNL     1       2.753  -1.077  -2.601  0.00  0.00    +0.161 C 
ATOM      2  C   UNL     1       2.694  -2.600  -2.842  0.00  0.00    +0.017 C 
ATOM      3  C   UNL     1       4.086  -2.910  -3.451  0.00  0.00    -0.055 C 
ATOM      4  C   UNL     1       4.992  -1.918  -2.679  0.00  0.00    +0.093 C 
ATOM      5  N   UNL     1       4.172  -0.699  -2.525  0.00  0.00    -0.287 N 
ATOM      6  C   UNL     1       4.644   0.551  -2.345  0.00  0.00    +0.252 C 
ATOM      7  O   UNL     1       3.875   1.493  -2.319  0.00  0.00    -0.270 OA
ENDROOT
BRANCH   6   8
ATOM      8  C   UNL     1       6.088   0.775  -2.180  0.00  0.00    +0.101 A 
ATOM      9  C   UNL     1       6.720   0.483  -0.977  0.00  0.00    +0.023 A 
ATOM     10  C   UNL     1       8.099   0.701  -0.846  0.00  0.00    -0.027 A 
ATOM     11  C   UNL     1       8.806   1.191  -1.890  0.00  0.00    +0.022 A 
ATOM     12  N   UNL     1       8.185   1.488  -3.068  0.00  0.00    -0.325 N 
ATOM     13  H   UNL     1       8.710   1.849  -3.799  0.00  0.00    +0.169 HD
ATOM     14  C   UNL     1       6.869   1.290  -3.247  0.00  0.00    +0.261 A 
ATOM     15  O   UNL     1       6.349   1.555  -4.316  0.00  0.00    -0.267 OA
ATOM     16  C   UNL     1      10.294   1.427  -1.825  0.00  0.00    +0.053 C 
ATOM     17  C   UNL     1      10.770   1.479  -0.375  0.00  0.00    +0.006 C 
ATOM     18  C   UNL     1      10.240   0.236   0.350  0.00  0.00    +0.005 C 
ATOM     19  C   UNL     1       8.725   0.372   0.484  0.00  0.00    +0.037 C 
ENDBRANCH   6   8
BRANCH   1  21
ATOM     20  N   UNL     1       0.718  -0.644  -1.263  0.00  0.00    -0.311 N 
ATOM     21  C   UNL     1       2.062  -0.735  -1.306  0.00  0.00    +0.234 C 
ATOM     22  O   UNL     1       2.715  -0.542  -0.302  0.00  0.00    -0.274 OA
ATOM     23  H   UNL     1       0.196  -0.798  -2.066  0.00  0.00    +0.149 HD
BRANCH  20  25
ATOM     24  C   UNL     1       0.008   1.208   0.168  0.00  0.00    +0.027 C 
ATOM     25  C   UNL     1       0.046  -0.312  -0.005  0.00  0.00    +0.067 C 
ATOM     26  C   UNL     1      -1.383  -0.858  -0.030  0.00  0.00    +0.027 C 
ENDBRANCH  20  25
ENDBRANCH   1  21
BRANCH   3  27
ATOM     27  N   UNL     1       4.479  -4.300  -3.185  0.00  0.00    +0.381 N 
ATOM     28  H   UNL     1       3.801  -4.926  -3.594  0.00  0.00    -0.090 HD
ATOM     29  H   UNL     1       5.386  -4.477  -3.591  0.00  0.00    -0.090 HD
ATOM     30  H   UNL     1       4.521  -4.453  -2.189  0.00  0.00    -0.090 HD
ENDBRANCH   3  27
TORSDOF 4
