REMARK  Name = ZINC44460402
REMARK  8 active torsions:
REMARK  status: ('A' for Active; 'I' for Inactive)
REMARK    1  A    between atoms: C_1  and  C_2
REMARK    2  A    between atoms: C_5  and  O_32
REMARK    3  A    between atoms: C_16  and  O_31
REMARK    4  A    between atoms: C_19  and  C_30
REMARK    5  A    between atoms: C_24  and  C_25
REMARK    6  A    between atoms: C_24  and  O_29
REMARK    7  A    between atoms: C_25  and  C_27
REMARK    8  A    between atoms: C_27  and  O_28
REMARK                            x       y       z     vdW  Elec       q    Type
REMARK                         _______ _______ _______ _____ _____    ______ ____
ROOT
ATOM      1  C   UNL     1       0.468   1.606  -0.546  0.00  0.00    +0.012 C 
ATOM      2  C   UNL     1       0.322   0.072  -0.387  0.00  0.00    -0.024 C 
ATOM      3  C   UNL     1       1.031  -0.600  -1.554  0.00  0.00    +0.010 C 
ATOM      4  C   UNL     1       2.532  -0.308  -1.549  0.00  0.00    +0.032 C 
ATOM      5  C   UNL     1       3.142  -0.779  -0.228  0.00  0.00    +0.115 C 
ATOM      6  C   UNL     1       2.491  -0.011   0.922  0.00  0.00    +0.035 C 
ATOM      7  C   UNL     1       0.989  -0.263   0.945  0.00  0.00    -0.002 C 
ATOM      8  C   UNL     1       0.709  -1.712   1.342  0.00  0.00    +0.004 C 
ATOM      9  C   UNL     1      -0.798  -1.815   1.597  0.00  0.00    +0.004 C 
ATOM     10  C   UNL     1      -1.533  -1.591   0.277  0.00  0.00    -0.001 C 
ATOM     11  C   UNL     1      -1.164  -0.258  -0.373  0.00  0.00    +0.027 C 
ATOM     12  C   UNL     1      -1.834  -0.110  -1.732  0.00  0.00    +0.119 C 
ATOM     13  C   UNL     1      -1.665  -1.320  -2.656  0.00  0.00    +0.041 C 
ATOM     14  C   UNL     1      -2.139  -2.565  -1.943  0.00  0.00    +0.009 C 
ATOM     15  C   UNL     1      -1.276  -2.734  -0.670  0.00  0.00    +0.002 C 
ATOM     16  C   UNL     1      -1.693  -4.135  -0.199  0.00  0.00    +0.008 C 
ATOM     17  C   UNL     1      -1.746  -4.937  -1.529  0.00  0.00    +0.043 C 
ATOM     18  C   UNL     1      -1.907  -3.896  -2.665  0.00  0.00    +0.131 C 
ATOM     19  C   UNL     1      -3.628  -2.459  -1.612  0.00  0.00    +0.015 C 
ENDROOT
BRANCH  18  20
ATOM     20  C   UNL     1      -3.102  -4.235  -3.519  0.00  0.00    +0.190 C 
ATOM     21  O   UNL     1      -3.968  -4.955  -3.086  0.00  0.00    -0.292 OA
BRANCH  20  22
ATOM     22  C   UNL     1      -3.214  -3.674  -4.913  0.00  0.00    +0.233 C 
BRANCH  22  23
ATOM     23  O   UNL     1      -4.425  -4.136  -5.516  0.00  0.00    -0.387 OA
ATOM     24  H   UNL     1      -4.564  -3.814  -6.417  0.00  0.00    +0.210 HD
ENDBRANCH  22  23
ENDBRANCH  20  22
ENDBRANCH  18  20
BRANCH  18  25
ATOM     25  O   UNL     1      -0.725  -3.833  -3.460  0.00  0.00    -0.380 OA
ATOM     26  H   UNL     1      -0.529  -4.649  -3.940  0.00  0.00    +0.211 HD
ENDBRANCH  18  25
BRANCH  12  27
ATOM     27  O   UNL     1      -1.414   1.064  -2.425  0.00  0.00    -0.391 OA
ATOM     28  H   UNL     1      -1.827   1.179  -3.292  0.00  0.00    +0.210 HD
ENDBRANCH  12  27
BRANCH   5  29
ATOM     29  O   UNL     1       4.549  -0.524  -0.236  0.00  0.00    -0.392 OA
ATOM     30  H   UNL     1       5.026  -0.973  -0.947  0.00  0.00    +0.210 HD
ENDBRANCH   5  29
TORSDOF 6
