REMARK  Name = ZINC05376388
REMARK  4 active torsions:
REMARK  status: ('A' for Active; 'I' for Inactive)
REMARK    1  A    between atoms: C_3  and  O_24
REMARK    2  A    between atoms: C_4  and  O_23
REMARK    3  A    between atoms: C_6  and  C_7
REMARK    4  A    between atoms: N_13  and  C_14
REMARK                            x       y       z     vdW  Elec       q    Type
REMARK                         _______ _______ _______ _____ _____    ______ ____
ROOT
ATOM      1  C   UNL     1       3.261   6.087  -3.545  0.00  0.00    +0.028 C 
ATOM      2  C   UNL     1       3.625   5.068  -2.725  0.00  0.00    +0.078 C 
ATOM      3  C   UNL     1       4.901   4.845  -2.020  0.00  0.00    +0.256 C 
ATOM      4  O   UNL     1       5.829   5.626  -2.120  0.00  0.00    -0.269 OA
ATOM      5  N   UNL     1       4.992   3.756  -1.274  0.00  0.00    -0.260 N 
ATOM      6  C   UNL     1       3.930   2.883  -1.175  0.00  0.00    +0.166 C 
ATOM      7  N   UNL     1       3.853   1.767  -0.485  0.00  0.00    -0.226 NA
ATOM      8  S   UNL     1       2.689   3.633  -2.216  0.00  0.00    -0.049 S 
ATOM      9  H   UNL     1       5.813   3.571  -0.793  0.00  0.00    +0.157 HD
ENDROOT
BRANCH   7  10
ATOM     10  C   UNL     1       2.703   1.026  -0.511  0.00  0.00    +0.068 A 
ATOM     11  C   UNL     1       2.765  -0.361  -0.670  0.00  0.00    +0.029 A 
ATOM     12  C   UNL     1       1.602  -1.102  -0.695  0.00  0.00    +0.023 A 
ATOM     13  C   UNL     1       0.374  -0.476  -0.562  0.00  0.00    +0.059 A 
ATOM     14  C   UNL     1       0.305   0.899  -0.404  0.00  0.00    +0.061 A 
ATOM     15  C   UNL     1       1.462   1.652  -0.378  0.00  0.00    +0.049 A 
ATOM     16 CL   UNL     1      -1.239   1.676  -0.245  0.00  0.00    -0.082 Cl
ATOM     17 CL   UNL     1      -1.084  -1.417  -0.595  0.00  0.00    -0.082 Cl
ENDBRANCH   7  10
BRANCH   1  23
ATOM     18  C   UNL     1       1.436   7.185  -4.826  0.00  0.00    +0.012 A 
ATOM     19  C   UNL     1       0.242   7.122  -5.511  0.00  0.00    +0.050 A 
ATOM     20  C   UNL     1      -0.415   5.908  -5.657  0.00  0.00    +0.158 A 
ATOM     21  C   UNL     1       0.129   4.746  -5.111  0.00  0.00    +0.159 A 
ATOM     22  C   UNL     1       1.327   4.798  -4.428  0.00  0.00    +0.057 A 
ATOM     23  C   UNL     1       1.989   6.023  -4.276  0.00  0.00    -0.020 A 
BRANCH  21  24
ATOM     24  O   UNL     1      -0.519   3.559  -5.257  0.00  0.00    -0.503 OA
ATOM     25  H   UNL     1      -0.268   3.068  -6.051  0.00  0.00    +0.292 HD
ENDBRANCH  21  24
BRANCH  20  26
ATOM     26  O   UNL     1      -1.592   5.852  -6.334  0.00  0.00    -0.503 OA
ATOM     27  H   UNL     1      -1.493   5.688  -7.282  0.00  0.00    +0.292 HD
ENDBRANCH  20  26
ENDBRANCH   1  23
TORSDOF 4
