REMARK  Name = ZINC08555966
REMARK  7 active torsions:
REMARK  status: ('A' for Active; 'I' for Inactive)
REMARK    1  A    between atoms: C_1  and  C_2
REMARK    2  A    between atoms: C_3  and  N_11
REMARK    3  A    between atoms: C_4  and  O_10
REMARK    4  A    between atoms: N_5  and  C_7
REMARK    5  A    between atoms: C_7  and  N_8
REMARK    6  A    between atoms: N_12  and  C_13
REMARK    7  A    between atoms: C_18  and  C_19
REMARK                            x       y       z     vdW  Elec       q    Type
REMARK                         _______ _______ _______ _____ _____    ______ ____
ROOT
ATOM      1  C   UNL     1      -0.018   1.503   0.010  0.00  0.00    +0.070 C 
ATOM      2  C   UNL     1       0.002  -0.004   0.002  0.00  0.00    +0.091 A 
ATOM      3  C   UNL     1       0.008  -0.826  -1.151  0.00  0.00    +0.170 A 
ATOM      4  C   UNL     1       0.028  -2.144  -0.712  0.00  0.00    +0.245 A 
ATOM      5  N   UNL     1       0.034  -2.111   0.648  0.00  0.00    -0.177 N 
ATOM      6  N   UNL     1       0.023  -0.772   1.055  0.00  0.00    -0.165 NA
ENDROOT
BRANCH   5   7
ATOM      7  C   UNL     1       0.053  -3.183   1.464  0.00  0.00    +0.167 C 
ATOM      8  S   UNL     1       0.071  -4.762   0.803  0.00  0.00    -0.014 S 
BRANCH   7   9
ATOM      9  N   UNL     1       0.057  -3.013   2.801  0.00  0.00    -0.337 N 
ATOM     10  H   UNL     1       0.046  -2.118   3.176  0.00  0.00    +0.144 HD
ATOM     11  H   UNL     1       0.070  -3.785   3.389  0.00  0.00    +0.144 HD
ENDBRANCH   7   9
ENDBRANCH   5   7
BRANCH   4  12
ATOM     12  O   UNL     1       0.040  -3.252  -1.491  0.00  0.00    -0.491 OA
ATOM     13  H   UNL     1       0.926  -3.561  -1.722  0.00  0.00    +0.294 HD
ENDBRANCH   4  12
BRANCH   3  14
ATOM     14  N   UNL     1      -0.004  -0.404  -2.445  0.00  0.00    -0.142 NA
ATOM     15  N   UNL     1       0.004  -1.266  -3.404  0.00  0.00    -0.149 NA
BRANCH  15  16
ATOM     16  C   UNL     1      -0.009  -0.842  -4.705  0.00  0.00    +0.098 A 
ATOM     17  C   UNL     1      -0.023   0.524  -4.998  0.00  0.00    +0.030 A 
ATOM     18  C   UNL     1      -0.035   0.944  -6.311  0.00  0.00    +0.002 A 
ATOM     19  C   UNL     1      -0.033   0.017  -7.338  0.00  0.00    +0.001 A 
ATOM     20  C   UNL     1      -0.019  -1.338  -7.056  0.00  0.00    +0.014 A 
ATOM     21  C   UNL     1      -0.001  -1.772  -5.747  0.00  0.00    +0.082 A 
BRANCH  21  22
ATOM     22  C   UNL     1       0.021  -3.248  -5.441  0.00  0.00    +0.419 C 
ATOM     23  F   UNL     1       0.026  -3.972  -6.638  0.00  0.00    -0.166 F 
ATOM     24  F   UNL     1       1.171  -3.555  -4.706  0.00  0.00    -0.166 F 
ATOM     25  F   UNL     1      -1.113  -3.587  -4.695  0.00  0.00    -0.166 F 
ENDBRANCH  21  22
ENDBRANCH  15  16
ENDBRANCH   3  14
TORSDOF 6
