REMARK  Name = ZINC63213878
REMARK  4 active torsions:
REMARK  status: ('A' for Active; 'I' for Inactive)
REMARK    1  A    between atoms: C_2  and  S_8
REMARK    2  A    between atoms: S_8  and  N_11
REMARK    3  A    between atoms: N_11  and  C_12
REMARK    4  A    between atoms: C_19  and  N_21
REMARK                            x       y       z     vdW  Elec       q    Type
REMARK                         _______ _______ _______ _____ _____    ______ ____
ROOT
ATOM      1  N   UNL     1       1.769   4.275   1.494  0.00  0.00    -0.188 NA
ATOM      2  H   UNL     1       1.147   4.610   2.159  0.00  0.00    +0.148 HD
ENDROOT
BRANCH   1   3
ATOM      3  C   UNL     1       3.173   4.057   1.850  0.00  0.00    +0.062 C 
ATOM      4  C   UNL     1       3.954   5.365   1.620  0.00  0.00    +0.019 C 
ATOM      5  C   UNL     1       5.279   5.379   2.333  0.00  0.00    +0.001 C 
ATOM      6  C   UNL     1       5.091   6.067   3.700  0.00  0.00    -0.000 C 
ATOM      7  C   UNL     1       4.513   5.177   4.696  0.00  0.00    -0.002 C 
ATOM      8  C   UNL     1       3.104   4.690   4.301  0.00  0.00    -0.015 C 
ATOM      9  C   UNL     1       3.246   3.570   3.310  0.00  0.00    -0.056 C 
BRANCH   9  10
ATOM     10  N   UNL     1       2.170   2.597   3.540  0.00  0.00    +0.381 N 
ATOM     11  H   UNL     1       2.285   1.814   2.914  0.00  0.00    -0.090 HD
ATOM     12  H   UNL     1       2.209   2.272   4.495  0.00  0.00    -0.090 HD
ATOM     13  H   UNL     1       1.277   3.035   3.371  0.00  0.00    -0.090 HD
ENDBRANCH   9  10
ENDBRANCH   1   3
BRANCH   1  14
ATOM     14  S   UNL     1       1.245   3.951  -0.043  0.00  0.00    +0.061 S 
ATOM     15  O   UNL     1       2.165   4.576  -0.926  0.00  0.00    -0.153 OA
ATOM     16  O   UNL     1      -0.147   4.236  -0.066  0.00  0.00    -0.153 OA
BRANCH  14  18
ATOM     17  C   UNL     1       2.306   1.719  -1.220  0.00  0.00    +0.057 A 
ATOM     18  C   UNL     1       1.407   2.214  -0.293  0.00  0.00    +0.132 A 
ATOM     19  C   UNL     1       0.652   1.342   0.421  0.00  0.00    +0.106 A 
ATOM     20  S   UNL     1       1.206  -0.232  -0.213  0.00  0.00    -0.063 S 
ATOM     21  C   UNL     1       2.406   0.377  -1.387  0.00  0.00    +0.081 A 
ATOM     22 CL   UNL     1       3.433  -0.517  -2.464  0.00  0.00    -0.076 Cl
ATOM     23 CL   UNL     1      -0.542   1.671   1.637  0.00  0.00    -0.074 Cl
ENDBRANCH  14  18
ENDBRANCH   1  14
TORSDOF 4
