REMARK  Name = ZINC05411396
REMARK  7 active torsions:
REMARK  status: ('A' for Active; 'I' for Inactive)
REMARK    1  A    between atoms: C_1  and  C_2
REMARK    2  A    between atoms: C_1  and  O_24
REMARK    3  A    between atoms: C_4  and  O_23
REMARK    4  A    between atoms: C_6  and  O_22
REMARK    5  A    between atoms: C_8  and  N_14
REMARK    6  A    between atoms: C_10  and  O_13
REMARK    7  A    between atoms: C_16  and  C_18
REMARK                            x       y       z     vdW  Elec       q    Type
REMARK                         _______ _______ _______ _____ _____    ______ ____
ROOT
ATOM      1  C   UNL     1       1.145   3.085   0.008  0.00  0.00    +0.178 C 
ATOM      2  C   UNL     1       2.528   3.727  -0.128  0.00  0.00    +0.176 C 
ATOM      3  C   UNL     1       2.384   5.251  -0.057  0.00  0.00    +0.171 C 
ATOM      4  C   UNL     1       1.695   5.627   1.258  0.00  0.00    +0.160 C 
ATOM      5  C   UNL     1       0.344   4.911   1.340  0.00  0.00    +0.270 C 
ATOM      6  O   UNL     1       0.547   3.501   1.237  0.00  0.00    -0.341 OA
ENDROOT
BRANCH   4   7
ATOM      7  N   UNL     1       1.485   7.076   1.304  0.00  0.00    -0.298 N 
ATOM      8  H   UNL     1       1.424   7.583   0.479  0.00  0.00    +0.150 HD
ATOM      9  C   UNL     1       1.378   7.704   2.491  0.00  0.00    +0.318 C 
ATOM     10  O   UNL     1       1.455   7.070   3.522  0.00  0.00    -0.266 OA
BRANCH   9  11
ATOM     11  C   UNL     1       1.162   9.195   2.538  0.00  0.00    +0.469 C 
ATOM     12  F   UNL     1       1.083   9.613   3.871  0.00  0.00    -0.162 F 
ATOM     13  F   UNL     1       2.232   9.841   1.909  0.00  0.00    -0.162 F 
ATOM     14  F   UNL     1      -0.029   9.515   1.878  0.00  0.00    -0.162 F 
ENDBRANCH   9  11
ENDBRANCH   4   7
BRANCH   5  15
ATOM     15  O   UNL     1      -0.280   5.213   2.590  0.00  0.00    -0.365 OA
ATOM     16  H   UNL     1      -1.142   4.793   2.711  0.00  0.00    +0.213 HD
ENDBRANCH   5  15
BRANCH   3  17
ATOM     17  O   UNL     1       3.678   5.856  -0.111  0.00  0.00    -0.387 OA
ATOM     18  H   UNL     1       4.173   5.654  -0.917  0.00  0.00    +0.210 HD
ENDBRANCH   3  17
BRANCH   2  19
ATOM     19  O   UNL     1       3.370   3.276   0.935  0.00  0.00    -0.387 OA
ATOM     20  H   UNL     1       3.501   2.318   0.953  0.00  0.00    +0.210 HD
ENDBRANCH   2  19
BRANCH   1  21
ATOM     21  C   UNL     1       1.286   1.562  -0.002  0.00  0.00    +0.190 C 
BRANCH  21  22
ATOM     22  O   UNL     1      -0.011   0.963   0.007  0.00  0.00    -0.392 OA
ATOM     23  H   UNL     1       0.002  -0.004   0.002  0.00  0.00    +0.210 HD
ENDBRANCH  21  22
ENDBRANCH   1  21
TORSDOF 7
