REMARK  Name = ZINC06674523
REMARK  5 active torsions:
REMARK  status: ('A' for Active; 'I' for Inactive)
REMARK    1  A    between atoms: C_1  and  C_2
REMARK    2  A    between atoms: N_8  and  N_9
REMARK    3  A    between atoms: C_10  and  C_12
REMARK    4  A    between atoms: N_14  and  N_15
REMARK    5  A    between atoms: C_20  and  C_23
REMARK                            x       y       z     vdW  Elec       q    Type
REMARK                         _______ _______ _______ _____ _____    ______ ____
ROOT
ATOM      1  N   UNL     1       1.549  -4.136   1.572  0.00  0.00    -0.199 N 
ATOM      2  C   UNL     1       2.637  -4.893   1.814  0.00  0.00    +0.320 C 
ATOM      3  O   UNL     1       3.730  -4.372   1.909  0.00  0.00    -0.263 OA
ATOM      4  H   UNL     1       0.676  -4.552   1.496  0.00  0.00    +0.178 HD
ENDROOT
BRANCH   1  11
ATOM      5  C   UNL     1      -0.014   1.543   0.059  0.00  0.00    +0.008 C 
ATOM      6  C   UNL     1       0.009   0.013   0.031  0.00  0.00    -0.009 C 
ATOM      7  C   UNL     1      -1.425  -0.518   0.025  0.00  0.00    +0.004 C 
ATOM      8  C   UNL     1      -1.413  -2.043  -0.093  0.00  0.00    +0.006 C 
ATOM      9  C   UNL     1      -0.734  -2.644   1.143  0.00  0.00    +0.052 C 
ATOM     10  C   UNL     1       0.635  -2.019   1.291  0.00  0.00    +0.037 C 
ATOM     11  N   UNL     1       1.678  -2.748   1.429  0.00  0.00    -0.189 NA
ATOM     12  C   UNL     1       0.741  -0.510   1.271  0.00  0.00    +0.055 C 
ENDBRANCH   1  11
BRANCH   2  13
ATOM     13  C   UNL     1       2.499  -6.370   1.966  0.00  0.00    +0.320 C 
ATOM     14  O   UNL     1       1.407  -6.891   1.871  0.00  0.00    -0.263 OA
ATOM     15  N   UNL     1       3.588  -7.127   2.209  0.00  0.00    -0.199 N 
ATOM     16  H   UNL     1       4.461  -6.711   2.285  0.00  0.00    +0.178 HD
BRANCH  15  17
ATOM     17  N   UNL     1       3.458  -8.515   2.352  0.00  0.00    -0.189 NA
ATOM     18  C   UNL     1       4.473  -9.222   2.682  0.00  0.00    +0.037 C 
ATOM     19  C   UNL     1       4.333 -10.705   2.942  0.00  0.00    +0.052 C 
ATOM     20  C   UNL     1       4.967 -11.024   4.300  0.00  0.00    +0.006 C 
ATOM     21  C   UNL     1       6.409 -10.514   4.320  0.00  0.00    +0.004 C 
ATOM     22  C   UNL     1       6.422  -8.990   4.185  0.00  0.00    -0.009 C 
ATOM     23  C   UNL     1       5.844  -8.596   2.817  0.00  0.00    +0.055 C 
ATOM     24  C   UNL     1       7.860  -8.480   4.295  0.00  0.00    +0.008 C 
ENDBRANCH  15  17
ENDBRANCH   2  13
TORSDOF 3
