REMARK  Name = ZINC48758883
REMARK  6 active torsions:
REMARK  status: ('A' for Active; 'I' for Inactive)
REMARK    1  A    between atoms: C_1  and  C_2
REMARK    2  A    between atoms: C_5  and  C_20
REMARK    3  A    between atoms: C_6  and  O_8
REMARK    4  A    between atoms: O_8  and  C_9
REMARK    5  A    between atoms: C_12  and  S_16
REMARK    6  A    between atoms: S_16  and  N_19
REMARK                            x       y       z     vdW  Elec       q    Type
REMARK                         _______ _______ _______ _____ _____    ______ ____
ROOT
ATOM      1  C   UNL     1       0.152  -2.066   3.513  0.00  0.00    +0.147 A 
ATOM      2  C   UNL     1       1.400  -1.777   4.045  0.00  0.00    +0.049 A 
ATOM      3  C   UNL     1       1.500  -1.056   5.219  0.00  0.00    +0.032 A 
ATOM      4  C   UNL     1       0.356  -0.621   5.864  0.00  0.00    +0.107 A 
ATOM      5  C   UNL     1      -0.889  -0.908   5.337  0.00  0.00    +0.052 A 
ATOM      6  C   UNL     1      -0.994  -1.624   4.160  0.00  0.00    +0.085 A 
ATOM      7 CL   UNL     1      -2.558  -1.976   3.494  0.00  0.00    -0.080 Cl
ENDROOT
BRANCH   4   8
ATOM      8  S   UNL     1       0.488   0.298   7.362  0.00  0.00    +0.056 S 
ATOM      9  O   UNL     1      -0.738   0.119   8.057  0.00  0.00    -0.153 OA
ATOM     10  O   UNL     1       1.744  -0.035   7.934  0.00  0.00    -0.153 OA
BRANCH   8  11
ATOM     11  N   UNL     1       0.567   1.900   6.947  0.00  0.00    -0.204 NA
ATOM     12  H   UNL     1       0.217   2.575   7.550  0.00  0.00    +0.144 HD
ATOM     13  H   UNL     1       0.963   2.163   6.101  0.00  0.00    +0.144 HD
ENDBRANCH   8  11
ENDBRANCH   4   8
BRANCH   1  14
ATOM     14  O   UNL     1       0.052  -2.776   2.358  0.00  0.00    -0.454 OA
BRANCH  14  20
ATOM     15  C   UNL     1       0.069   1.500   0.004  0.00  0.00    +0.044 C 
ATOM     16  C   UNL     1      -0.047  -0.003   0.005  0.00  0.00    -0.047 A 
ATOM     17  C   UNL     1      -0.256  -0.680  -1.182  0.00  0.00    +0.004 A 
ATOM     18  C   UNL     1      -0.362  -2.058  -1.185  0.00  0.00    +0.007 A 
ATOM     19  C   UNL     1      -0.260  -2.763  -0.000  0.00  0.00    -0.008 A 
ATOM     20  C   UNL     1      -0.049  -2.085   1.192  0.00  0.00    +0.132 A 
ATOM     21  C   UNL     1       0.062  -0.702   1.191  0.00  0.00    +0.050 A 
ATOM     22  C   UNL     1      -0.376  -4.265  -0.004  0.00  0.00    +0.047 C 
ENDBRANCH  14  20
ENDBRANCH   1  14
TORSDOF 4
