REMARK  Name = ZINC50649154
REMARK  7 active torsions:
REMARK  status: ('A' for Active; 'I' for Inactive)
REMARK    1  A    between atoms: C_1  and  C_2
REMARK    2  A    between atoms: C_2  and  N_3
REMARK    3  A    between atoms: C_7  and  C_9
REMARK    4  A    between atoms: C_9  and  N_10
REMARK    5  A    between atoms: N_10  and  S_11
REMARK    6  A    between atoms: S_11  and  C_14
REMARK    7  A    between atoms: C_19  and  N_20
REMARK                            x       y       z     vdW  Elec       q    Type
REMARK                         _______ _______ _______ _____ _____    ______ ____
ROOT
ATOM      1  S   UNL     1       4.742  -1.471   0.200  0.00  0.00    +0.062 S 
ATOM      2  O   UNL     1       5.251  -0.669  -0.858  0.00  0.00    -0.153 OA
ATOM      3  O   UNL     1       4.930  -1.135   1.568  0.00  0.00    -0.153 OA
ENDROOT
BRANCH   1   4
ATOM      4  C   UNL     1       5.417  -3.083  -0.021  0.00  0.00    +0.146 A 
ATOM      5  C   UNL     1       6.022  -3.740   1.035  0.00  0.00    +0.048 A 
ATOM      6  C   UNL     1       6.540  -5.011   0.816  0.00  0.00    +0.038 A 
ATOM      7  C   UNL     1       6.437  -5.576  -0.440  0.00  0.00    +0.128 A 
ATOM      8  N   UNL     1       5.854  -4.925  -1.429  0.00  0.00    -0.238 NA
ATOM      9  C   UNL     1       5.343  -3.715  -1.258  0.00  0.00    +0.143 A 
ATOM     10 BR   UNL     1       7.380  -5.956   2.223  0.00  0.00    -0.049 Br
BRANCH   9  11
ATOM     11  N   UNL     1       4.731  -3.068  -2.326  0.00  0.00    -0.342 N 
ATOM     12  H   UNL     1       4.280  -2.221  -2.186  0.00  0.00    +0.144 HD
ATOM     13  H   UNL     1       4.756  -3.465  -3.211  0.00  0.00    +0.144 HD
ENDBRANCH   9  11
ENDBRANCH   1   4
BRANCH   1  14
ATOM     14  N   UNL     1       3.107  -1.587  -0.039  0.00  0.00    -0.191 NA
ATOM     15  H   UNL     1       2.692  -1.127  -0.786  0.00  0.00    +0.148 HD
BRANCH  14  16
ATOM     16  C   UNL     1       2.288  -2.384   0.877  0.00  0.00    +0.090 C 
BRANCH  16  21
ATOM     17  N   UNL     1       0.626  -0.571   0.851  0.00  0.00    +0.382 N 
ATOM     18  C   UNL     1      -0.283  -0.340   1.994  0.00  0.00    -0.078 C 
ATOM     19  C   UNL     1      -1.105  -1.647   2.116  0.00  0.00    -0.020 C 
ATOM     20  C   UNL     1      -0.041  -2.721   1.767  0.00  0.00    -0.016 C 
ATOM     21  C   UNL     1       0.813  -2.024   0.686  0.00  0.00    -0.053 C 
ATOM     22  H   UNL     1       1.516  -0.132   1.033  0.00  0.00    -0.081 HD
BRANCH  17  24
ATOM     23  C   UNL     1      -0.042   1.515  -0.244  0.00  0.00    -0.017 C 
ATOM     24  C   UNL     1       0.036  -0.007  -0.371  0.00  0.00    -0.082 C 
ENDBRANCH  17  24
ENDBRANCH  16  21
ENDBRANCH  14  16
ENDBRANCH   1  14
TORSDOF 6
