REMARK  Name = ZINC19889373
REMARK  4 active torsions:
REMARK  status: ('A' for Active; 'I' for Inactive)
REMARK    1  A    between atoms: C_1  and  N_2
REMARK    2  A    between atoms: C_7  and  C_18
REMARK    3  A    between atoms: C_9  and  N_17
REMARK    4  A    between atoms: C_10  and  C_14
REMARK                            x       y       z     vdW  Elec       q    Type
REMARK                         _______ _______ _______ _____ _____    ______ ____
ROOT
ATOM      1  C   UNL     1     -10.709  -0.974   0.521  0.00  0.00    +0.105 C 
ATOM      2  N   UNL     1      -9.284  -1.229   0.272  0.00  0.00    -0.301 NA
ATOM      3  C   UNL     1      -8.812  -2.386   1.049  0.00  0.00    +0.090 C 
ATOM      4  C   UNL     1      -7.462  -2.829   0.485  0.00  0.00    +0.071 C 
ATOM      5  C   UNL     1      -6.535  -1.644   0.377  0.00  0.00    +0.049 A 
ATOM      6  C   UNL     1      -7.010  -0.348   0.417  0.00  0.00    -0.004 A 
ATOM      7  C   UNL     1      -6.124   0.721   0.307  0.00  0.00    -0.000 A 
ATOM      8  C   UNL     1      -4.731   0.457   0.155  0.00  0.00    +0.037 A 
ATOM      9  C   UNL     1      -3.635   1.400   0.022  0.00  0.00    +0.054 A 
ATOM     10  C   UNL     1      -2.357   0.903  -0.112  0.00  0.00    +0.097 A 
ATOM     11  S   UNL     1      -2.595  -0.863  -0.071  0.00  0.00    -0.062 S 
ATOM     12  C   UNL     1      -4.359  -0.905   0.131  0.00  0.00    +0.112 A 
ATOM     13  N   UNL     1      -5.238  -1.876   0.238  0.00  0.00    -0.244 NA
ATOM     14  C   UNL     1      -8.477  -0.045   0.582  0.00  0.00    +0.121 C 
ENDROOT
BRANCH   7  15
ATOM     15  C   UNL     1      -6.623   2.115   0.348  0.00  0.00    -0.017 A 
ATOM     16  C   UNL     1      -7.121   2.645   1.538  0.00  0.00    +0.008 A 
ATOM     17  C   UNL     1      -7.579   3.946   1.572  0.00  0.00    +0.001 A 
ATOM     18  C   UNL     1      -7.556   4.721   0.426  0.00  0.00    +0.000 A 
ATOM     19  C   UNL     1      -7.068   4.199  -0.759  0.00  0.00    +0.001 A 
ATOM     20  C   UNL     1      -6.601   2.901  -0.803  0.00  0.00    +0.008 A 
ENDBRANCH   7  15
BRANCH  10  21
ATOM     21  C   UNL     1      -1.144   1.623  -0.255  0.00  0.00    +0.250 C 
ATOM     22  O   UNL     1      -1.157   2.840  -0.269  0.00  0.00    -0.270 OA
ATOM     23  N   UNL     1       0.023   0.960  -0.374  0.00  0.00    -0.325 N 
ATOM     24  H   UNL     1       0.964   1.518  -0.485  0.00  0.00    +0.145 HD
ATOM     25  H   UNL     1       0.035  -0.140  -0.361  0.00  0.00    +0.145 HD
ENDBRANCH  10  21
BRANCH   9  26
ATOM     26  N   UNL     1      -3.870   2.769   0.029  0.00  0.00    -0.356 N 
ATOM     27  H   UNL     1      -3.029   3.471  -0.073  0.00  0.00    +0.142 HD
ATOM     28  H   UNL     1      -4.896   3.151   0.136  0.00  0.00    +0.142 HD
ENDBRANCH   9  26
TORSDOF 3
