REMARK  Name = ZINC09210009
REMARK  6 active torsions:
REMARK  status: ('A' for Active; 'I' for Inactive)
REMARK    1  A    between atoms: C_1  and  C_2
REMARK    2  A    between atoms: C_2  and  C_3
REMARK    3  A    between atoms: C_10  and  N_32
REMARK    4  A    between atoms: C_11  and  C_30
REMARK    5  A    between atoms: N_19  and  C_22
REMARK    6  A    between atoms: C_22  and  C_23
REMARK                            x       y       z     vdW  Elec       q    Type
REMARK                         _______ _______ _______ _____ _____    ______ ____
ROOT
ATOM      1  C   UNL     1       0.743  -0.030  -1.637  0.00  0.00    +0.071 A 
ATOM      2  C   UNL     1      -0.018  -0.309  -2.764  0.00  0.00    +0.061 A 
ATOM      3  C   UNL     1       0.833  -0.685  -3.768  0.00  0.00    +0.223 A 
ATOM      4  N   UNL     1       2.082  -0.641  -3.277  0.00  0.00    -0.246 N 
ATOM      5  H   UNL     1       2.894  -0.857  -3.762  0.00  0.00    +0.192 HD
ATOM      6  N   UNL     1       2.005  -0.223  -1.940  0.00  0.00    -0.176 NA
ATOM      7  O   UNL     1       0.398  -1.024  -5.006  0.00  0.00    -0.423 OA
ATOM      8  C   UNL     1      -0.879  -0.732  -5.329  0.00  0.00    +0.201 C 
ATOM      9  C   UNL     1      -1.816  -0.362  -4.425  0.00  0.00    +0.110 C 
ATOM     10  C   UNL     1      -1.507  -0.244  -2.958  0.00  0.00    +0.145 C 
ATOM     11  C   UNL     1      -2.204  -1.305  -2.167  0.00  0.00    -0.001 A 
ATOM     12  C   UNL     1      -2.126  -2.680  -2.212  0.00  0.00    +0.007 A 
ATOM     13  C   UNL     1      -2.924  -3.387  -1.320  0.00  0.00    +0.000 A 
ATOM     14  C   UNL     1      -3.757  -2.738  -0.431  0.00  0.00    +0.002 A 
ATOM     15  C   UNL     1      -3.843  -1.356  -0.381  0.00  0.00    +0.024 A 
ATOM     16  C   UNL     1      -3.046  -0.634  -1.271  0.00  0.00    +0.041 A 
ATOM     17  N   UNL     1      -2.934   0.735  -1.439  0.00  0.00    -0.265 N 
ATOM     18  C   UNL     1      -2.052   1.056  -2.409  0.00  0.00    +0.241 C 
ATOM     19  O   UNL     1      -1.754   2.174  -2.773  0.00  0.00    -0.274 OA
ENDROOT
BRANCH   8  20
ATOM     20  N   UNL     1      -1.249  -0.816  -6.648  0.00  0.00    -0.328 N 
ATOM     21  H   UNL     1      -0.599  -1.078  -7.319  0.00  0.00    +0.145 HD
ATOM     22  H   UNL     1      -2.161  -0.612  -6.910  0.00  0.00    +0.145 HD
ENDBRANCH   8  20
BRANCH   1  24
ATOM     23  C   UNL     1       0.280   1.947  -0.215  0.00  0.00    +0.010 C 
ATOM     24  C   UNL     1       0.212   0.421  -0.301  0.00  0.00    +0.054 C 
ENDBRANCH   1  24
BRANCH   9  25
ATOM     25  C   UNL     1      -3.143  -0.073  -4.880  0.00  0.00    +0.102 C 
ATOM     26  N   UNL     1      -4.196   0.156  -5.240  0.00  0.00    -0.191 NA
ENDBRANCH   9  25
BRANCH  17  27
ATOM     27  C   UNL     1      -3.683   1.720  -0.655  0.00  0.00    +0.148 C 
BRANCH  27  28
ATOM     28  C   UNL     1      -4.945   2.092  -1.389  0.00  0.00    -0.030 A 
ATOM     29  C   UNL     1      -4.945   3.161  -2.266  0.00  0.00    +0.006 A 
ATOM     30  C   UNL     1      -6.103   3.502  -2.940  0.00  0.00    +0.020 A 
ATOM     31  C   UNL     1      -7.261   2.774  -2.737  0.00  0.00    +0.041 A 
ATOM     32  C   UNL     1      -7.261   1.704  -1.860  0.00  0.00    +0.020 A 
ATOM     33  C   UNL     1      -6.101   1.360  -1.191  0.00  0.00    +0.006 A 
ATOM     34 CL   UNL     1      -8.716   3.202  -3.583  0.00  0.00    -0.084 Cl
ENDBRANCH  27  28
ENDBRANCH  17  27
TORSDOF 5
