REMARK  Name = ZINC39272498
REMARK  3 active torsions:
REMARK  status: ('A' for Active; 'I' for Inactive)
REMARK    1  A    between atoms: C_6  and  N_7
REMARK    2  A    between atoms: N_7  and  C_8
REMARK    3  A    between atoms: C_16  and  N_18
REMARK                            x       y       z     vdW  Elec       q    Type
REMARK                         _______ _______ _______ _____ _____    ______ ____
ROOT
ATOM      1  C   UNL     1      -1.181  -2.181  -0.108  0.00  0.00    +0.245 C 
ATOM      2  C   UNL     1      -2.169  -2.746   0.882  0.00  0.00    +0.127 C 
ATOM      3  N   UNL     1      -2.354  -2.709   2.162  0.00  0.00    -0.233 NA
ATOM      4  C   UNL     1      -3.444  -3.436   2.476  0.00  0.00    +0.224 C 
ATOM      5  N   UNL     1      -3.995  -3.962   1.411  0.00  0.00    -0.217 NA
ATOM      6  C   UNL     1      -3.265  -3.590   0.327  0.00  0.00    +0.160 C 
ATOM      7  N   UNL     1      -3.318  -3.795  -0.958  0.00  0.00    -0.310 N 
ATOM      8  C   UNL     1      -2.429  -3.285  -1.837  0.00  0.00    +0.209 C 
ATOM      9  N   UNL     1      -1.423  -2.532  -1.522  0.00  0.00    -0.224 NA
ATOM     10  H   UNL     1      -4.037  -4.347  -1.303  0.00  0.00    +0.170 HD
ENDROOT
BRANCH   1  11
ATOM     11  N   UNL     1      -1.199  -0.721   0.010  0.00  0.00    -0.318 N 
ATOM     12  H   UNL     1      -2.043  -0.243   0.002  0.00  0.00    +0.148 HD
BRANCH  11  18
ATOM     13  C   UNL     1       1.215  -0.673  -0.023  0.00  0.00    +0.026 A 
ATOM     14  C   UNL     1       2.400   0.026   0.100  0.00  0.00    +0.041 A 
ATOM     15  C   UNL     1       2.380   1.381   0.380  0.00  0.00    +0.142 A 
ATOM     16  C   UNL     1       1.171   2.041   0.538  0.00  0.00    +0.078 A 
ATOM     17  C   UNL     1      -0.017   1.345   0.416  0.00  0.00    +0.045 A 
ATOM     18  C   UNL     1       0.002  -0.015   0.135  0.00  0.00    +0.030 A 
ATOM     19 CL   UNL     1       1.149   3.740   0.890  0.00  0.00    -0.081 Cl
ATOM     20  F   UNL     1       3.541   2.062   0.500  0.00  0.00    -0.204 F 
ENDBRANCH  11  18
ENDBRANCH   1  11
BRANCH   8  21
ATOM     21  N   UNL     1      -2.608  -3.587  -3.173  0.00  0.00    -0.234 NA
ATOM     22  H   UNL     1      -1.991  -3.240  -3.836  0.00  0.00    +0.173 HD
ENDBRANCH   8  21
TORSDOF 3
