REMARK  Name = ZINC21249927
REMARK  8 active torsions:
REMARK  status: ('A' for Active; 'I' for Inactive)
REMARK    1  A    between atoms: C_1  and  C_2
REMARK    2  A    between atoms: C_5  and  N_12
REMARK    3  A    between atoms: C_7  and  S_8
REMARK    4  A    between atoms: S_8  and  N_11
REMARK    5  A    between atoms: C_13  and  C_15
REMARK    6  A    between atoms: C_15  and  S_16
REMARK    7  A    between atoms: S_16  and  C_17
REMARK    8  A    between atoms: N_21  and  C_22
REMARK                            x       y       z     vdW  Elec       q    Type
REMARK                         _______ _______ _______ _____ _____    ______ ____
ROOT
ATOM      1  N   UNL     1      -2.456   3.823   0.046  0.00  0.00    -0.285 N 
ATOM      2  C   UNL     1      -3.614   3.140  -0.048  0.00  0.00    +0.227 C 
ATOM      3  O   UNL     1      -3.604   1.927  -0.055  0.00  0.00    -0.275 OA
ATOM      4  H   UNL     1      -2.470   4.919   0.140  0.00  0.00    +0.155 HD
ENDROOT
BRANCH   1   9
ATOM      5  C   UNL     1       2.490   1.045  -0.039  0.00  0.00    +0.046 C 
ATOM      6  C   UNL     1       1.176   1.784  -0.017  0.00  0.00    -0.024 A 
ATOM      7  C   UNL     1       0.104   1.307  -0.750  0.00  0.00    +0.007 A 
ATOM      8  C   UNL     1      -1.099   1.984  -0.735  0.00  0.00    +0.023 A 
ATOM      9  C   UNL     1      -1.236   3.138   0.025  0.00  0.00    +0.035 A 
ATOM     10  C   UNL     1      -0.158   3.615   0.758  0.00  0.00    +0.052 A 
ATOM     11  C   UNL     1       1.045   2.936   0.736  0.00  0.00    +0.110 A 
BRANCH  11  12
ATOM     12  S   UNL     1       2.414   3.539   1.667  0.00  0.00    +0.056 S 
ATOM     13  O   UNL     1       3.530   3.553   0.786  0.00  0.00    -0.153 OA
ATOM     14  O   UNL     1       1.963   4.705   2.343  0.00  0.00    -0.153 OA
BRANCH  12  15
ATOM     15  N   UNL     1       2.747   2.413   2.834  0.00  0.00    -0.204 NA
ATOM     16  H   UNL     1       3.599   2.754   3.440  0.00  0.00    +0.144 HD
ATOM     17  H   UNL     1       2.996   1.454   2.358  0.00  0.00    +0.144 HD
ENDBRANCH  12  15
ENDBRANCH  11  12
ENDBRANCH   1   9
BRANCH   2  18
ATOM     18  C   UNL     1      -4.921   3.883  -0.144  0.00  0.00    +0.173 C 
BRANCH  18  19
ATOM     19  S   UNL     1      -6.283   2.696  -0.257  0.00  0.00    -0.075 S 
BRANCH  19  20
ATOM     20  C   UNL     1      -7.649   3.805  -0.356  0.00  0.00    +0.214 A 
ATOM     21  N   UNL     1      -7.591   5.120  -0.344  0.00  0.00    -0.101 NA
ATOM     22  N   UNL     1      -8.770   5.622  -0.432  0.00  0.00    -0.022 NA
ATOM     23  N   UNL     1      -9.653   4.687  -0.506  0.00  0.00    -0.038 NA
ATOM     24  N   UNL     1      -8.958   3.466  -0.465  0.00  0.00    -0.187 N 
BRANCH  24  25
ATOM     25  C   UNL     1      -9.501   2.174  -0.521  0.00  0.00    +0.070 A 
ATOM     26  C   UNL     1      -8.813   1.158  -1.172  0.00  0.00    +0.029 A 
ATOM     27  C   UNL     1      -9.347  -0.114  -1.222  0.00  0.00    +0.022 A 
ATOM     28  C   UNL     1     -10.572  -0.375  -0.633  0.00  0.00    +0.041 A 
ATOM     29  C   UNL     1     -11.262   0.637   0.011  0.00  0.00    +0.022 A 
ATOM     30  C   UNL     1     -10.729   1.910   0.068  0.00  0.00    +0.029 A 
ATOM     31 CL   UNL     1     -11.244  -1.974  -0.703  0.00  0.00    -0.084 Cl
ENDBRANCH  24  25
ENDBRANCH  19  20
ENDBRANCH  18  19
ENDBRANCH   2  18
TORSDOF 7
