REMARK  Name = ZINC12554602
REMARK  8 active torsions:
REMARK  status: ('A' for Active; 'I' for Inactive)
REMARK    1  A    between atoms: C_1  and  C_2
REMARK    2  A    between atoms: C_4  and  N_11
REMARK    3  A    between atoms: C_5  and  O_9
REMARK    4  A    between atoms: O_9  and  C_10
REMARK    5  A    between atoms: C_12  and  C_14
REMARK    6  A    between atoms: C_14  and  N_15
REMARK    7  A    between atoms: C_17  and  C_26
REMARK    8  A    between atoms: N_28  and  C_29
REMARK                            x       y       z     vdW  Elec       q    Type
REMARK                         _______ _______ _______ _____ _____    ______ ____
ROOT
ATOM      1  C   UNL     1      -1.261   5.707  -0.746  0.00  0.00    +0.201 C 
ENDROOT
BRANCH   1   2
ATOM      2  N   UNL     1      -0.111   5.225   0.031  0.00  0.00    -0.314 N 
ATOM      3  C   UNL     1      -0.050   5.882   1.342  0.00  0.00    +0.160 C 
ATOM      4  C   UNL     1       1.233   5.434   2.054  0.00  0.00    +0.276 C 
ATOM      5  O   UNL     1       2.348   5.889   1.281  0.00  0.00    -0.476 OA
ATOM      6  C   UNL     1       2.279   5.693  -0.065  0.00  0.00    +0.143 A 
ATOM      7  C   UNL     1       1.078   5.373  -0.689  0.00  0.00    +0.073 A 
ATOM      8  C   UNL     1       1.050   5.191  -2.067  0.00  0.00    +0.027 A 
ATOM      9  C   UNL     1       2.205   5.329  -2.812  0.00  0.00    +0.002 A 
ATOM     10  C   UNL     1       3.399   5.638  -2.188  0.00  0.00    +0.004 A 
ATOM     11  C   UNL     1       3.436   5.823  -0.818  0.00  0.00    +0.047 A 
BRANCH   4  12
ATOM     12  C   UNL     1       1.288   6.040   3.433  0.00  0.00    +0.255 C 
ATOM     13  O   UNL     1       2.158   6.838   3.711  0.00  0.00    -0.272 OA
ATOM     14  N   UNL     1       0.371   5.694   4.358  0.00  0.00    -0.315 N 
ATOM     15  C   UNL     1       0.424   6.282   5.699  0.00  0.00    +0.128 C 
ATOM     16  H   UNL     1      -0.325   5.055   4.137  0.00  0.00    +0.148 HD
ENDBRANCH   4  12
ENDBRANCH   1   2
BRANCH   1  18
ATOM     17  N   UNL     1      -3.720   5.439  -0.724  0.00  0.00    -0.281 N 
ATOM     18  C   UNL     1      -2.536   5.197  -0.127  0.00  0.00    +0.235 C 
ATOM     19  O   UNL     1      -2.498   4.568   0.910  0.00  0.00    -0.274 OA
ATOM     20  H   UNL     1      -3.746   5.888  -1.584  0.00  0.00    +0.155 HD
BRANCH  17  24
ATOM     21  C   UNL     1      -6.167   2.221   2.075  0.00  0.00    +0.045 C 
ATOM     22  C   UNL     1      -6.127   3.487   1.259  0.00  0.00    -0.030 A 
ATOM     23  C   UNL     1      -4.950   3.877   0.648  0.00  0.00    +0.031 A 
ATOM     24  C   UNL     1      -4.912   5.042  -0.104  0.00  0.00    +0.076 A 
ATOM     25  C   UNL     1      -6.061   5.819  -0.237  0.00  0.00    +0.143 A 
ATOM     26  C   UNL     1      -7.238   5.419   0.374  0.00  0.00    +0.067 A 
ATOM     27  C   UNL     1      -7.269   4.256   1.123  0.00  0.00    +0.047 A 
ATOM     28 CL   UNL     1      -8.743   3.761   1.893  0.00  0.00    -0.083 Cl
BRANCH  25  29
ATOM     29  O   UNL     1      -6.027   6.965  -0.969  0.00  0.00    -0.493 OA
ATOM     30  C   UNL     1      -7.242   7.711  -1.061  0.00  0.00    +0.277 C 
ENDBRANCH  25  29
ENDBRANCH  17  24
ENDBRANCH   1  18
TORSDOF 5
