REMARK  Name = ZINC13030060
REMARK  6 active torsions:
REMARK  status: ('A' for Active; 'I' for Inactive)
REMARK    1  A    between atoms: C_4  and  C_7
REMARK    2  A    between atoms: C_7  and  C_8
REMARK    3  A    between atoms: C_8  and  N_9
REMARK    4  A    between atoms: C_16  and  N_32
REMARK    5  A    between atoms: C_19  and  C_30
REMARK    6  A    between atoms: C_20  and  N_24
REMARK                            x       y       z     vdW  Elec       q    Type
REMARK                         _______ _______ _______ _____ _____    ______ ____
ROOT
ATOM      1  N   UNL     1       0.183   3.687   0.647  0.00  0.00    -0.307 N 
ATOM      2  C   UNL     1       0.859   3.124  -0.532  0.00  0.00    +0.186 C 
ATOM      3  C   UNL     1      -0.205   3.052  -1.605  0.00  0.00    +0.184 C 
ATOM      4  O   UNL     1      -0.070   2.645  -2.741  0.00  0.00    -0.290 OA
ATOM      5  C   UNL     1      -1.387   3.552  -1.016  0.00  0.00    +0.068 A 
ATOM      6  C   UNL     1      -1.138   3.923   0.318  0.00  0.00    +0.135 A 
ATOM      7  N   UNL     1      -2.120   4.424   1.067  0.00  0.00    -0.216 NA
ATOM      8  C   UNL     1      -3.355   4.606   0.636  0.00  0.00    +0.129 A 
ATOM      9  C   UNL     1      -3.723   4.271  -0.682  0.00  0.00    +0.063 A 
ATOM     10  C   UNL     1      -2.736   3.733  -1.543  0.00  0.00    +0.023 A 
ATOM     11  C   UNL     1      -3.099   3.397  -2.863  0.00  0.00    +0.100 A 
ATOM     12  C   UNL     1      -4.429   3.614  -3.262  0.00  0.00    +0.142 A 
ATOM     13  N   UNL     1      -5.323   4.121  -2.423  0.00  0.00    -0.216 NA
ATOM     14  C   UNL     1      -5.029   4.451  -1.175  0.00  0.00    +0.129 A 
ATOM     15  N   UNL     1      -6.007   4.973  -0.356  0.00  0.00    -0.343 N 
ATOM     16  H   UNL     1      -7.028   5.114  -0.739  0.00  0.00    +0.144 HD
ATOM     17  H   UNL     1      -5.765   5.248   0.682  0.00  0.00    +0.144 HD
ENDROOT
BRANCH  12  18
ATOM     18  N   UNL     1      -4.812   3.294  -4.549  0.00  0.00    -0.314 N 
ATOM     19  C   UNL     1      -5.195   4.498  -5.299  0.00  0.00    +0.106 C 
ATOM     20  C   UNL     1      -5.472   4.125  -6.757  0.00  0.00    +0.019 C 
ATOM     21  C   UNL     1      -6.598   3.089  -6.809  0.00  0.00    +0.003 C 
ATOM     22  C   UNL     1      -6.195   1.866  -5.981  0.00  0.00    +0.019 C 
ATOM     23  C   UNL     1      -5.896   2.304  -4.545  0.00  0.00    +0.106 C 
ENDBRANCH  12  18
BRANCH   8  24
ATOM     24  N   UNL     1      -4.298   5.131   1.489  0.00  0.00    -0.343 N 
ATOM     25  H   UNL     1      -5.330   5.286   1.139  0.00  0.00    +0.144 HD
ATOM     26  H   UNL     1      -4.021   5.396   2.520  0.00  0.00    +0.144 HD
ENDBRANCH   8  24
BRANCH  11  27
ATOM     27  C   UNL     1      -2.138   2.849  -3.773  0.00  0.00    +0.103 C 
ATOM     28  N   UNL     1      -1.376   2.414  -4.494  0.00  0.00    -0.191 NA
ENDBRANCH  11  27
BRANCH   1  29
ATOM     29  C   UNL     1       0.286   2.778   1.797  0.00  0.00    +0.111 C 
BRANCH  29  30
ATOM     30  C   UNL     1       1.733   2.744   2.292  0.00  0.00    +0.054 C 
BRANCH  30  34
ATOM     31  C   UNL     1       2.032   0.101   5.634  0.00  0.00    +0.000 A 
ATOM     32  C   UNL     1       2.216  -0.383   4.352  0.00  0.00    +0.000 A 
ATOM     33  C   UNL     1       2.119   0.473   3.271  0.00  0.00    +0.004 A 
ATOM     34  C   UNL     1       1.839   1.811   3.471  0.00  0.00    -0.046 A 
ATOM     35  C   UNL     1       1.660   2.296   4.753  0.00  0.00    +0.004 A 
ATOM     36  C   UNL     1       1.752   1.439   5.835  0.00  0.00    +0.000 A 
ENDBRANCH  30  34
ENDBRANCH  29  30
ENDBRANCH   1  29
TORSDOF 6
