REMARK  Name = ZINC44843535
REMARK  6 active torsions:
REMARK  status: ('A' for Active; 'I' for Inactive)
REMARK    1  A    between atoms: C_1  and  C_2
REMARK    2  A    between atoms: C_2  and  C_3
REMARK    3  A    between atoms: C_9  and  C_11
REMARK    4  A    between atoms: C_11  and  C_13
REMARK    5  A    between atoms: C_11  and  C_14
REMARK    6  A    between atoms: C_14  and  N_16
REMARK                            x       y       z     vdW  Elec       q    Type
REMARK                         _______ _______ _______ _____ _____    ______ ____
ROOT
ATOM      1  C   UNL     1       0.672  -0.536  -1.212  0.00  0.00    -0.008 C 
ATOM      2  C   UNL     1      -0.111  -0.115  -2.458  0.00  0.00    +0.022 C 
ATOM      3  C   UNL     1       0.645  -0.571  -3.710  0.00  0.00    +0.108 C 
ATOM      4  N   UNL     1       0.894  -2.015  -3.612  0.00  0.00    -0.301 N 
ATOM      5  C   UNL     1       1.561  -2.538  -2.412  0.00  0.00    +0.108 C 
ATOM      6  C   UNL     1       0.794  -2.061  -1.175  0.00  0.00    +0.022 C 
ATOM      7  C   UNL     1       0.517  -2.845  -4.605  0.00  0.00    +0.224 C 
ATOM      8  O   UNL     1      -0.121  -2.417  -5.544  0.00  0.00    -0.275 OA
ENDROOT
BRANCH   1  10
ATOM      9  C   UNL     1      -0.075   1.478   0.065  0.00  0.00    +0.004 C 
ATOM     10  C   UNL     1      -0.063  -0.052   0.040  0.00  0.00    +0.000 C 
ENDBRANCH   1  10
BRANCH   7  11
ATOM     11  C   UNL     1       0.888  -4.305  -4.549  0.00  0.00    +0.123 C 
ATOM     12  C   UNL     1       1.157  -4.817  -5.965  0.00  0.00    +0.024 C 
BRANCH  11  13
ATOM     13  C   UNL     1      -0.244  -5.088  -3.938  0.00  0.00    +0.058 C 
ATOM     14  S   UNL     1      -1.623  -4.359  -3.587  0.00  0.00    -0.040 S 
BRANCH  13  15
ATOM     15  N   UNL     1      -0.095  -6.404  -3.687  0.00  0.00    -0.355 N 
ATOM     16  H   UNL     1       0.742  -6.846  -3.899  0.00  0.00    +0.143 HD
ATOM     17  H   UNL     1      -0.824  -6.908  -3.293  0.00  0.00    +0.143 HD
ENDBRANCH  13  15
ENDBRANCH  11  13
ENDBRANCH   7  11
TORSDOF 4
