REMARK  Name = ZINC22418413
REMARK  10 active torsions:
REMARK  status: ('A' for Active; 'I' for Inactive)
REMARK    1  A    between atoms: C_1  and  N_2
REMARK    2  A    between atoms: N_2  and  C_3
REMARK    3  A    between atoms: N_2  and  C_4
REMARK    4  A    between atoms: C_7  and  C_10
REMARK    5  A    between atoms: C_10  and  C_12
REMARK    6  A    between atoms: C_10  and  N_25
REMARK    7  A    between atoms: C_12  and  N_13
REMARK    8  A    between atoms: N_16  and  C_17
REMARK    9  A    between atoms: C_22  and  O_23
REMARK   10  A    between atoms: O_23  and  C_24
REMARK                            x       y       z     vdW  Elec       q    Type
REMARK                         _______ _______ _______ _____ _____    ______ ____
ROOT
ATOM      1  C   UNL     1       1.427  -1.715  -0.392  0.00  0.00    -0.020 C 
ENDROOT
BRANCH   1   5
ATOM      2  C   UNL     1       5.245  -1.915   1.519  0.00  0.00    +0.029 A 
ATOM      3  C   UNL     1       5.046  -2.539   0.294  0.00  0.00    +0.023 A 
ATOM      4  C   UNL     1       3.811  -2.472  -0.321  0.00  0.00    +0.004 A 
ATOM      5  C   UNL     1       2.773  -1.785   0.282  0.00  0.00    -0.059 A 
ATOM      6  C   UNL     1       2.970  -1.158   1.499  0.00  0.00    +0.004 A 
ATOM      7  C   UNL     1       4.200  -1.226   2.122  0.00  0.00    +0.023 A 
BRANCH   2   9
ATOM      8  C   UNL     1       7.594  -2.707   1.506  0.00  0.00    +0.129 C 
ATOM      9  N   UNL     1       6.493  -1.980   2.143  0.00  0.00    -0.336 N 
ATOM     10  C   UNL     1       6.701  -1.321   3.435  0.00  0.00    +0.129 C 
ENDBRANCH   2   9
ENDBRANCH   1   5
BRANCH   1  11
ATOM     11  N   UNL     1       0.375  -2.042   0.580  0.00  0.00    +0.385 N 
ATOM     12  C   UNL     1      -0.945  -2.170  -0.087  0.00  0.00    -0.078 C 
ATOM     13  C   UNL     1      -1.775  -3.001   0.924  0.00  0.00    -0.020 C 
ATOM     14  C   UNL     1      -0.738  -4.003   1.480  0.00  0.00    -0.020 C 
ATOM     15  C   UNL     1       0.633  -3.351   1.219  0.00  0.00    -0.078 C 
ATOM     16  H   UNL     1       0.384  -1.225   1.317  0.00  0.00    -0.081 HD
ENDBRANCH   1  11
BRANCH   1  17
ATOM     17  C   UNL     1       1.200  -0.301  -0.932  0.00  0.00    +0.095 C 
BRANCH  17  18
ATOM     18  N   UNL     1       0.030  -0.297  -1.813  0.00  0.00    -0.300 N 
ATOM     19  C   UNL     1      -0.437   0.867  -2.308  0.00  0.00    +0.304 C 
ATOM     20  O   UNL     1       0.113   1.913  -2.022  0.00  0.00    -0.253 OA
ATOM     21  N   UNL     1      -1.510   0.870  -3.123  0.00  0.00    -0.266 N 
ATOM     22  H   UNL     1      -0.467  -1.244  -2.071  0.00  0.00    +0.150 HD
ATOM     23  H   UNL     1      -1.972  -0.081  -3.429  0.00  0.00    +0.156 HD
BRANCH  21  24
ATOM     24  C   UNL     1      -2.039   2.085  -3.580  0.00  0.00    +0.077 A 
ATOM     25  C   UNL     1      -1.221   3.199  -3.697  0.00  0.00    +0.027 A 
ATOM     26  C   UNL     1      -1.743   4.394  -4.153  0.00  0.00    +0.002 A 
ATOM     27  C   UNL     1      -3.083   4.486  -4.485  0.00  0.00    +0.004 A 
ATOM     28  C   UNL     1      -3.905   3.381  -4.367  0.00  0.00    +0.047 A 
ATOM     29  C   UNL     1      -3.388   2.178  -3.914  0.00  0.00    +0.141 A 
BRANCH  29  30
ATOM     30  O   UNL     1      -4.196   1.090  -3.797  0.00  0.00    -0.493 OA
ATOM     31  C   UNL     1      -5.568   1.259  -4.157  0.00  0.00    +0.277 C 
ENDBRANCH  29  30
ENDBRANCH  21  24
ENDBRANCH  17  18
ENDBRANCH   1  17
TORSDOF 7
