REMARK  Name = ZINC45165962
REMARK  4 active torsions:
REMARK  status: ('A' for Active; 'I' for Inactive)
REMARK    1  A    between atoms: C_3  and  N_21
REMARK    2  A    between atoms: C_4  and  S_8
REMARK    3  A    between atoms: S_8  and  N_11
REMARK    4  A    between atoms: N_11  and  C_12
REMARK                            x       y       z     vdW  Elec       q    Type
REMARK                         _______ _______ _______ _____ _____    ______ ____
ROOT
ATOM      1  S   UNL     1       3.724  -0.709  -1.233  0.00  0.00    +0.062 S 
ATOM      2  O   UNL     1       3.293  -1.976  -1.710  0.00  0.00    -0.153 OA
ATOM      3  O   UNL     1       4.353   0.248  -2.074  0.00  0.00    -0.153 OA
ENDROOT
BRANCH   1   7
ATOM      4  C   UNL     1       0.077   1.321   0.535  0.00  0.00    +0.003 A 
ATOM      5  C   UNL     1       0.119  -0.057   0.444  0.00  0.00    +0.025 A 
ATOM      6  C   UNL     1       1.234  -0.683  -0.098  0.00  0.00    +0.053 A 
ATOM      7  C   UNL     1       2.306   0.080  -0.546  0.00  0.00    +0.144 A 
ATOM      8  C   UNL     1       2.258   1.458  -0.451  0.00  0.00    +0.069 A 
ATOM      9  C   UNL     1       1.144   2.078   0.089  0.00  0.00    +0.022 A 
ATOM     10 CL   UNL     1       3.596   2.413  -1.010  0.00  0.00    -0.081 Cl
BRANCH   6  11
ATOM     11  N   UNL     1       1.280  -2.075  -0.191  0.00  0.00    -0.356 N 
ATOM     12  H   UNL     1       0.457  -2.589  -0.179  0.00  0.00    +0.142 HD
ATOM     13  H   UNL     1       2.134  -2.529  -0.268  0.00  0.00    +0.142 HD
ENDBRANCH   6  11
ENDBRANCH   1   7
BRANCH   1  14
ATOM     14  N   UNL     1       4.772  -1.004   0.015  0.00  0.00    -0.188 NA
ATOM     15  H   UNL     1       5.633  -0.557   0.041  0.00  0.00    +0.148 HD
BRANCH  14  16
ATOM     16  C   UNL     1       4.400  -1.940   1.079  0.00  0.00    +0.063 C 
ATOM     17  C   UNL     1       4.968  -3.326   0.765  0.00  0.00    -0.058 C 
ATOM     18  N   UNL     1       5.879  -3.747   1.832  0.00  0.00    +0.381 N 
ATOM     19  C   UNL     1       7.010  -2.823   1.940  0.00  0.00    -0.078 C 
ATOM     20  C   UNL     1       6.509  -1.421   2.293  0.00  0.00    -0.014 C 
ATOM     21  C   UNL     1       4.977  -1.456   2.415  0.00  0.00    +0.002 C 
ATOM     22  C   UNL     1       4.603  -2.473   3.501  0.00  0.00    -0.014 C 
ATOM     23  C   UNL     1       5.167  -3.844   3.109  0.00  0.00    -0.078 C 
ATOM     24  H   UNL     1       6.242  -4.659   1.600  0.00  0.00    -0.082 HD
ENDBRANCH  14  16
ENDBRANCH   1  14
TORSDOF 4
