REMARK  Name = ZINC38677697
REMARK  7 active torsions:
REMARK  status: ('A' for Active; 'I' for Inactive)
REMARK    1  A    between atoms: C_1  and  C_2
REMARK    2  A    between atoms: C_5  and  C_8
REMARK    3  A    between atoms: C_8  and  O_10
REMARK    4  A    between atoms: O_10  and  C_11
REMARK    5  A    between atoms: C_18  and  N_31
REMARK    6  A    between atoms: C_19  and  C_29
REMARK    7  A    between atoms: C_20  and  C_22
REMARK                            x       y       z     vdW  Elec       q    Type
REMARK                         _______ _______ _______ _____ _____    ______ ____
ROOT
ATOM      1  C   UNL     1       0.061  -6.288   1.186  0.00  0.00    +0.135 A 
ATOM      2  C   UNL     1       0.108  -7.023   0.009  0.00  0.00    +0.047 A 
ATOM      3  C   UNL     1       0.092  -8.403   0.056  0.00  0.00    +0.012 A 
ATOM      4  C   UNL     1       0.030  -9.059   1.273  0.00  0.00    +0.008 A 
ATOM      5  C   UNL     1      -0.017  -8.330   2.451  0.00  0.00    +0.138 A 
ATOM      6  C   UNL     1       0.004  -6.942   2.406  0.00  0.00    +0.093 A 
ATOM      7  O   UNL     1      -0.079  -8.955   3.653  0.00  0.00    -0.441 OA
ATOM      8  C   UNL     1       0.286 -10.243   3.758  0.00  0.00    +0.199 C 
ATOM      9  C   UNL     1       0.351 -11.060   2.680  0.00  0.00    +0.098 C 
ATOM     10  C   UNL     1       0.013 -10.564   1.302  0.00  0.00    +0.098 C 
ENDROOT
BRANCH  10  11
ATOM     11  C   UNL     1      -1.358 -11.056   0.916  0.00  0.00    -0.032 A 
ATOM     12  C   UNL     1      -2.460 -10.688   1.666  0.00  0.00    +0.005 A 
ATOM     13  C   UNL     1      -3.718 -11.139   1.313  0.00  0.00    +0.003 A 
ATOM     14  C   UNL     1      -3.876 -11.957   0.210  0.00  0.00    +0.038 A 
ATOM     15  C   UNL     1      -2.773 -12.326  -0.541  0.00  0.00    +0.124 A 
ATOM     16  C   UNL     1      -1.514 -11.869  -0.190  0.00  0.00    +0.043 A 
ATOM     17  F   UNL     1      -2.925 -13.127  -1.618  0.00  0.00    -0.205 F 
ENDBRANCH  10  11
BRANCH   8  18
ATOM     18  N   UNL     1       0.604 -10.746   4.995  0.00  0.00    -0.328 N 
ATOM     19  H   UNL     1       0.563 -10.174   5.777  0.00  0.00    +0.145 HD
ATOM     20  H   UNL     1       0.870 -11.675   5.087  0.00  0.00    +0.145 HD
ENDBRANCH   8  18
BRANCH   9  21
ATOM     21  C   UNL     1       0.748 -12.425   2.857  0.00  0.00    +0.101 C 
ATOM     22  N   UNL     1       1.063 -13.507   2.997  0.00  0.00    -0.191 NA
ENDBRANCH   9  21
BRANCH   1  23
ATOM     23  O   UNL     1       0.076  -4.930   1.142  0.00  0.00    -0.422 OA
BRANCH  23  24
ATOM     24  C   UNL     1      -1.064  -4.295   0.804  0.00  0.00    +0.344 C 
ATOM     25  O   UNL     1      -2.038  -4.936   0.464  0.00  0.00    -0.245 OA
BRANCH  24  30
ATOM     26  C   UNL     1      -1.316   1.450   0.975  0.00  0.00    +0.044 C 
ATOM     27  C   UNL     1      -1.250  -0.055   0.930  0.00  0.00    -0.050 A 
ATOM     28  C   UNL     1      -2.362  -0.782   0.542  0.00  0.00    +0.004 A 
ATOM     29  C   UNL     1      -2.308  -2.160   0.499  0.00  0.00    +0.015 A 
ATOM     30  C   UNL     1      -1.129  -2.820   0.848  0.00  0.00    +0.059 A 
ATOM     31  C   UNL     1      -0.011  -2.081   1.239  0.00  0.00    +0.015 A 
ATOM     32  C   UNL     1      -0.077  -0.703   1.272  0.00  0.00    +0.004 A 
ENDBRANCH  24  30
ENDBRANCH  23  24
ENDBRANCH   1  23
TORSDOF 6
