REMARK  Name = ZINC37216702
REMARK  4 active torsions:
REMARK  status: ('A' for Active; 'I' for Inactive)
REMARK    1  A    between atoms: C_1  and  C_2
REMARK    2  A    between atoms: C_2  and  C_4
REMARK    3  A    between atoms: C_2  and  N_10
REMARK    4  A    between atoms: N_10  and  C_11
REMARK                            x       y       z     vdW  Elec       q    Type
REMARK                         _______ _______ _______ _____ _____    ______ ____
ROOT
ATOM      1  C   UNL     1      -0.015  -0.612  -2.395  0.00  0.00    +0.028 A 
ATOM      2  C   UNL     1      -1.368  -0.293  -2.441  0.00  0.00    +0.024 A 
ATOM      3  C   UNL     1      -2.078  -0.425  -3.620  0.00  0.00    +0.015 A 
ATOM      4  C   UNL     1      -1.437  -0.877  -4.765  0.00  0.00    +0.049 A 
ATOM      5  C   UNL     1      -0.064  -1.201  -4.723  0.00  0.00    +0.051 A 
ATOM      6  C   UNL     1       0.641  -1.063  -3.542  0.00  0.00    +0.036 A 
ATOM      7  C   UNL     1       0.289  -1.641  -6.090  0.00  0.00    +0.251 C 
ATOM      8  O   UNL     1       1.388  -2.004  -6.457  0.00  0.00    -0.270 OA
ATOM      9  N   UNL     1      -0.812  -1.571  -6.859  0.00  0.00    -0.248 N 
ATOM     10  C   UNL     1      -1.869  -1.130  -6.153  0.00  0.00    +0.251 C 
ATOM     11  O   UNL     1      -2.992  -0.967  -6.586  0.00  0.00    -0.270 OA
ATOM     12  H   UNL     1      -0.841  -1.806  -7.800  0.00  0.00    +0.158 HD
ENDROOT
BRANCH   1  13
ATOM     13  N   UNL     1       0.688  -0.476  -1.203  0.00  0.00    -0.337 N 
ATOM     14  H   UNL     1       1.632  -0.695  -1.170  0.00  0.00    +0.147 HD
BRANCH  13  16
ATOM     15  C   UNL     1      -0.019   1.526   0.010  0.00  0.00    +0.033 C 
ATOM     16  C   UNL     1       0.002  -0.004   0.002  0.00  0.00    +0.105 C 
BRANCH  16  17
ATOM     17  C   UNL     1       0.731  -0.503   1.223  0.00  0.00    +0.024 A 
ATOM     18  C   UNL     1       0.226  -1.063   2.350  0.00  0.00    +0.030 A 
ATOM     19  C   UNL     1       1.094  -1.451   3.353  0.00  0.00    +0.023 A 
ATOM     20  C   UNL     1       2.425  -1.260   3.180  0.00  0.00    +0.046 A 
ATOM     21  S   UNL     1       2.485  -0.518   1.558  0.00  0.00    -0.099 S 
ATOM     22 BR   UNL     1      -1.639  -1.309   2.546  0.00  0.00    -0.049 Br
ENDBRANCH  16  17
ENDBRANCH  13  16
ENDBRANCH   1  13
TORSDOF 3
