REMARK  Name = ZINC62824449
REMARK  4 active torsions:
REMARK  status: ('A' for Active; 'I' for Inactive)
REMARK    1  A    between atoms: C_3  and  N_11
REMARK    2  A    between atoms: C_4  and  C_8
REMARK    3  A    between atoms: C_12  and  C_14
REMARK    4  A    between atoms: C_19  and  N_22
REMARK                            x       y       z     vdW  Elec       q    Type
REMARK                         _______ _______ _______ _____ _____    ______ ____
ROOT
ATOM      1  N   UNL     1       3.538   2.115  -0.025  0.00  0.00    -0.285 N 
ATOM      2  C   UNL     1       3.502   3.460  -0.109  0.00  0.00    +0.220 C 
ATOM      3  O   UNL     1       2.437   4.041  -0.083  0.00  0.00    -0.275 OA
ATOM      4  H   UNL     1       4.390   1.655   0.020  0.00  0.00    +0.155 HD
ENDROOT
BRANCH   1   7
ATOM      5  C   UNL     1       0.057   1.174   0.663  0.00  0.00    +0.016 A 
ATOM      6  C   UNL     1       1.232   1.897   0.641  0.00  0.00    +0.025 A 
ATOM      7  C   UNL     1       2.352   1.387  -0.002  0.00  0.00    +0.048 A 
ATOM      8  C   UNL     1       2.281   0.133  -0.630  0.00  0.00    +0.085 A 
ATOM      9  C   UNL     1       1.083  -0.587  -0.600  0.00  0.00    +0.031 A 
ATOM     10  C   UNL     1      -0.018  -0.064   0.044  0.00  0.00    +0.014 A 
ATOM     11  I   UNL     1      -1.812  -1.145   0.087  0.00  0.00    -0.044 I 
BRANCH   8  12
ATOM     12  C   UNL     1       3.460  -0.419  -1.316  0.00  0.00    +0.388 C 
ATOM     13  O   UNL     1       3.370  -1.469  -1.938  0.00  0.00    -0.241 OA
ATOM     14  O   UNL     1       4.530   0.171  -1.264  0.00  0.00    -0.241 OA
ENDBRANCH   8  12
ENDBRANCH   1   7
BRANCH   2  15
ATOM     15  C   UNL     1       4.784   4.241  -0.235  0.00  0.00    +0.074 C 
ATOM     16  C   UNL     1       5.668   3.971   0.985  0.00  0.00    +0.012 C 
ATOM     17  C   UNL     1       4.931   4.401   2.255  0.00  0.00    -0.001 C 
ATOM     18  C   UNL     1       4.612   5.895   2.178  0.00  0.00    -0.016 C 
ATOM     19  C   UNL     1       3.728   6.166   0.959  0.00  0.00    -0.074 C 
ATOM     20  C   UNL     1       4.465   5.736  -0.311  0.00  0.00    -0.004 C 
BRANCH  19  21
ATOM     21  N   UNL     1       3.421   7.601   0.885  0.00  0.00    +0.380 N 
ATOM     22  H   UNL     1       4.280   8.124   0.800  0.00  0.00    -0.090 HD
ATOM     23  H   UNL     1       2.838   7.779   0.081  0.00  0.00    -0.090 HD
ATOM     24  H   UNL     1       2.935   7.884   1.722  0.00  0.00    -0.090 HD
ENDBRANCH  19  21
ENDBRANCH   2  15
TORSDOF 4
