REMARK  Name = ZINC08014536
REMARK  4 active torsions:
REMARK  status: ('A' for Active; 'I' for Inactive)
REMARK    1  A    between atoms: C_1  and  C_2
REMARK    2  A    between atoms: C_9  and  N_14
REMARK    3  A    between atoms: C_15  and  C_17
REMARK    4  A    between atoms: C_18  and  C_19
REMARK                            x       y       z     vdW  Elec       q    Type
REMARK                         _______ _______ _______ _____ _____    ______ ____
ROOT
ATOM      1  N   UNL     1      -1.156  -0.694   0.009  0.00  0.00    -0.282 N 
ATOM      2  C   UNL     1      -2.095  -0.041  -0.704  0.00  0.00    +0.241 C 
ATOM      3  O   UNL     1      -2.912  -0.669  -1.352  0.00  0.00    -0.270 OA
ATOM      4  H   UNL     1      -0.459  -0.195   0.464  0.00  0.00    +0.155 HD
ENDROOT
BRANCH   1  12
ATOM      5  C   UNL     1      -2.458  -8.284   0.757  0.00  0.00    +0.062 C 
ATOM      6  C   UNL     1      -2.391  -6.783   1.043  0.00  0.00    +0.256 C 
ATOM      7  C   UNL     1      -3.666  -6.126   0.576  0.00  0.00    +0.258 C 
ATOM      8  O   UNL     1      -4.703  -6.755   0.557  0.00  0.00    -0.271 OA
ATOM      9  N   UNL     1      -3.648  -4.835   0.180  0.00  0.00    -0.279 N 
ATOM     10  C   UNL     1      -2.430  -4.141   0.180  0.00  0.00    +0.077 A 
ATOM     11  C   UNL     1      -2.404  -2.759   0.101  0.00  0.00    +0.050 A 
ATOM     12  C   UNL     1      -1.187  -2.091   0.095  0.00  0.00    +0.036 A 
ATOM     13  C   UNL     1      -0.000  -2.808   0.179  0.00  0.00    +0.027 A 
ATOM     14  C   UNL     1      -0.026  -4.187   0.264  0.00  0.00    +0.049 A 
ATOM     15  C   UNL     1      -1.237  -4.857   0.265  0.00  0.00    +0.143 A 
ATOM     16  O   UNL     1      -1.277  -6.215   0.350  0.00  0.00    -0.478 OA
ATOM     17  H   UNL     1      -4.466  -4.395  -0.100  0.00  0.00    +0.155 HD
ENDBRANCH   1  12
BRANCH   2  18
ATOM     18  C   UNL     1      -2.132   1.422  -0.700  0.00  0.00    +0.068 C 
ATOM     19  C   UNL     1      -3.071   2.075  -1.414  0.00  0.00    +0.013 C 
BRANCH  19  20
ATOM     20  C   UNL     1      -3.108   3.546  -1.409  0.00  0.00    -0.023 A 
ATOM     21  C   UNL     1      -4.082   4.226  -2.149  0.00  0.00    +0.009 A 
ATOM     22  C   UNL     1      -4.111   5.604  -2.140  0.00  0.00    +0.022 A 
ATOM     23  C   UNL     1      -3.180   6.316  -1.402  0.00  0.00    +0.059 A 
ATOM     24  C   UNL     1      -2.212   5.649  -0.667  0.00  0.00    +0.060 A 
ATOM     25  C   UNL     1      -2.175   4.270  -0.661  0.00  0.00    +0.029 A 
ATOM     26 CL   UNL     1      -1.050   6.551   0.255  0.00  0.00    -0.082 Cl
ATOM     27 CL   UNL     1      -3.225   8.052  -1.397  0.00  0.00    -0.082 Cl
ENDBRANCH  19  20
ENDBRANCH   2  18
TORSDOF 3
