REMARK  Name = ZINC22223779
REMARK  3 active torsions:
REMARK  status: ('A' for Active; 'I' for Inactive)
REMARK    1  A    between atoms: C_3  and  C_9
REMARK    2  A    between atoms: C_4  and  N_8
REMARK    3  A    between atoms: C_15  and  C_18
REMARK                            x       y       z     vdW  Elec       q    Type
REMARK                         _______ _______ _______ _____ _____    ______ ____
ROOT
ATOM      1  C   UNL     1      -4.554   1.934   1.456  0.00  0.00    +0.248 C 
ATOM      2  O   UNL     1      -4.658   0.724   1.409  0.00  0.00    -0.270 OA
ATOM      3  N   UNL     1      -3.340   2.511   1.352  0.00  0.00    -0.297 N 
ATOM      4  C   UNL     1      -3.208   3.972   1.282  0.00  0.00    +0.108 C 
ATOM      5  C   UNL     1      -2.385   4.335   0.042  0.00  0.00    +0.020 C 
ATOM      6  C   UNL     1      -1.052   3.585   0.083  0.00  0.00    +0.016 C 
ATOM      7  C   UNL     1      -1.312   2.077   0.066  0.00  0.00    +0.092 C 
ATOM      8  C   UNL     1      -2.122   1.689   1.306  0.00  0.00    +0.120 C 
ENDROOT
BRANCH   1  11
ATOM      9  C   UNL     1      -6.943   4.485   2.820  0.00  0.00    +0.021 A 
ATOM     10  C   UNL     1      -5.818   3.705   2.665  0.00  0.00    +0.016 A 
ATOM     11  C   UNL     1      -5.754   2.772   1.627  0.00  0.00    +0.058 A 
ATOM     12  C   UNL     1      -6.839   2.640   0.745  0.00  0.00    +0.038 A 
ATOM     13  C   UNL     1      -7.967   3.429   0.920  0.00  0.00    +0.043 A 
ATOM     14  C   UNL     1      -8.015   4.348   1.950  0.00  0.00    +0.043 A 
ATOM     15 CL   UNL     1      -9.426   5.338   2.159  0.00  0.00    -0.083 Cl
BRANCH  12  16
ATOM     16  N   UNL     1      -6.785   1.720  -0.294  0.00  0.00    -0.357 N 
ATOM     17  H   UNL     1      -7.636   1.619  -0.984  0.00  0.00    +0.142 HD
ATOM     18  H   UNL     1      -5.891   1.092  -0.428  0.00  0.00    +0.142 HD
ENDBRANCH  12  16
ENDBRANCH   1  11
BRANCH   7  19
ATOM     19  C   UNL     1       0.003   1.340   0.073  0.00  0.00    +0.215 C 
ATOM     20  O   UNL     1       1.045   1.960   0.082  0.00  0.00    -0.276 OA
ATOM     21  N   UNL     1       0.020  -0.007   0.065  0.00  0.00    -0.329 N 
ATOM     22  H   UNL     1       0.979  -0.545   0.070  0.00  0.00    +0.145 HD
ATOM     23  H   UNL     1      -0.926  -0.569   0.052  0.00  0.00    +0.145 HD
ENDBRANCH   7  19
TORSDOF 3
