REMARK  Name = ZINC05337953
REMARK  7 active torsions:
REMARK  status: ('A' for Active; 'I' for Inactive)
REMARK    1  A    between atoms: C_1  and  C_2
REMARK    2  A    between atoms: N_6  and  N_7
REMARK    3  A    between atoms: N_8  and  N_9
REMARK    4  A    between atoms: C_10  and  C_11
REMARK    5  A    between atoms: C_14  and  N_18
REMARK    6  A    between atoms: N_18  and  C_19
REMARK    7  A    between atoms: N_18  and  C_20
REMARK                            x       y       z     vdW  Elec       q    Type
REMARK                         _______ _______ _______ _____ _____    ______ ____
ROOT
ATOM      1  N   UNL     1      -1.002   3.564   0.026  0.00  0.00    -0.188 NA
ATOM      2  C   UNL     1      -2.056   4.321   0.036  0.00  0.00    +0.138 C 
ENDROOT
BRANCH   1   9
ATOM      3  C   UNL     1       1.872  -1.760  -0.026  0.00  0.00    +0.090 C 
ATOM      4  C   UNL     1       1.322  -0.357  -0.013  0.00  0.00    +0.149 A 
ATOM      5  N   UNL     1       2.018   0.745  -0.013  0.00  0.00    -0.131 NA
ATOM      6  N   UNL     1       1.233   1.763  -0.000  0.00  0.00    -0.110 NA
ATOM      7  C   UNL     1      -0.016   1.361   0.009  0.00  0.00    +0.254 A 
ATOM      8  N   UNL     1       0.002  -0.004   0.002  0.00  0.00    -0.220 N 
ATOM      9  N   UNL     1      -1.141   2.170   0.019  0.00  0.00    -0.204 N 
ATOM     10  H   UNL     1      -2.025   1.770   0.022  0.00  0.00    +0.177 HD
BRANCH   8  11
ATOM     11  N   UNL     1      -1.076  -0.843   0.008  0.00  0.00    -0.294 N 
ATOM     12  H   UNL     1      -1.370  -1.061  -0.933  0.00  0.00    +0.163 HD
ATOM     13  H   UNL     1      -0.876  -1.685   0.528  0.00  0.00    +0.163 HD
ENDBRANCH   8  11
ENDBRANCH   1   9
BRANCH   2  14
ATOM     14  C   UNL     1      -1.909   5.788   0.043  0.00  0.00    -0.004 A 
ATOM     15  C   UNL     1      -0.636   6.365   0.046  0.00  0.00    +0.011 A 
ATOM     16  C   UNL     1      -0.503   7.736   0.047  0.00  0.00    +0.025 A 
ATOM     17  C   UNL     1      -1.633   8.546   0.057  0.00  0.00    +0.043 A 
ATOM     18  C   UNL     1      -2.902   7.976   0.060  0.00  0.00    +0.039 A 
ATOM     19  C   UNL     1      -3.043   6.605   0.053  0.00  0.00    +0.026 A 
ATOM     20 BR   UNL     1      -4.435   9.084   0.073  0.00  0.00    -0.048 Br
BRANCH  17  21
ATOM     21  N   UNL     1      -1.493   9.935   0.065  0.00  0.00    -0.335 N 
ATOM     22  C   UNL     1      -0.753  10.384   1.252  0.00  0.00    +0.129 C 
ATOM     23  C   UNL     1      -0.848  10.407  -1.168  0.00  0.00    +0.129 C 
ENDBRANCH  17  21
ENDBRANCH   2  14
TORSDOF 4
