REMARK  Name = ZINC44234569
REMARK  6 active torsions:
REMARK  status: ('A' for Active; 'I' for Inactive)
REMARK    1  A    between atoms: C_2  and  N_15
REMARK    2  A    between atoms: C_6  and  C_7
REMARK    3  A    between atoms: C_7  and  C_9
REMARK    4  A    between atoms: C_7  and  N_12
REMARK    5  A    between atoms: C_9  and  C_10
REMARK    6  A    between atoms: C_10  and  O_11
REMARK                            x       y       z     vdW  Elec       q    Type
REMARK                         _______ _______ _______ _____ _____    ______ ____
ROOT
ATOM      1  C   UNL     1      -0.017   1.377   0.010  0.00  0.00    +0.038 A 
ATOM      2  C   UNL     1       1.171   2.086   0.002  0.00  0.00    +0.128 A 
ATOM      3  C   UNL     1       2.379   1.415  -0.013  0.00  0.00    +0.051 A 
ATOM      4  C   UNL     1       2.404   0.033  -0.021  0.00  0.00    +0.067 A 
ATOM      5  C   UNL     1       1.213  -0.680  -0.014  0.00  0.00    +0.195 A 
ATOM      6  C   UNL     1       0.002  -0.004   0.002  0.00  0.00    -0.012 A 
ATOM      7  O   UNL     1       1.234  -2.039  -0.022  0.00  0.00    -0.287 OA
ATOM      8 BR   UNL     1       4.057  -0.884  -0.043  0.00  0.00    -0.046 Br
ENDROOT
BRANCH   2   9
ATOM      9  N   UNL     1       1.147   3.566   0.010  0.00  0.00    +0.056 N 
ATOM     10  O   UNL     1       0.091   4.154   0.023  0.00  0.00    -0.126 OA
ATOM     11  O   UNL     1       2.184   4.187   0.003  0.00  0.00    -0.126 OA
ENDBRANCH   2   9
BRANCH   6  12
ATOM     12  C   UNL     1      -1.292  -0.776   0.011  0.00  0.00    -0.038 C 
BRANCH  12  13
ATOM     13  N   UNL     1      -2.361   0.055  -0.559  0.00  0.00    +0.383 N 
ATOM     14  H   UNL     1      -2.124   0.303  -1.508  0.00  0.00    -0.089 HD
ATOM     15  H   UNL     1      -3.228  -0.462  -0.554  0.00  0.00    -0.089 HD
ATOM     16  H   UNL     1      -2.466   0.893  -0.008  0.00  0.00    -0.089 HD
ENDBRANCH  12  13
BRANCH  12  17
ATOM     17  C   UNL     1      -1.652  -1.153   1.449  0.00  0.00    +0.016 C 
BRANCH  17  18
ATOM     18  C   UNL     1      -2.897  -2.041   1.448  0.00  0.00    +0.154 C 
BRANCH  18  19
ATOM     19  O   UNL     1      -3.233  -2.393   2.792  0.00  0.00    -0.395 OA
ATOM     20  H   UNL     1      -4.015  -2.957   2.867  0.00  0.00    +0.209 HD
ENDBRANCH  18  19
ENDBRANCH  17  18
ENDBRANCH  12  17
ENDBRANCH   6  12
TORSDOF 6
