REMARK  Name = ZINC44383848
REMARK  4 active torsions:
REMARK  status: ('A' for Active; 'I' for Inactive)
REMARK    1  A    between atoms: C_1  and  C_2
REMARK    2  A    between atoms: C_3  and  C_9
REMARK    3  A    between atoms: C_4  and  N_8
REMARK    4  A    between atoms: C_15  and  O_18
REMARK                            x       y       z     vdW  Elec       q    Type
REMARK                         _______ _______ _______ _____ _____    ______ ____
ROOT
ATOM      1  C   UNL     1      -0.018   1.503   0.010  0.00  0.00    +0.068 C 
ATOM      2  C   UNL     1       0.002  -0.004   0.002  0.00  0.00    +0.074 A 
ATOM      3  C   UNL     1       0.008  -0.828  -1.149  0.00  0.00    +0.098 A 
ATOM      4  C   UNL     1       0.029  -2.147  -0.704  0.00  0.00    +0.124 A 
ATOM      5  N   UNL     1       0.034  -2.112   0.644  0.00  0.00    -0.264 N 
ATOM      6  H   UNL     1       0.048  -2.883   1.232  0.00  0.00    +0.190 HD
ATOM      7  N   UNL     1       0.023  -0.774   1.053  0.00  0.00    -0.177 NA
ENDROOT
BRANCH   3   8
ATOM      8  C   UNL     1      -0.005  -0.377  -2.545  0.00  0.00    +0.252 C 
ATOM      9  O   UNL     1       1.043  -0.175  -3.130  0.00  0.00    -0.270 OA
ATOM     10  N   UNL     1      -1.178  -0.186  -3.181  0.00  0.00    -0.295 N 
ATOM     11  C   UNL     1      -2.452  -0.420  -2.487  0.00  0.00    +0.108 C 
ATOM     12  C   UNL     1      -3.320   0.836  -2.612  0.00  0.00    +0.021 C 
ATOM     13  C   UNL     1      -3.467   1.204  -4.090  0.00  0.00    +0.034 C 
ATOM     14  C   UNL     1      -2.089   1.508  -4.683  0.00  0.00    +0.132 C 
ATOM     15  C   UNL     1      -1.208   0.265  -4.579  0.00  0.00    +0.139 C 
BRANCH  14  16
ATOM     16  O   UNL     1      -2.231   1.881  -6.054  0.00  0.00    -0.390 OA
ATOM     17  H   UNL     1      -1.395   2.088  -6.494  0.00  0.00    +0.210 HD
ENDBRANCH  14  16
ENDBRANCH   3   8
BRANCH   4  18
ATOM     18  N   UNL     1       0.041  -3.279  -1.494  0.00  0.00    -0.343 N 
ATOM     19  H   UNL     1       0.035  -3.196  -2.460  0.00  0.00    +0.144 HD
ATOM     20  H   UNL     1       0.055  -4.157  -1.083  0.00  0.00    +0.144 HD
ENDBRANCH   4  18
TORSDOF 3
