REMARK  Name = ZINC40725539
REMARK  4 active torsions:
REMARK  status: ('A' for Active; 'I' for Inactive)
REMARK    1  A    between atoms: C_4  and  S_7
REMARK    2  A    between atoms: S_7  and  C_8
REMARK    3  A    between atoms: C_9  and  N_21
REMARK    4  A    between atoms: C_10  and  N_14
REMARK                            x       y       z     vdW  Elec       q    Type
REMARK                         _______ _______ _______ _____ _____    ______ ____
ROOT
ATOM      1  C   UNL     1       3.492  -2.534   0.021  0.00  0.00    +0.127 A 
ATOM      2  C   UNL     1       4.464  -3.525   0.174  0.00  0.00    +0.098 A 
ATOM      3  C   UNL     1       4.040  -4.840   0.370  0.00  0.00    +0.146 A 
ATOM      4  N   UNL     1       2.734  -5.098   0.404  0.00  0.00    -0.219 NA
ATOM      5  C   UNL     1       1.849  -4.134   0.255  0.00  0.00    +0.224 A 
ATOM      6  N   UNL     1       2.207  -2.879   0.073  0.00  0.00    -0.227 NA
ENDROOT
BRANCH   3   7
ATOM      7  N   UNL     1       4.966  -5.864   0.528  0.00  0.00    -0.314 N 
ATOM      8  C   UNL     1       5.402  -6.591  -0.643  0.00  0.00    +0.106 C 
ATOM      9  C   UNL     1       4.460  -7.796  -0.887  0.00  0.00    +0.019 C 
ATOM     10  C   UNL     1       4.676  -8.829   0.138  0.00  0.00    +0.002 C 
ATOM     11  C   UNL     1       4.355  -8.380   1.560  0.00  0.00    +0.002 C 
ATOM     12  C   UNL     1       5.555  -7.679   2.147  0.00  0.00    +0.019 C 
ATOM     13  C   UNL     1       5.468  -6.161   1.884  0.00  0.00    +0.106 C 
ENDBRANCH   3   7
BRANCH   2  14
ATOM     14  N   UNL     1       5.831  -3.207   0.132  0.00  0.00    -0.353 N 
ATOM     15  H   UNL     1       6.112  -2.280   0.085  0.00  0.00    +0.142 HD
ATOM     16  H   UNL     1       6.494  -3.914   0.149  0.00  0.00    +0.142 HD
ENDBRANCH   2  14
BRANCH   1  17
ATOM     17  S   UNL     1       3.958  -0.854  -0.229  0.00  0.00    -0.068 S 
BRANCH  17  21
ATOM     18  C   UNL     1       0.011   1.337  -0.592  0.00  0.00    +0.000 A 
ATOM     19  C   UNL     1       0.558   1.104   0.656  0.00  0.00    +0.001 A 
ATOM     20  C   UNL     1       1.761   0.436   0.771  0.00  0.00    +0.015 A 
ATOM     21  C   UNL     1       2.422  -0.002  -0.370  0.00  0.00    +0.014 A 
ATOM     22  C   UNL     1       1.869   0.234  -1.623  0.00  0.00    +0.015 A 
ATOM     23  C   UNL     1       0.666   0.903  -1.730  0.00  0.00    +0.001 A 
ENDBRANCH  17  21
ENDBRANCH   1  17
TORSDOF 4
