REMARK  Name = ZINC40755065
REMARK  5 active torsions:
REMARK  status: ('A' for Active; 'I' for Inactive)
REMARK    1  A    between atoms: C_1  and  C_2
REMARK    2  A    between atoms: C_6  and  N_9
REMARK    3  A    between atoms: C_7  and  C_8
REMARK    4  A    between atoms: C_11  and  N_24
REMARK    5  A    between atoms: C_12  and  N_16
REMARK                            x       y       z     vdW  Elec       q    Type
REMARK                         _______ _______ _______ _____ _____    ______ ____
ROOT
ATOM      1  N   UNL     1       0.055  -2.797   2.391  0.00  0.00    -0.298 N 
ATOM      2  C   UNL     1      -0.033  -4.185   2.384  0.00  0.00    +0.149 A 
ATOM      3  C   UNL     1      -0.131  -4.896   3.582  0.00  0.00    +0.106 A 
ATOM      4  C   UNL     1      -0.216  -6.287   3.517  0.00  0.00    +0.150 A 
ATOM      5  N   UNL     1      -0.202  -6.879   2.325  0.00  0.00    -0.219 NA
ATOM      6  C   UNL     1      -0.108  -6.171   1.218  0.00  0.00    +0.225 A 
ATOM      7  N   UNL     1      -0.031  -4.856   1.234  0.00  0.00    -0.219 NA
ATOM      8  H   UNL     1       0.137  -2.321   3.232  0.00  0.00    +0.154 HD
ENDROOT
BRANCH   4   9
ATOM      9  N   UNL     1      -0.315  -7.044   4.680  0.00  0.00    -0.283 N 
ATOM     10  C   UNL     1      -0.294  -8.434   4.610  0.00  0.00    +0.124 A 
ATOM     11  C   UNL     1      -0.287  -9.183   5.782  0.00  0.00    +0.045 A 
ATOM     12  C   UNL     1      -0.267 -10.563   5.699  0.00  0.00    +0.025 A 
ATOM     13  C   UNL     1      -0.254 -11.151   4.439  0.00  0.00    +0.059 A 
ATOM     14  C   UNL     1      -0.262 -10.346   3.317  0.00  0.00    +0.132 A 
ATOM     15  N   UNL     1      -0.287  -9.031   3.428  0.00  0.00    -0.239 NA
ATOM     16 CL   UNL     1      -0.228 -12.880   4.279  0.00  0.00    -0.082 Cl
ATOM     17  H   UNL     1      -0.398  -6.603   5.540  0.00  0.00    +0.155 HD
ENDBRANCH   4   9
BRANCH   1  23
ATOM     18  C   UNL     1       1.201   1.237  -0.172  0.00  0.00    +0.044 C 
ATOM     19  C   UNL     1       0.574  -0.130  -0.084  0.00  0.00    -0.046 A 
ATOM     20  C   UNL     1      -0.032  -0.685  -1.197  0.00  0.00    +0.004 A 
ATOM     21  C   UNL     1      -0.609  -1.939  -1.121  0.00  0.00    +0.002 A 
ATOM     22  C   UNL     1      -0.582  -2.642   0.068  0.00  0.00    +0.023 A 
ATOM     23  C   UNL     1       0.026  -2.088   1.187  0.00  0.00    +0.036 A 
ATOM     24  C   UNL     1       0.610  -0.830   1.106  0.00  0.00    -0.026 A 
ATOM     25  C   UNL     1       1.275  -0.227   2.316  0.00  0.00    +0.046 C 
ENDBRANCH   1  23
BRANCH   3  26
ATOM     26  N   UNL     1      -0.142  -4.229   4.817  0.00  0.00    -0.353 N 
ATOM     27  H   UNL     1      -0.081  -3.262   4.846  0.00  0.00    +0.143 HD
ATOM     28  H   UNL     1      -0.210  -4.736   5.641  0.00  0.00    +0.143 HD
ENDBRANCH   3  26
TORSDOF 3
