REMARK  Name = ZINC36749008
REMARK  5 active torsions:
REMARK  status: ('A' for Active; 'I' for Inactive)
REMARK    1  A    between atoms: C_1  and  C_2
REMARK    2  A    between atoms: C_3  and  N_17
REMARK    3  A    between atoms: C_4  and  N_8
REMARK    4  A    between atoms: N_5  and  C_7
REMARK    5  A    between atoms: C_12  and  C_14
REMARK                            x       y       z     vdW  Elec       q    Type
REMARK                         _______ _______ _______ _____ _____    ______ ____
ROOT
ATOM      1  C   UNL     1      -0.547  -0.127   3.184  0.00  0.00    +0.069 C 
ATOM      2  C   UNL     1      -0.952  -1.186   2.191  0.00  0.00    +0.082 A 
ATOM      3  C   UNL     1      -0.119  -1.765   1.226  0.00  0.00    +0.088 A 
ATOM      4  C   UNL     1      -0.858  -2.675   0.529  0.00  0.00    +0.141 A 
ATOM      5  N   UNL     1      -2.116  -2.661   1.047  0.00  0.00    -0.252 N 
ATOM      6  N   UNL     1      -2.142  -1.723   2.087  0.00  0.00    -0.173 NA
ATOM      7  C   UNL     1      -3.242  -3.484   0.600  0.00  0.00    +0.174 C 
ENDROOT
BRANCH   4   8
ATOM      8  N   UNL     1      -0.406  -3.475  -0.523  0.00  0.00    -0.302 N 
ATOM      9  C   UNL     1      -0.299  -3.059  -1.934  0.00  0.00    +0.107 C 
ATOM     10  C   UNL     1       0.776  -3.994  -2.543  0.00  0.00    +0.021 C 
ATOM     11  C   UNL     1       0.474  -5.331  -1.816  0.00  0.00    +0.033 C 
ATOM     12  C   UNL     1       0.049  -4.868  -0.407  0.00  0.00    +0.160 C 
BRANCH  12  13
ATOM     13  C   UNL     1       1.222  -4.947   0.537  0.00  0.00    +0.231 C 
ATOM     14  O   UNL     1       1.961  -3.994   0.666  0.00  0.00    -0.274 OA
ATOM     15  N   UNL     1       1.449  -6.077   1.236  0.00  0.00    -0.328 N 
ATOM     16  H   UNL     1       0.858  -6.839   1.132  0.00  0.00    +0.145 HD
ATOM     17  H   UNL     1       2.204  -6.128   1.843  0.00  0.00    +0.145 HD
ENDBRANCH  12  13
ENDBRANCH   4   8
BRANCH   3  18
ATOM     18  N   UNL     1       1.245  -1.460   1.013  0.00  0.00    -0.354 N 
ATOM     19  H   UNL     1       1.712  -0.871   1.625  0.00  0.00    +0.142 HD
ATOM     20  H   UNL     1       1.714  -1.840   0.253  0.00  0.00    +0.142 HD
ENDBRANCH   3  18
TORSDOF 3
