REMARK  Name = ZINC37907709
REMARK  5 active torsions:
REMARK  status: ('A' for Active; 'I' for Inactive)
REMARK    1  A    between atoms: C_1  and  C_2
REMARK    2  A    between atoms: C_5  and  N_9
REMARK    3  A    between atoms: N_9  and  C_10
REMARK    4  A    between atoms: C_10  and  C_12
REMARK    5  A    between atoms: C_10  and  C_13
REMARK                            x       y       z     vdW  Elec       q    Type
REMARK                         _______ _______ _______ _____ _____    ______ ____
ROOT
ATOM      1  N   UNL     1       0.058  -4.168  -0.021  0.00  0.00    -0.336 N 
ATOM      2  H   UNL     1       0.060  -4.648  -0.864  0.00  0.00    +0.147 HD
ENDROOT
BRANCH   1   7
ATOM      3  C   UNL     1      -0.018   1.503   0.010  0.00  0.00    +0.045 C 
ATOM      4  C   UNL     1       0.002  -0.004   0.002  0.00  0.00    -0.037 A 
ATOM      5  C   UNL     1       0.006  -0.687  -1.200  0.00  0.00    +0.006 A 
ATOM      6  C   UNL     1       0.024  -2.068  -1.212  0.00  0.00    +0.023 A 
ATOM      7  C   UNL     1       0.040  -2.771  -0.013  0.00  0.00    +0.029 A 
ATOM      8  C   UNL     1       0.036  -2.082   1.193  0.00  0.00    +0.037 A 
ATOM      9  C   UNL     1       0.023  -0.701   1.197  0.00  0.00    +0.018 A 
ATOM     10  I   UNL     1       0.027   0.340   3.015  0.00  0.00    -0.043 I 
ENDBRANCH   1   7
BRANCH   1  11
ATOM     11  C   UNL     1       0.074  -4.907   1.243  0.00  0.00    +0.118 C 
ATOM     12  C   UNL     1      -1.358  -5.076   1.754  0.00  0.00    +0.034 C 
BRANCH  11  13
ATOM     13  C   UNL     1       0.692  -6.265   1.023  0.00  0.00    +0.083 A 
ATOM     14  C   UNL     1       1.318  -7.048   1.998  0.00  0.00    +0.046 A 
ATOM     15  C   UNL     1       1.738  -8.191   1.407  0.00  0.00    +0.105 A 
ATOM     16  N   UNL     1       1.389  -8.132   0.104  0.00  0.00    -0.284 N 
ATOM     17  H   UNL     1       1.562  -8.814  -0.564  0.00  0.00    +0.188 HD
ATOM     18  N   UNL     1       0.729  -6.916  -0.111  0.00  0.00    -0.177 NA
ENDBRANCH  11  13
ENDBRANCH   1  11
TORSDOF 3
