REMARK  Name = ZINC37487646
REMARK  6 active torsions:
REMARK  status: ('A' for Active; 'I' for Inactive)
REMARK    1  A    between atoms: C_1  and  C_2
REMARK    2  A    between atoms: C_5  and  C_8
REMARK    3  A    between atoms: C_8  and  N_9
REMARK    4  A    between atoms: N_9  and  C_10
REMARK    5  A    between atoms: C_11  and  N_20
REMARK    6  A    between atoms: N_12  and  C_19
REMARK                            x       y       z     vdW  Elec       q    Type
REMARK                         _______ _______ _______ _____ _____    ______ ____
ROOT
ATOM      1  C   UNL     1       1.723  -6.133  -0.041  0.00  0.00    +0.131 A 
ATOM      2  C   UNL     1       3.015  -6.583  -0.045  0.00  0.00    +0.127 A 
ATOM      3  N   UNL     1       3.257  -7.938  -0.054  0.00  0.00    -0.284 N 
ATOM      4  C   UNL     1       2.234  -8.812  -0.058  0.00  0.00    +0.331 A 
ATOM      5  O   UNL     1       2.467 -10.006  -0.066  0.00  0.00    -0.246 OA
ATOM      6  N   UNL     1       0.958  -8.387  -0.055  0.00  0.00    -0.273 N 
ATOM      7  H   UNL     1       0.236  -9.034  -0.058  0.00  0.00    +0.173 HD
ATOM      8  C   UNL     1       0.674  -7.069  -0.040  0.00  0.00    +0.277 A 
ATOM      9  O   UNL     1      -0.486  -6.692  -0.031  0.00  0.00    -0.266 OA
ATOM     10  C   UNL     1       4.637  -8.432  -0.058  0.00  0.00    +0.155 C 
ENDROOT
BRANCH   2  11
ATOM     11  N   UNL     1       4.062  -5.691  -0.040  0.00  0.00    -0.343 N 
ATOM     12  H   UNL     1       3.886  -4.737  -0.034  0.00  0.00    +0.144 HD
ATOM     13  H   UNL     1       4.977  -6.015  -0.043  0.00  0.00    +0.144 HD
ENDBRANCH   2  11
BRANCH   1  14
ATOM     14  N   UNL     1       1.447  -4.746  -0.032  0.00  0.00    -0.333 N 
ATOM     15  H   UNL     1       2.176  -4.106  -0.032  0.00  0.00    +0.147 HD
BRANCH  14  16
ATOM     16  C   UNL     1       0.059  -4.275  -0.021  0.00  0.00    +0.137 C 
BRANCH  16  21
ATOM     17  C   UNL     1      -0.018   1.503   0.010  0.00  0.00    +0.044 C 
ATOM     18  C   UNL     1       0.002  -0.004   0.002  0.00  0.00    -0.050 A 
ATOM     19  C   UNL     1       0.006  -0.689  -1.199  0.00  0.00    +0.003 A 
ATOM     20  C   UNL     1       0.025  -2.071  -1.206  0.00  0.00    +0.005 A 
ATOM     21  C   UNL     1       0.040  -2.768  -0.013  0.00  0.00    -0.030 A 
ATOM     22  C   UNL     1       0.037  -2.084   1.188  0.00  0.00    +0.005 A 
ATOM     23  C   UNL     1       0.023  -0.702   1.195  0.00  0.00    +0.003 A 
ENDBRANCH  16  21
ENDBRANCH  14  16
ENDBRANCH   1  14
TORSDOF 4
