REMARK  Name = ZINC26686158
REMARK  9 active torsions:
REMARK  status: ('A' for Active; 'I' for Inactive)
REMARK    1  A    between atoms: C_1  and  C_2
REMARK    2  A    between atoms: C_4  and  C_13
REMARK    3  A    between atoms: C_6  and  S_9
REMARK    4  A    between atoms: C_7  and  C_8
REMARK    5  A    between atoms: S_9  and  N_12
REMARK    6  A    between atoms: N_15  and  C_16
REMARK    7  A    between atoms: C_18  and  C_25
REMARK    8  A    between atoms: C_21  and  O_22
REMARK    9  A    between atoms: O_22  and  C_23
REMARK                            x       y       z     vdW  Elec       q    Type
REMARK                         _______ _______ _______ _____ _____    ______ ____
ROOT
ATOM      1  C   UNL     1      -0.056   1.501   0.012  0.00  0.00    +0.044 C 
ATOM      2  C   UNL     1      -0.032  -0.006   0.003  0.00  0.00    -0.045 A 
ATOM      3  C   UNL     1      -0.017  -0.687  -1.197  0.00  0.00    +0.016 A 
ATOM      4  C   UNL     1       0.006  -2.083  -1.203  0.00  0.00    +0.039 A 
ATOM      5  C   UNL     1       0.014  -2.780   0.006  0.00  0.00    +0.041 A 
ATOM      6  C   UNL     1      -0.001  -2.087   1.198  0.00  0.00    +0.109 A 
ATOM      7  C   UNL     1      -0.018  -0.703   1.198  0.00  0.00    -0.021 A 
ATOM      8  C   UNL     1      -0.029   0.047   2.505  0.00  0.00    +0.046 C 
ENDROOT
BRANCH   4   9
ATOM      9  C   UNL     1       0.021  -2.819  -2.485  0.00  0.00    +0.248 C 
ATOM     10  O   UNL     1       0.042  -4.035  -2.487  0.00  0.00    -0.270 OA
ATOM     11  N   UNL     1       0.013  -2.143  -3.651  0.00  0.00    -0.279 N 
ATOM     12  H   UNL     1      -0.068  -1.176  -3.650  0.00  0.00    +0.155 HD
BRANCH  11  13
ATOM     13  C   UNL     1       0.122  -2.836  -4.863  0.00  0.00    +0.076 A 
ATOM     14  C   UNL     1      -0.452  -4.091  -5.001  0.00  0.00    +0.031 A 
ATOM     15  C   UNL     1      -0.343  -4.773  -6.198  0.00  0.00    -0.030 A 
ATOM     16  C   UNL     1       0.338  -4.207  -7.261  0.00  0.00    +0.047 A 
ATOM     17  C   UNL     1       0.913  -2.955  -7.131  0.00  0.00    +0.067 A 
ATOM     18  C   UNL     1       0.802  -2.263  -5.936  0.00  0.00    +0.143 A 
ATOM     19 CL   UNL     1       0.472  -5.070  -8.762  0.00  0.00    -0.083 Cl
ATOM     20  C   UNL     1      -0.967  -6.137  -6.345  0.00  0.00    +0.045 C 
BRANCH  18  21
ATOM     21  O   UNL     1       1.362  -1.031  -5.808  0.00  0.00    -0.493 OA
ATOM     22  C   UNL     1       2.044  -0.506  -6.950  0.00  0.00    +0.277 C 
ENDBRANCH  18  21
ENDBRANCH  11  13
ENDBRANCH   4   9
BRANCH   6  23
ATOM     23  S   UNL     1       0.009  -2.965   2.726  0.00  0.00    +0.056 S 
ATOM     24  O   UNL     1      -1.028  -2.408   3.522  0.00  0.00    -0.153 OA
ATOM     25  O   UNL     1       0.060  -4.347   2.399  0.00  0.00    -0.153 OA
BRANCH  23  26
ATOM     26  N   UNL     1       1.435  -2.606   3.488  0.00  0.00    -0.204 NA
ATOM     27  H   UNL     1       2.072  -2.006   3.068  0.00  0.00    +0.144 HD
ATOM     28  H   UNL     1       1.634  -2.996   4.354  0.00  0.00    +0.144 HD
ENDBRANCH  23  26
ENDBRANCH   6  23
TORSDOF 5
