REMARK  Name = ZINC50430735
REMARK  9 active torsions:
REMARK  status: ('A' for Active; 'I' for Inactive)
REMARK    1  A    between atoms: C_1  and  C_2
REMARK    2  A    between atoms: C_2  and  N_3
REMARK    3  A    between atoms: C_5  and  S_9
REMARK    4  A    between atoms: C_7  and  C_8
REMARK    5  A    between atoms: S_9  and  N_12
REMARK    6  A    between atoms: N_12  and  C_13
REMARK    7  A    between atoms: C_15  and  C_20
REMARK    8  A    between atoms: C_18  and  C_19
REMARK    9  A    between atoms: C_20  and  N_21
REMARK                            x       y       z     vdW  Elec       q    Type
REMARK                         _______ _______ _______ _____ _____    ______ ____
ROOT
ATOM      1  N   UNL     1      -4.451  -3.510   1.813  0.00  0.00    -0.096 NA
ENDROOT
BRANCH   1   2
ATOM      2  C   UNL     1      -5.370  -4.251   2.560  0.00  0.00    +0.077 A 
ATOM      3  C   UNL     1      -6.434  -3.613   3.185  0.00  0.00    +0.028 A 
ATOM      4  C   UNL     1      -7.341  -4.349   3.923  0.00  0.00    -0.063 A 
ATOM      5  C   UNL     1      -7.190  -5.719   4.040  0.00  0.00    +0.002 A 
ATOM      6  C   UNL     1      -6.131  -6.356   3.419  0.00  0.00    +0.005 A 
ATOM      7  C   UNL     1      -5.224  -5.627   2.675  0.00  0.00    -0.026 A 
ATOM      8  C   UNL     1      -4.075  -6.324   1.993  0.00  0.00    +0.046 C 
BRANCH   4   9
ATOM      9  C   UNL     1      -8.496  -3.658   4.601  0.00  0.00    -0.051 C 
BRANCH   9  10
ATOM     10  N   UNL     1      -9.646  -3.616   3.688  0.00  0.00    +0.381 N 
ATOM     11  H   UNL     1      -9.914  -4.556   3.441  0.00  0.00    -0.090 HD
ATOM     12  H   UNL     1     -10.419  -3.153   4.142  0.00  0.00    -0.090 HD
ATOM     13  H   UNL     1      -9.393  -3.108   2.853  0.00  0.00    -0.090 HD
ENDBRANCH   9  10
ENDBRANCH   4   9
ENDBRANCH   1   2
BRANCH   1  14
ATOM     14  S   UNL     1      -4.626  -1.869   1.678  0.00  0.00    +0.108 S 
ATOM     15  O   UNL     1      -4.421  -1.329   2.976  0.00  0.00    -0.147 OA
ATOM     16  O   UNL     1      -5.821  -1.647   0.941  0.00  0.00    -0.147 OA
BRANCH  14  19
ATOM     17  N   UNL     1      -1.372  -0.511   0.012  0.00  0.00    -0.334 N 
ATOM     18  C   UNL     1      -2.093  -0.883   1.115  0.00  0.00    +0.134 A 
ATOM     19  C   UNL     1      -3.300  -1.284   0.675  0.00  0.00    +0.195 A 
ATOM     20  N   UNL     1      -3.317  -1.161  -0.660  0.00  0.00    -0.328 N 
ATOM     21  C   UNL     1      -2.167  -0.694  -1.064  0.00  0.00    +0.085 A 
ATOM     22  C   UNL     1      -1.788  -0.409  -2.494  0.00  0.00    +0.084 C 
ATOM     23  H   UNL     1      -4.067  -1.381  -1.235  0.00  0.00    +0.168 HD
BRANCH  17  25
ATOM     24  C   UNL     1      -0.019   1.526   0.010  0.00  0.00    +0.027 C 
ATOM     25  C   UNL     1       0.002  -0.004   0.002  0.00  0.00    +0.119 C 
ENDBRANCH  17  25
ENDBRANCH  14  19
ENDBRANCH   1  14
TORSDOF 6
