REMARK  Name = ZINC35368028
REMARK  7 active torsions:
REMARK  status: ('A' for Active; 'I' for Inactive)
REMARK    1  A    between atoms: C_1  and  C_2
REMARK    2  A    between atoms: C_2  and  C_4
REMARK    3  A    between atoms: C_2  and  N_10
REMARK    4  A    between atoms: N_6  and  C_7
REMARK    5  A    between atoms: C_7  and  C_8
REMARK    6  A    between atoms: C_7  and  C_9
REMARK    7  A    between atoms: C_17  and  N_22
REMARK                            x       y       z     vdW  Elec       q    Type
REMARK                         _______ _______ _______ _____ _____    ______ ____
ROOT
ATOM      1  N   UNL     1       0.008  -0.956  -1.113  0.00  0.00    +0.389 N 
ATOM      2  C   UNL     1      -0.668  -0.342  -2.263  0.00  0.00    -0.059 C 
ATOM      3  C   UNL     1      -0.556  -1.271  -3.476  0.00  0.00    +0.088 C 
ATOM      4  N   UNL     1      -1.078  -2.594  -3.101  0.00  0.00    -0.317 N 
ATOM      5  C   UNL     1      -0.572  -3.214  -1.866  0.00  0.00    +0.088 C 
ATOM      6  C   UNL     1      -0.683  -2.193  -0.729  0.00  0.00    -0.059 C 
ATOM      7  C   UNL     1      -2.025  -3.240  -3.891  0.00  0.00    +0.142 A 
ATOM      8  C   UNL     1      -1.608  -4.127  -4.888  0.00  0.00    +0.065 A 
ATOM      9  C   UNL     1      -2.566  -4.763  -5.666  0.00  0.00    +0.027 A 
ATOM     10  C   UNL     1      -3.905  -4.490  -5.420  0.00  0.00    +0.022 A 
ATOM     11  C   UNL     1      -4.243  -3.603  -4.419  0.00  0.00    +0.113 A 
ATOM     12  N   UNL     1      -3.312  -3.015  -3.689  0.00  0.00    -0.238 NA
ATOM     13  H   UNL     1       0.963  -1.169  -1.362  0.00  0.00    -0.081 HD
ENDROOT
BRANCH   8  14
ATOM     14  N   UNL     1      -0.245  -4.369  -5.098  0.00  0.00    -0.355 N 
ATOM     15  H   UNL     1       0.419  -3.857  -4.612  0.00  0.00    +0.142 HD
ATOM     16  H   UNL     1       0.034  -5.050  -5.730  0.00  0.00    +0.142 HD
ENDBRANCH   8  14
BRANCH   1  18
ATOM     17  C   UNL     1       0.658   1.295  -0.401  0.00  0.00    -0.004 C 
ATOM     18  C   UNL     1      -0.004  -0.019   0.018  0.00  0.00    +0.016 C 
BRANCH  18  19
ATOM     19  C   UNL     1       0.755  -0.617   1.174  0.00  0.00    +0.199 C 
ATOM     20  O   UNL     1       1.645  -1.415   0.968  0.00  0.00    -0.278 OA
ATOM     21  N   UNL     1       0.444  -0.266   2.438  0.00  0.00    -0.314 N 
ATOM     22  H   UNL     1      -0.268   0.372   2.603  0.00  0.00    +0.149 HD
BRANCH  21  23
ATOM     23  C   UNL     1       1.182  -0.848   3.562  0.00  0.00    +0.067 C 
ATOM     24  C   UNL     1       1.114   0.099   4.762  0.00  0.00    +0.027 C 
ATOM     25  C   UNL     1       0.559  -2.194   3.939  0.00  0.00    +0.027 C 
ENDBRANCH  21  23
ENDBRANCH  18  19
ENDBRANCH   1  18
TORSDOF 4
