REMARK  Name = ZINC35871552
REMARK  6 active torsions:
REMARK  status: ('A' for Active; 'I' for Inactive)
REMARK    1  A    between atoms: C_1  and  C_2
REMARK    2  A    between atoms: C_2  and  C_4
REMARK    3  A    between atoms: C_2  and  N_10
REMARK    4  A    between atoms: C_11  and  C_13
REMARK    5  A    between atoms: C_18  and  C_35
REMARK    6  A    between atoms: N_26  and  C_29
REMARK                            x       y       z     vdW  Elec       q    Type
REMARK                         _______ _______ _______ _____ _____    ______ ____
ROOT
ATOM      1  C   UNL     1      -3.465  -1.164  -1.134  0.00  0.00    +0.098 C 
ATOM      2  C   UNL     1      -3.485  -2.569  -0.532  0.00  0.00    +0.051 C 
ATOM      3  C   UNL     1      -2.732  -3.511  -1.435  0.00  0.00    -0.025 A 
ATOM      4  C   UNL     1      -2.161  -4.652  -0.897  0.00  0.00    +0.017 A 
ATOM      5  C   UNL     1      -1.461  -5.526  -1.706  0.00  0.00    +0.055 A 
ATOM      6  C   UNL     1      -1.330  -5.265  -3.058  0.00  0.00    +0.014 A 
ATOM      7  C   UNL     1      -1.899  -4.131  -3.602  0.00  0.00    +0.024 A 
ATOM      8  C   UNL     1      -2.606  -3.250  -2.788  0.00  0.00    +0.033 A 
ATOM      9  N   UNL     1      -3.184  -2.112  -3.372  0.00  0.00    -0.329 N 
ATOM     10  C   UNL     1      -4.001  -1.215  -2.569  0.00  0.00    +0.069 C 
ATOM     11  C   UNL     1      -4.069   0.200  -3.120  0.00  0.00    -0.055 C 
ATOM     12  N   UNL     1      -4.142   0.214  -4.581  0.00  0.00    +0.384 N 
ATOM     13  C   UNL     1      -2.923  -0.405  -5.124  0.00  0.00    -0.059 C 
ATOM     14  C   UNL     1      -2.955  -1.897  -4.803  0.00  0.00    +0.087 C 
ATOM     15  H   UNL     1      -4.950  -0.308  -4.884  0.00  0.00    -0.081 HD
ENDROOT
BRANCH  12  16
ATOM     16  C   UNL     1      -4.243   1.601  -5.055  0.00  0.00    -0.068 C 
ATOM     17  C   UNL     1      -5.503   2.247  -4.476  0.00  0.00    -0.015 C 
ATOM     18  C   UNL     1      -5.608   3.692  -4.970  0.00  0.00    -0.002 C 
ATOM     19  C   UNL     1      -5.684   3.704  -6.498  0.00  0.00    -0.000 C 
ATOM     20  C   UNL     1      -4.424   3.057  -7.077  0.00  0.00    -0.002 C 
ATOM     21  C   UNL     1      -4.319   1.613  -6.583  0.00  0.00    -0.015 C 
ENDBRANCH  12  16
BRANCH   1  23
ATOM     22  N   UNL     1      -1.372  -0.511   0.012  0.00  0.00    -0.308 N 
ATOM     23  C   UNL     1      -2.051  -0.643  -1.145  0.00  0.00    +0.219 C 
ATOM     24  O   UNL     1      -1.524  -0.341  -2.194  0.00  0.00    -0.275 OA
ATOM     25  H   UNL     1      -1.794  -0.752   0.852  0.00  0.00    +0.149 HD
BRANCH  22  27
ATOM     26  C   UNL     1      -0.019   1.526   0.010  0.00  0.00    +0.033 C 
ATOM     27  C   UNL     1       0.002  -0.004   0.002  0.00  0.00    +0.100 C 
BRANCH  27  28
ATOM     28  C   UNL     1       0.731  -0.503   1.223  0.00  0.00    -0.027 A 
ATOM     29  C   UNL     1       0.081  -0.558   2.442  0.00  0.00    +0.005 A 
ATOM     30  C   UNL     1       0.749  -1.016   3.562  0.00  0.00    +0.000 A 
ATOM     31  C   UNL     1       2.068  -1.420   3.463  0.00  0.00    +0.000 A 
ATOM     32  C   UNL     1       2.718  -1.365   2.244  0.00  0.00    +0.000 A 
ATOM     33  C   UNL     1       2.048  -0.911   1.123  0.00  0.00    +0.005 A 
ENDBRANCH  27  28
ENDBRANCH  22  27
ENDBRANCH   1  23
BRANCH   5  34
ATOM     34  C   UNL     1      -0.840  -6.766  -1.116  0.00  0.00    +0.417 C 
ATOM     35  F   UNL     1      -1.760  -7.819  -1.170  0.00  0.00    -0.166 F 
ATOM     36  F   UNL     1       0.304  -7.107  -1.845  0.00  0.00    -0.166 F 
ATOM     37  F   UNL     1      -0.489  -6.521   0.216  0.00  0.00    -0.166 F 
ENDBRANCH   5  34
TORSDOF 5
