REMARK  Name = ZINC45831222
REMARK  9 active torsions:
REMARK  status: ('A' for Active; 'I' for Inactive)
REMARK    1  A    between atoms: C_1  and  C_2
REMARK    2  A    between atoms: N_11  and  C_15
REMARK    3  A    between atoms: C_15  and  C_16
REMARK    4  A    between atoms: N_18  and  C_19
REMARK    5  A    between atoms: C_19  and  C_20
REMARK    6  A    between atoms: C_20  and  C_22
REMARK    7  A    between atoms: C_20  and  N_28
REMARK    8  A    between atoms: N_28  and  C_29
REMARK    9  A    between atoms: N_28  and  C_30
REMARK                            x       y       z     vdW  Elec       q    Type
REMARK                         _______ _______ _______ _____ _____    ______ ____
ROOT
ATOM      1  C   UNL     1       3.689   2.729   2.090  0.00  0.00    +0.231 C 
ATOM      2  O   UNL     1       2.673   3.063   1.518  0.00  0.00    -0.274 OA
ATOM      3  N   UNL     1       4.643   3.644   2.358  0.00  0.00    -0.316 N 
ATOM      4  H   UNL     1       5.455   3.377   2.815  0.00  0.00    +0.149 HD
ENDROOT
BRANCH   1   5
ATOM      5  C   UNL     1       3.886   1.293   2.500  0.00  0.00    +0.213 C 
BRANCH   5  15
ATOM      6  C   UNL     1       0.182   1.268   0.022  0.00  0.00    +0.010 C 
ATOM      7  C   UNL     1       0.344  -0.243  -0.159  0.00  0.00    +0.018 C 
ATOM      8  C   UNL     1      -1.029  -0.916  -0.081  0.00  0.00    +0.006 C 
ATOM      9  C   UNL     1      -0.863  -2.429  -0.241  0.00  0.00    +0.000 C 
ATOM     10  C   UNL     1       0.024  -2.969   0.882  0.00  0.00    +0.003 C 
ATOM     11  C   UNL     1       1.401  -2.303   0.808  0.00  0.00    +0.035 C 
ATOM     12  C   UNL     1       1.244  -0.792   0.943  0.00  0.00    +0.115 C 
ATOM     13  C   UNL     1       2.595  -0.116   0.908  0.00  0.00    +0.247 C 
ATOM     14  O   UNL     1       3.399  -0.129   0.000  0.00  0.00    -0.273 OA
ATOM     15  N   UNL     1       2.717   0.506   2.099  0.00  0.00    -0.215 N 
ATOM     16  C   UNL     1       1.639   0.314   2.868  0.00  0.00    +0.310 C 
ATOM     17  O   UNL     1       1.516   0.775   3.986  0.00  0.00    -0.252 OA
ATOM     18  N   UNL     1       0.706  -0.447   2.265  0.00  0.00    -0.285 N 
ATOM     19  H   UNL     1      -0.151  -0.715   2.632  0.00  0.00    +0.151 HD
ENDBRANCH   5  15
ENDBRANCH   1   5
BRANCH   3  20
ATOM     20  C   UNL     1       4.451   5.040   1.959  0.00  0.00    +0.089 C 
BRANCH  20  21
ATOM     21  C   UNL     1       5.598   5.890   2.509  0.00  0.00    -0.049 C 
BRANCH  21  22
ATOM     22  C   UNL     1       5.474   5.990   4.031  0.00  0.00    -0.023 C 
ATOM     23  C   UNL     1       5.591   4.594   4.646  0.00  0.00    +0.002 C 
ATOM     24  C   UNL     1       5.467   4.695   6.167  0.00  0.00    +0.000 C 
ATOM     25  C   UNL     1       4.109   5.300   6.529  0.00  0.00    +0.000 C 
ATOM     26  C   UNL     1       3.992   6.696   5.914  0.00  0.00    +0.000 C 
ATOM     27  C   UNL     1       4.116   6.595   4.393  0.00  0.00    +0.002 C 
ENDBRANCH  21  22
BRANCH  21  28
ATOM     28  N   UNL     1       6.881   5.263   2.163  0.00  0.00    +0.379 N 
ATOM     29  C   UNL     1       6.955   5.069   0.709  0.00  0.00    -0.096 C 
ATOM     30  C   UNL     1       7.984   6.131   2.598  0.00  0.00    -0.096 C 
ATOM     31  H   UNL     1       6.955   4.369   2.625  0.00  0.00    -0.082 HD
ENDBRANCH  21  28
ENDBRANCH  20  21
ENDBRANCH   3  20
TORSDOF 6
