REMARK  Name = ZINC62940950
REMARK  4 active torsions:
REMARK  status: ('A' for Active; 'I' for Inactive)
REMARK    1  A    between atoms: C_3  and  C_11
REMARK    2  A    between atoms: C_4  and  C_7
REMARK    3  A    between atoms: N_8  and  O_9
REMARK    4  A    between atoms: C_11  and  N_12
REMARK                            x       y       z     vdW  Elec       q    Type
REMARK                         _______ _______ _______ _____ _____    ______ ____
ROOT
ATOM      1  C   UNL     1       0.758  -0.286   0.424  0.00  0.00    +0.020 A 
ATOM      2  C   UNL     1       2.066   0.175   0.445  0.00  0.00    +0.005 A 
ATOM      3  C   UNL     1       2.327   1.446  -0.038  0.00  0.00    -0.035 A 
ATOM      4  C   UNL     1       1.271   2.214  -0.527  0.00  0.00    +0.108 A 
ATOM      5  N   UNL     1       0.033   1.736  -0.528  0.00  0.00    -0.252 NA
ATOM      6  C   UNL     1      -0.241   0.531  -0.075  0.00  0.00    +0.111 A 
ENDROOT
BRANCH   4   7
ATOM      7  C   UNL     1       1.533   3.576  -1.048  0.00  0.00    +0.181 C 
ATOM      8  N   UNL     1       1.575   4.587  -0.232  0.00  0.00    -0.070 NA
ATOM      9  N   UNL     1       1.734   3.772  -2.404  0.00  0.00    -0.339 N 
ATOM     10  H   UNL     1       1.702   3.018  -3.013  0.00  0.00    +0.144 HD
ATOM     11  H   UNL     1       1.905   4.664  -2.745  0.00  0.00    +0.144 HD
BRANCH   8  12
ATOM     12  O   UNL     1       1.473   4.375   1.165  0.00  0.00    -0.408 OA
ATOM     13  H   UNL     1       1.590   5.176   1.694  0.00  0.00    +0.328 HD
ENDBRANCH   8  12
ENDBRANCH   4   7
BRANCH   3  14
ATOM     14  C   UNL     1       3.732   1.992  -0.036  0.00  0.00    -0.041 C 
BRANCH  14  15
ATOM     15  N   UNL     1       4.298   1.892  -1.388  0.00  0.00    +0.383 N 
ATOM     16  C   UNL     1       4.410   0.480  -1.759  0.00  0.00    -0.077 C 
ATOM     17  C   UNL     1       5.316   0.185  -2.943  0.00  0.00    -0.003 C 
ATOM     18  C   UNL     1       5.081   1.220  -4.063  0.00  0.00    +0.083 C 
ATOM     19  N   UNL     1       6.020   2.292  -3.858  0.00  0.00    -0.301 NA
ATOM     20  C   UNL     1       6.526   3.055  -4.993  0.00  0.00    +0.084 C 
ATOM     21  C   UNL     1       7.223   4.295  -4.375  0.00  0.00    +0.017 C 
ATOM     22  C   UNL     1       7.019   4.151  -2.840  0.00  0.00    +0.018 C 
ATOM     23  C   UNL     1       5.812   3.195  -2.765  0.00  0.00    +0.040 C 
ATOM     24  C   UNL     1       5.617   2.552  -1.411  0.00  0.00    -0.059 C 
ATOM     25  H   UNL     1       3.683   2.357  -2.039  0.00  0.00    -0.081 HD
ENDBRANCH  14  15
ENDBRANCH   3  14
TORSDOF 4
