REMARK  Name = ZINC50271439
REMARK  2 active torsions:
REMARK  status: ('A' for Active; 'I' for Inactive)
REMARK    1  A    between atoms: C_4  and  C_6
REMARK    2  A    between atoms: C_9  and  C_14
REMARK                            x       y       z     vdW  Elec       q    Type
REMARK                         _______ _______ _______ _____ _____    ______ ____
ROOT
ATOM      1  C   UNK     1       0.770  -1.177  -1.665  0.00  0.00    -0.008 C 
ATOM      2  N   UNK     1       0.082  -2.466  -1.501  0.00  0.00    +0.396 N 
ATOM      3  C   UNK     1      -0.005  -3.160  -2.786  0.00  0.00    +0.046 C 
ATOM      4  C   UNK     1       1.347  -3.746  -3.184  0.00  0.00    +0.006 C 
ATOM      5  C   UNK     1       2.299  -2.613  -3.586  0.00  0.00    +0.066 C 
ATOM      6  S   UNK     1       2.490  -1.492  -2.164  0.00  0.00    -0.176 S 
ATOM      7  H   UNK     1       0.594  -3.037  -0.846  0.00  0.00    -0.083 HD
ATOM      8  H   UNK     1      -0.848  -2.305  -1.144  0.00  0.00    -0.083 HD
ENDROOT
BRANCH   1  12
ATOM      9  C   UNK     1      -0.916   1.330   0.198  0.00  0.00    +0.000 C 
ATOM     10  C   UNK     1       0.510   1.907   0.378  0.00  0.00    +0.000 C 
ATOM     11  C   UNK     1       1.367   0.990  -0.530  0.00  0.00    +0.003 C 
ATOM     12  C   UNK     1       0.751  -0.412  -0.340  0.00  0.00    -0.015 C 
ATOM     13  C   UNK     1      -0.700  -0.195   0.123  0.00  0.00    +0.003 C 
ENDBRANCH   1  12
BRANCH   3  14
ATOM     14  C   UNK     1      -0.453  -2.187  -3.846  0.00  0.00    +0.343 C 
ATOM     15  O   UNK     1      -0.171  -2.386  -5.015  0.00  0.00    -0.248 OA
ATOM     16  O   UNK     1      -1.097  -1.200  -3.534  0.00  0.00    -0.248 OA
ENDBRANCH   3  14
TORSDOF 2
