REMARK  Name = ZINC25367770
REMARK  5 active torsions:
REMARK  status: ('A' for Active; 'I' for Inactive)
REMARK    1  A    between atoms: C_1  and  C_2
REMARK    2  A    between atoms: C_5  and  S_9
REMARK    3  A    between atoms: S_9  and  N_12
REMARK    4  A    between atoms: N_12  and  N_13
REMARK    5  A    between atoms: C_14  and  C_16
REMARK                            x       y       z     vdW  Elec       q    Type
REMARK                         _______ _______ _______ _____ _____    ______ ____
ROOT
ATOM      1  N   UNL     1       3.777   5.451  -0.088  0.00  0.00    -0.108 NA
ATOM      2  H   UNL     1       3.709   6.173  -0.732  0.00  0.00    +0.172 HD
ENDROOT
BRANCH   1   3
ATOM      3  N   UNL     1       3.037   4.276  -0.272  0.00  0.00    -0.227 N 
ATOM      4  C   UNL     1       1.698   4.338  -0.412  0.00  0.00    +0.275 C 
ATOM      5  O   UNL     1       1.132   5.415  -0.379  0.00  0.00    -0.267 OA
ATOM      6  H   UNL     1       3.548   3.303  -0.302  0.00  0.00    +0.171 HD
BRANCH   4   7
ATOM      7  C   UNL     1       0.922   3.108  -0.605  0.00  0.00    +0.104 A 
ATOM      8  C   UNL     1      -0.445   3.023  -0.761  0.00  0.00    +0.047 A 
ATOM      9  C   UNL     1      -0.757   1.669  -0.920  0.00  0.00    +0.036 A 
ATOM     10  C   UNL     1       0.399   0.966  -0.851  0.00  0.00    +0.098 A 
ATOM     11  N   UNL     1       1.427   1.829  -0.663  0.00  0.00    -0.356 N 
ATOM     12  H   UNL     1       2.509   1.660  -0.561  0.00  0.00    +0.166 HD
ATOM     13 BR   UNL     1      -2.486   0.948  -1.180  0.00  0.00    -0.049 Br
ENDBRANCH   4   7
ENDBRANCH   1   3
BRANCH   1  14
ATOM     14  S   UNL     1       4.768   5.607   1.230  0.00  0.00    +0.075 S 
ATOM     15  O   UNL     1       5.487   6.820   1.056  0.00  0.00    -0.152 OA
ATOM     16  O   UNL     1       3.965   5.354   2.375  0.00  0.00    -0.152 OA
BRANCH  14  21
ATOM     17  C   UNL     1       8.821   1.144   0.951  0.00  0.00    +0.044 C 
ATOM     18  C   UNL     1       7.809   2.260   1.021  0.00  0.00    -0.049 A 
ATOM     19  C   UNL     1       6.898   2.302   2.060  0.00  0.00    +0.005 A 
ATOM     20  C   UNL     1       5.970   3.324   2.124  0.00  0.00    +0.030 A 
ATOM     21  C   UNL     1       5.952   4.304   1.149  0.00  0.00    +0.125 A 
ATOM     22  C   UNL     1       6.860   4.259   0.106  0.00  0.00    +0.068 A 
ATOM     23  C   UNL     1       7.793   3.239   0.046  0.00  0.00    +0.025 A 
ATOM     24 CL   UNL     1       6.833   5.485  -1.123  0.00  0.00    -0.082 Cl
ENDBRANCH  14  21
ENDBRANCH   1  14
TORSDOF 4
