REMARK  Name = ZINC34775565
REMARK  5 active torsions:
REMARK  status: ('A' for Active; 'I' for Inactive)
REMARK    1  A    between atoms: C_4  and  C_7
REMARK    2  A    between atoms: C_10  and  N_15
REMARK    3  A    between atoms: C_11  and  C_12
REMARK    4  A    between atoms: N_21  and  C_24
REMARK    5  A    between atoms: C_24  and  C_25
REMARK                            x       y       z     vdW  Elec       q    Type
REMARK                         _______ _______ _______ _____ _____    ______ ____
ROOT
ATOM      1  N   UNL     1       7.744  -3.300   0.278  0.00  0.00    -0.263 N 
ATOM      2  C   UNL     1       7.013  -3.849   1.268  0.00  0.00    +0.307 C 
ATOM      3  O   UNL     1       5.931  -3.378   1.558  0.00  0.00    -0.252 OA
ATOM      4  N   UNL     1       7.482  -4.922   1.936  0.00  0.00    -0.283 N 
ATOM      5  C   UNL     1       6.654  -5.607   2.940  0.00  0.00    +0.124 C 
ATOM      6  C   UNL     1       6.645  -7.106   2.622  0.00  0.00    +0.104 C 
ATOM      7  N   UNL     1       8.028  -7.591   2.521  0.00  0.00    -0.295 NA
ATOM      8  C   UNL     1       8.741  -6.943   1.412  0.00  0.00    +0.104 C 
ATOM      9  C   UNL     1       8.834  -5.441   1.676  0.00  0.00    +0.124 C 
ATOM     10  H   UNL     1       8.638  -3.628   0.095  0.00  0.00    +0.157 HD
ENDROOT
BRANCH   1  14
ATOM     11  C   UNL     1       7.040  -0.536  -2.155  0.00  0.00    +0.003 A 
ATOM     12  C   UNL     1       5.801  -0.340  -1.635  0.00  0.00    +0.056 A 
ATOM     13  S   UNL     1       5.706  -1.551  -0.335  0.00  0.00    -0.080 S 
ATOM     14  C   UNL     1       7.217  -2.265  -0.480  0.00  0.00    +0.086 A 
ATOM     15  C   UNL     1       7.817  -1.592  -1.531  0.00  0.00    +0.073 A 
BRANCH  11  19
ATOM     16  C   UNL     1       8.534   1.774  -5.396  0.00  0.00    +0.000 A 
ATOM     17  C   UNL     1       7.283   1.190  -5.485  0.00  0.00    +0.001 A 
ATOM     18  C   UNL     1       6.793   0.439  -4.436  0.00  0.00    +0.008 A 
ATOM     19  C   UNL     1       7.561   0.269  -3.285  0.00  0.00    -0.017 A 
ATOM     20  C   UNL     1       8.821   0.860  -3.201  0.00  0.00    +0.008 A 
ATOM     21  C   UNL     1       9.301   1.609  -4.256  0.00  0.00    +0.001 A 
ENDBRANCH  11  19
BRANCH  15  22
ATOM     22  C   UNL     1       9.169  -1.924  -1.986  0.00  0.00    +0.244 C 
ATOM     23  O   UNL     1      10.132  -1.365  -1.494  0.00  0.00    -0.270 OA
ATOM     24  N   UNL     1       9.347  -2.850  -2.950  0.00  0.00    -0.325 N 
ATOM     25  H   UNL     1       8.580  -3.295  -3.342  0.00  0.00    +0.145 HD
ATOM     26  H   UNL     1      10.242  -3.070  -3.251  0.00  0.00    +0.145 HD
ENDBRANCH  15  22
ENDBRANCH   1  14
BRANCH   7  27
ATOM     27  C   UNL     1       8.065  -9.053   2.387  0.00  0.00    +0.121 C 
BRANCH  27  28
ATOM     28  C   UNL     1       9.485  -9.536   2.533  0.00  0.00    -0.015 A 
ATOM     29  C   UNL     1      10.232  -9.837   1.410  0.00  0.00    +0.006 A 
ATOM     30  C   UNL     1      11.535 -10.279   1.544  0.00  0.00    +0.000 A 
ATOM     31  C   UNL     1      12.092 -10.420   2.801  0.00  0.00    +0.001 A 
ATOM     32  C   UNL     1      11.346 -10.119   3.925  0.00  0.00    +0.020 A 
ATOM     33  C   UNL     1      10.044  -9.671   3.792  0.00  0.00    +0.045 A 
ATOM     34 CL   UNL     1       9.109  -9.286   5.203  0.00  0.00    -0.083 Cl
ENDBRANCH  27  28
ENDBRANCH   7  27
TORSDOF 5
