REMARK  Name = ZINC38106218
REMARK  5 active torsions:
REMARK  status: ('A' for Active; 'I' for Inactive)
REMARK    1  A    between atoms: C_1  and  N_2
REMARK    2  A    between atoms: C_5  and  S_8
REMARK    3  A    between atoms: S_8  and  N_11
REMARK    4  A    between atoms: N_11  and  C_12
REMARK    5  A    between atoms: C_17  and  O_20
REMARK                            x       y       z     vdW  Elec       q    Type
REMARK                         _______ _______ _______ _____ _____    ______ ____
ROOT
ATOM      1  S   UNL     1       0.058  -3.549   1.628  0.00  0.00    +0.079 S 
ATOM      2  O   UNL     1       1.418  -3.948   1.730  0.00  0.00    -0.151 OA
ATOM      3  O   UNL     1      -0.745  -3.279   2.769  0.00  0.00    -0.151 OA
ENDROOT
BRANCH   1   8
ATOM      4  C   UNL     1      -0.018   1.461   0.010  0.00  0.00    +0.151 C 
ATOM      5  N   UNL     1       0.002  -0.004   0.002  0.00  0.00    -0.323 N 
ATOM      6  C   UNL     1       0.009  -0.800  -1.090  0.00  0.00    +0.202 A 
ATOM      7  N   UNL     1       0.027  -2.045  -0.701  0.00  0.00    -0.215 NA
ATOM      8  C   UNL     1       0.034  -2.090   0.640  0.00  0.00    +0.230 A 
ATOM      9  C   UNL     1       0.024  -0.822   1.099  0.00  0.00    +0.156 A 
ATOM     10 CL   UNL     1       0.032  -0.324   2.762  0.00  0.00    -0.060 Cl
ENDBRANCH   1   8
BRANCH   1  11
ATOM     11  N   UNL     1      -0.720  -4.733   0.771  0.00  0.00    -0.185 NA
ATOM     12  H   UNL     1      -1.553  -5.104   1.103  0.00  0.00    +0.148 HD
BRANCH  11  13
ATOM     13  C   UNL     1      -0.152  -5.219  -0.489  0.00  0.00    +0.079 C 
ATOM     14  C   UNL     1       0.685  -6.472  -0.221  0.00  0.00    +0.020 C 
ATOM     15  C   UNL     1       1.278  -6.980  -1.536  0.00  0.00    +0.004 C 
ATOM     16  C   UNL     1       0.147  -7.320  -2.508  0.00  0.00    +0.031 C 
ATOM     17  C   UNL     1      -0.689  -6.068  -2.776  0.00  0.00    +0.116 C 
ATOM     18  C   UNL     1      -1.283  -5.560  -1.461  0.00  0.00    +0.051 C 
BRANCH  17  19
ATOM     19  O   UNL     1      -1.746  -6.386  -3.684  0.00  0.00    -0.392 OA
ATOM     20  H   UNL     1      -1.442  -6.715  -4.541  0.00  0.00    +0.210 HD
ENDBRANCH  17  19
ENDBRANCH  11  13
ENDBRANCH   1  11
TORSDOF 4
