REMARK  Name = ZINC35640863
REMARK  10 active torsions:
REMARK  status: ('A' for Active; 'I' for Inactive)
REMARK    1  A    between atoms: C_1  and  C_2
REMARK    2  A    between atoms: C_2  and  O_3
REMARK    3  A    between atoms: O_3  and  C_4
REMARK    4  A    between atoms: C_4  and  C_6
REMARK    5  A    between atoms: C_7  and  C_24
REMARK    6  A    between atoms: N_8  and  C_21
REMARK    7  A    between atoms: C_12  and  C_14
REMARK    8  A    between atoms: C_17  and  C_20
REMARK    9  A    between atoms: C_21  and  C_22
REMARK   10  A    between atoms: C_24  and  N_25
REMARK                            x       y       z     vdW  Elec       q    Type
REMARK                         _______ _______ _______ _____ _____    ______ ____
ROOT
ATOM      1  C   UNL     1       1.514  -2.560   2.172  0.00  0.00    +0.080 C 
ATOM      2  C   UNL     1       1.437  -3.853   2.555  0.00  0.00    +0.041 C 
ATOM      3  N   UNL     1       2.009  -4.279   3.720  0.00  0.00    -0.254 N 
ATOM      4  C   UNL     1       2.675  -3.474   4.557  0.00  0.00    +0.307 C 
ATOM      5  O   UNL     1       3.151  -3.945   5.571  0.00  0.00    -0.252 OA
ATOM      6  N   UNL     1       2.836  -2.158   4.311  0.00  0.00    -0.288 N 
ATOM      7  C   UNL     1       2.261  -1.601   3.076  0.00  0.00    +0.144 C 
ATOM      8  H   UNL     1       3.322  -1.593   4.932  0.00  0.00    +0.151 HD
ENDROOT
BRANCH   7   9
ATOM      9  C   UNL     1       3.378  -0.983   2.275  0.00  0.00    -0.022 A 
ATOM     10  C   UNL     1       4.550  -1.685   2.068  0.00  0.00    +0.006 A 
ATOM     11  C   UNL     1       5.575  -1.119   1.334  0.00  0.00    +0.004 A 
ATOM     12  C   UNL     1       5.427   0.150   0.805  0.00  0.00    -0.050 A 
ATOM     13  C   UNL     1       4.254   0.852   1.012  0.00  0.00    +0.004 A 
ATOM     14  C   UNL     1       3.228   0.284   1.742  0.00  0.00    +0.006 A 
ATOM     15  C   UNL     1       6.545   0.768   0.005  0.00  0.00    +0.044 C 
ENDBRANCH   7   9
BRANCH   1  16
ATOM     16  C   UNL     1       0.921  -2.118   0.966  0.00  0.00    +0.339 C 
ATOM     17  O   UNL     1       0.420  -2.923   0.204  0.00  0.00    -0.245 OA
BRANCH  16  18
ATOM     18  O   UNL     1       0.912  -0.804   0.661  0.00  0.00    -0.462 OA
BRANCH  18  20
ATOM     19  C   UNL     1       0.383   1.089  -0.745  0.00  0.00    +0.048 C 
ATOM     20  C   UNL     1       0.297  -0.428  -0.573  0.00  0.00    +0.229 C 
ENDBRANCH  18  20
ENDBRANCH  16  18
ENDBRANCH   1  16
BRANCH   3  21
ATOM     21  C   UNL     1       1.887  -5.695   4.073  0.00  0.00    +0.141 C 
BRANCH  21  22
ATOM     22  C   UNL     1       3.094  -6.444   3.568  0.00  0.00    -0.015 C 
ATOM     23  C   UNL     1       3.805  -7.172   4.393  0.00  0.00    +0.005 C 
ENDBRANCH  21  22
ENDBRANCH   3  21
BRANCH   2  24
ATOM     24  C   UNL     1       0.707  -4.842   1.683  0.00  0.00    +0.136 C 
BRANCH  24  25
ATOM     25  N   UNL     1      -0.693  -4.939   2.118  0.00  0.00    -0.300 NA
ATOM     26  C   UNL     1      -1.442  -3.728   1.754  0.00  0.00    +0.066 C 
ATOM     27  C   UNL     1      -2.876  -3.843   2.275  0.00  0.00    -0.067 C 
ATOM     28  N   UNL     1      -3.516  -5.029   1.691  0.00  0.00    +0.381 N 
ATOM     29  C   UNL     1      -2.771  -6.233   2.083  0.00  0.00    -0.067 C 
ATOM     30  C   UNL     1      -1.335  -6.137   1.560  0.00  0.00    +0.066 C 
ATOM     31  H   UNL     1      -4.465  -5.098   2.025  0.00  0.00    -0.086 HD
ATOM     32  H   UNL     1      -3.519  -4.949   0.685  0.00  0.00    -0.086 HD
ENDBRANCH  24  25
ENDBRANCH   2  24
TORSDOF 8
