REMARK  Name = ZINC17756630
REMARK  6 active torsions:
REMARK  status: ('A' for Active; 'I' for Inactive)
REMARK    1  A    between atoms: C_2  and  C_13
REMARK    2  A    between atoms: C_13  and  O_15
REMARK    3  A    between atoms: O_15  and  C_16
REMARK    4  A    between atoms: C_16  and  C_17
REMARK    5  A    between atoms: N_19  and  C_20
REMARK    6  A    between atoms: C_21  and  C_28
REMARK                            x       y       z     vdW  Elec       q    Type
REMARK                         _______ _______ _______ _____ _____    ______ ____
ROOT
ATOM      1  C   UNL     1       1.051   3.511   0.011  0.00  0.00    +0.255 C 
ATOM      2  O   UNL     1      -0.076   3.959   0.024  0.00  0.00    -0.272 OA
ATOM      3  N   UNL     1       2.108   4.347   0.005  0.00  0.00    -0.277 N 
ATOM      4  H   UNL     1       3.010   3.988  -0.005  0.00  0.00    +0.155 HD
ENDROOT
BRANCH   3   5
ATOM      5  C   UNL     1       1.908   5.719   0.015  0.00  0.00    +0.084 A 
ATOM      6  C   UNL     1       2.857   6.727   0.017  0.00  0.00    +0.068 A 
ATOM      7  C   UNL     1       2.377   8.108   0.023  0.00  0.00    -0.023 A 
ATOM      8  C   UNL     1       1.040   8.248   0.036  0.00  0.00    -0.004 A 
ATOM      9  S   UNL     1       0.411   6.587   0.034  0.00  0.00    -0.077 S 
ATOM     10  C   UNL     1       0.624   9.694   0.045  0.00  0.00    +0.043 C 
ATOM     11  C   UNL     1       1.886  10.465  -0.401  0.00  0.00    +0.010 C 
ATOM     12  C   UNL     1       3.010   9.500   0.026  0.00  0.00    +0.037 C 
BRANCH   6  13
ATOM     13  C   UNL     1       4.291   6.420   0.008  0.00  0.00    +0.244 C 
ATOM     14  O   UNL     1       4.881   6.300  -1.049  0.00  0.00    -0.270 OA
ATOM     15  N   UNL     1       4.955   6.272   1.172  0.00  0.00    -0.325 N 
ATOM     16  H   UNL     1       4.484   6.368   2.014  0.00  0.00    +0.145 HD
ATOM     17  H   UNL     1       5.903   6.069   1.166  0.00  0.00    +0.145 HD
ENDBRANCH   6  13
ENDBRANCH   3   5
BRANCH   1  18
ATOM     18  C   UNL     1       1.268   2.020   0.001  0.00  0.00    +0.328 C 
BRANCH  18  19
ATOM     19  O   UNL     1      -0.016   1.343   0.009  0.00  0.00    -0.452 OA
BRANCH  19  20
ATOM     20  C   UNL     1       0.002  -0.004   0.002  0.00  0.00    +0.340 C 
ATOM     21  O   UNL     1       1.062  -0.597  -0.011  0.00  0.00    -0.245 OA
BRANCH  20  23
ATOM     22  C   UNL     1      -1.247  -2.158   0.002  0.00  0.00    +0.064 A 
ATOM     23  C   UNL     1      -1.265  -0.759   0.010  0.00  0.00    +0.064 A 
ATOM     24  C   UNL     1      -2.485  -0.078   0.031  0.00  0.00    +0.039 A 
ATOM     25  C   UNL     1      -3.670  -0.784   0.033  0.00  0.00    +0.087 A 
ATOM     26  C   UNL     1      -3.649  -2.172   0.025  0.00  0.00    +0.180 A 
ATOM     27  C   UNL     1      -2.438  -2.855   0.009  0.00  0.00    +0.164 A 
ATOM     28  O   UNL     1      -2.434  -4.220   0.001  0.00  0.00    -0.488 OA
ATOM     29  C   UNL     1      -2.897  -4.854   1.194  0.00  0.00    +0.232 C 
ATOM     30  C   UNL     1      -4.414  -4.969   1.191  0.00  0.00    +0.082 C 
ATOM     31  C   UNL     1      -5.097  -3.611   1.223  0.00  0.00    +0.232 C 
ATOM     32  O   UNL     1      -4.817  -2.875   0.031  0.00  0.00    -0.487 OA
ATOM     33 CL   UNL     1      -5.186   0.062   0.051  0.00  0.00    -0.080 Cl
ENDBRANCH  20  23
ENDBRANCH  19  20
ENDBRANCH  18  19
ENDBRANCH   1  18
TORSDOF 6
