REMARK  Name = ZINC09104629
REMARK  10 active torsions:
REMARK  status: ('A' for Active; 'I' for Inactive)
REMARK    1  A    between atoms: C_1  and  C_2
REMARK    2  A    between atoms: C_5  and  O_34
REMARK    3  A    between atoms: C_6  and  N_8
REMARK    4  A    between atoms: C_21  and  S_22
REMARK    5  A    between atoms: S_22  and  C_23
REMARK    6  A    between atoms: C_23  and  C_25
REMARK    7  A    between atoms: C_23  and  C_28
REMARK    8  A    between atoms: C_25  and  C_26
REMARK    9  A    between atoms: C_25  and  C_27
REMARK   10  A    between atoms: O_34  and  C_35
REMARK                            x       y       z     vdW  Elec       q    Type
REMARK                         _______ _______ _______ _____ _____    ______ ____
ROOT
ATOM      1  N   UNL     1      -8.523  -0.063  -1.455  0.00  0.00    -0.241 N 
ATOM      2  C   UNL     1      -9.126   1.025  -1.978  0.00  0.00    +0.268 A 
ATOM      3  O   UNL     1     -10.297   0.985  -2.306  0.00  0.00    -0.267 OA
ATOM      4  C   UNL     1      -8.345   2.264  -2.143  0.00  0.00    +0.064 A 
ATOM      5  C   UNL     1      -8.919   3.415  -2.678  0.00  0.00    +0.015 A 
ATOM      6  C   UNL     1      -8.157   4.556  -2.818  0.00  0.00    +0.001 A 
ATOM      7  C   UNL     1      -6.826   4.560  -2.431  0.00  0.00    +0.002 A 
ATOM      8  C   UNL     1      -6.245   3.426  -1.901  0.00  0.00    +0.027 A 
ATOM      9  C   UNL     1      -6.996   2.270  -1.752  0.00  0.00    +0.064 A 
ATOM     10  N   UNL     1      -6.441   1.112  -1.221  0.00  0.00    -0.255 N 
ATOM     11  C   UNL     1      -7.190  -0.026  -1.077  0.00  0.00    +0.245 A 
ATOM     12  N   UNL     1      -6.402  -0.937  -0.557  0.00  0.00    -0.109 NA
ATOM     13  N   UNL     1      -5.226  -0.452  -0.374  0.00  0.00    -0.120 NA
ATOM     14  C   UNL     1      -5.191   0.801  -0.757  0.00  0.00    +0.198 A 
ENDROOT
BRANCH   1  20
ATOM     15  C   UNL     1     -11.405  -2.907   1.335  0.00  0.00    +0.044 C 
ATOM     16  C   UNL     1     -10.662  -2.651   0.050  0.00  0.00    -0.048 A 
ATOM     17  C   UNL     1     -10.703  -3.586  -0.969  0.00  0.00    +0.007 A 
ATOM     18  C   UNL     1     -10.023  -3.357  -2.150  0.00  0.00    +0.048 A 
ATOM     19  C   UNL     1      -9.301  -2.187  -2.319  0.00  0.00    +0.144 A 
ATOM     20  C   UNL     1      -9.255  -1.247  -1.292  0.00  0.00    +0.095 A 
ATOM     21  C   UNL     1      -9.940  -1.484  -0.109  0.00  0.00    +0.033 A 
BRANCH  19  22
ATOM     22  O   UNL     1      -8.636  -1.958  -3.483  0.00  0.00    -0.493 OA
ATOM     23  C   UNL     1      -8.729  -2.966  -4.492  0.00  0.00    +0.277 C 
ENDBRANCH  19  22
ENDBRANCH   1  20
BRANCH  14  24
ATOM     24  S   UNL     1      -3.798   1.879  -0.693  0.00  0.00    -0.073 S 
BRANCH  24  25
ATOM     25  C   UNL     1      -2.482   0.853   0.018  0.00  0.00    +0.143 C 
BRANCH  25  26
ATOM     26  C   UNL     1      -1.187   1.624   0.017  0.00  0.00    +0.234 C 
ATOM     27  O   UNL     1      -1.204   2.836   0.023  0.00  0.00    -0.274 OA
ATOM     28  N   UNL     1      -0.011   0.966   0.007  0.00  0.00    -0.239 N 
ATOM     29  C   UNL     1       1.147   1.655   0.000  0.00  0.00    +0.303 C 
ATOM     30  O   UNL     1       1.130   2.871   0.007  0.00  0.00    -0.253 OA
ATOM     31  N   UNL     1       2.323   0.998  -0.015  0.00  0.00    -0.313 N 
ATOM     32  H   UNL     1       0.002  -0.004   0.002  0.00  0.00    +0.159 HD
ATOM     33  H   UNL     1       2.336   0.028  -0.020  0.00  0.00    +0.146 HD
ATOM     34  H   UNL     1       3.156   1.494  -0.020  0.00  0.00    +0.146 HD
ENDBRANCH  25  26
BRANCH  25  35
ATOM     35  C   UNL     1      -2.849   0.476   1.455  0.00  0.00    +0.005 C 
ATOM     36  C   UNL     1      -1.739  -0.390   2.055  0.00  0.00    +0.009 C 
ATOM     37  C   UNL     1      -3.012   1.748   2.290  0.00  0.00    +0.009 C 
ENDBRANCH  25  35
ENDBRANCH  24  25
ENDBRANCH  14  24
TORSDOF 6
