REMARK  Name = ZINC51072262
REMARK  1 active torsions:
REMARK  status: ('A' for Active; 'I' for Inactive)
REMARK    1  A    between atoms: C_3  and  C_8
REMARK                            x       y       z     vdW  Elec       q    Type
REMARK                         _______ _______ _______ _____ _____    ______ ____
ROOT
ATOM      1  C   UNL     1       3.677   2.050  -0.022  0.00  0.00    +0.265 C 
ATOM      2  O   UNL     1       2.623   1.463   0.118  0.00  0.00    -0.268 OA
ATOM      3  N   UNL     1       4.826   1.355  -0.139  0.00  0.00    -0.289 N 
ATOM      4  C   UNL     1       4.820  -0.111  -0.265  0.00  0.00    +0.136 C 
ATOM      5  C   UNL     1       5.788  -0.696   0.770  0.00  0.00    +0.179 C 
ATOM      6  O   UNL     1       7.058  -0.049   0.651  0.00  0.00    -0.373 OA
ATOM      7  C   UNL     1       7.019   1.356   0.903  0.00  0.00    +0.139 C 
ATOM      8  C   UNL     1       6.134   2.037  -0.151  0.00  0.00    +0.105 C 
ATOM      9  C   UNL     1       6.755   1.861  -1.539  0.00  0.00    +0.025 C 
ATOM     10  C   UNL     1       8.155   2.474  -1.562  0.00  0.00    +0.002 C 
ATOM     11  C   UNL     1       9.035   1.762  -0.531  0.00  0.00    +0.003 C 
ATOM     12  C   UNL     1       8.425   1.945   0.859  0.00  0.00    +0.033 C 
ENDROOT
BRANCH   1  15
ATOM     13  C   UNL     1       2.577   5.634   0.189  0.00  0.00    +0.006 A 
ATOM     14  C   UNL     1       2.545   4.247   0.232  0.00  0.00    +0.033 A 
ATOM     15  C   UNL     1       3.700   3.531  -0.066  0.00  0.00    +0.128 A 
ATOM     16  N   UNL     1       4.824   4.163  -0.388  0.00  0.00    -0.228 NA
ATOM     17  C   UNL     1       4.885   5.481  -0.437  0.00  0.00    +0.117 A 
ATOM     18  C   UNL     1       3.763   6.258  -0.150  0.00  0.00    +0.043 A 
ATOM     19  N   UNL     1       6.082   6.101  -0.778  0.00  0.00    -0.343 N 
ATOM     20  H   UNL     1       6.865   5.565  -0.978  0.00  0.00    +0.144 HD
ATOM     21  H   UNL     1       6.133   7.069  -0.816  0.00  0.00    +0.144 HD
ENDBRANCH   1  15
TORSDOF 1
