REMARK  Name = ZINC03200283
REMARK  4 active torsions:
REMARK  status: ('A' for Active; 'I' for Inactive)
REMARK    1  A    between atoms: C_5  and  C_6
REMARK    2  A    between atoms: C_5  and  N_39
REMARK    3  A    between atoms: N_8  and  C_9
REMARK    4  A    between atoms: C_10  and  C_17
REMARK                            x       y       z     vdW  Elec       q    Type
REMARK                         _______ _______ _______ _____ _____    ______ ____
ROOT
ATOM      1  C   UNL     1       0.002  -0.004   0.002  0.00  0.00    +0.084 A 
ATOM      2  C   UNL     1      -1.071  -0.879   0.013  0.00  0.00    +0.068 A 
ATOM      3  C   UNL     1      -0.776  -2.312  -0.003  0.00  0.00    -0.023 A 
ATOM      4  C   UNL     1       0.532  -2.626  -0.017  0.00  0.00    -0.004 A 
ATOM      5  S   UNL     1       1.372  -1.061  -0.016  0.00  0.00    -0.077 S 
ATOM      6  C   UNL     1       0.754  -4.114  -0.030  0.00  0.00    +0.043 C 
ATOM      7  C   UNL     1      -0.606  -4.707  -0.459  0.00  0.00    +0.010 C 
ATOM      8  C   UNL     1      -1.586  -3.609  -0.000  0.00  0.00    +0.037 C 
ENDROOT
BRANCH   2   9
ATOM      9  C   UNL     1      -2.452  -0.388   0.036  0.00  0.00    +0.244 C 
ATOM     10  O   UNL     1      -3.041  -0.178  -1.008  0.00  0.00    -0.270 OA
ATOM     11  N   UNL     1      -3.069  -0.167   1.214  0.00  0.00    -0.325 N 
ATOM     12  H   UNL     1      -2.600  -0.334   2.046  0.00  0.00    +0.145 HD
ATOM     13  H   UNL     1      -3.983   0.158   1.229  0.00  0.00    +0.145 HD
ENDBRANCH   2   9
BRANCH   1  16
ATOM     14  C   UNL     1       1.141   2.072   0.002  0.00  0.00    +0.201 C 
ATOM     15  O   UNL     1       2.200   1.480  -0.011  0.00  0.00    -0.278 OA
ATOM     16  N   UNL     1      -0.017   1.382   0.010  0.00  0.00    -0.281 N 
ATOM     17  H   UNL     1      -0.863   1.856   0.016  0.00  0.00    +0.155 HD
BRANCH  14  18
ATOM     18  C   UNL     1       1.121   3.579   0.011  0.00  0.00    +0.019 C 
BRANCH  18  23
ATOM     19  C   UNL     1       4.455   4.479  -1.296  0.00  0.00    -0.020 C 
ATOM     20  C   UNL     1       3.789   5.854  -1.054  0.00  0.00    -0.020 C 
ATOM     21  C   UNL     1       2.523   5.548  -0.232  0.00  0.00    -0.078 C 
ATOM     22  C   UNL     1       3.279   3.487  -1.112  0.00  0.00    -0.078 C 
ATOM     23  N   UNL     1       2.520   4.101  -0.011  0.00  0.00    +0.385 N 
ATOM     24  H   UNL     1       2.974   3.886   0.885  0.00  0.00    -0.081 HD
ENDBRANCH  18  23
ENDBRANCH  14  18
ENDBRANCH   1  16
TORSDOF 4
