REMARK  Name = ZINC57124951
REMARK  7 active torsions:
REMARK  status: ('A' for Active; 'I' for Inactive)
REMARK    1  A    between atoms: C_1  and  C_2
REMARK    2  A    between atoms: C_2  and  C_3
REMARK    3  A    between atoms: C_3  and  C_4
REMARK    4  A    between atoms: C_7  and  S_10
REMARK    5  A    between atoms: S_10  and  N_13
REMARK    6  A    between atoms: N_13  and  N_14
REMARK    7  A    between atoms: N_17  and  C_18
REMARK                            x       y       z     vdW  Elec       q    Type
REMARK                         _______ _______ _______ _____ _____    ______ ____
ROOT
ATOM      1  N   UNL     1       0.033  -7.038  -0.159  0.00  0.00    -0.107 NA
ATOM      2  H   UNL     1      -0.759  -7.594  -0.087  0.00  0.00    +0.172 HD
ENDROOT
BRANCH   1   3
ATOM      3  N   UNL     1       0.506  -6.653  -1.420  0.00  0.00    -0.216 N 
ATOM      4  C   UNL     1       0.781  -7.588  -2.351  0.00  0.00    +0.315 C 
ATOM      5  O   UNL     1       1.192  -7.253  -3.446  0.00  0.00    -0.251 OA
ATOM      6  N   UNL     1       0.600  -8.893  -2.069  0.00  0.00    -0.294 N 
ATOM      7  H   UNL     1       0.636  -5.713  -1.623  0.00  0.00    +0.172 HD
ATOM      8  H   UNL     1       0.272  -9.160  -1.196  0.00  0.00    +0.151 HD
BRANCH   6   9
ATOM      9  C   UNL     1       0.899  -9.909  -3.081  0.00  0.00    +0.097 C 
ATOM     10  C   UNL     1       2.393 -10.265  -3.022  0.00  0.00    +0.046 C 
ATOM     11  C   UNL     1       2.620 -11.548  -3.871  0.00  0.00    +0.168 C 
ATOM     12  S   UNL     1       1.134 -12.530  -3.401  0.00  0.00    -0.029 S 
ATOM     13  O   UNL     1       1.463 -13.370  -2.302  0.00  0.00    -0.174 OA
ATOM     14  O   UNL     1       0.567 -13.102  -4.572  0.00  0.00    -0.174 OA
ATOM     15  C   UNL     1       0.046 -11.172  -2.809  0.00  0.00    +0.188 C 
ENDBRANCH   6   9
ENDBRANCH   1   3
BRANCH   1  16
ATOM     16  S   UNL     1       0.824  -6.544   1.209  0.00  0.00    +0.074 S 
ATOM     17  O   UNL     1       2.183  -6.931   1.054  0.00  0.00    -0.152 OA
ATOM     18  O   UNL     1       0.033  -6.966   2.311  0.00  0.00    -0.152 OA
BRANCH  16  22
ATOM     19  C   UNL     1       0.762  -2.018   1.233  0.00  0.00    -0.047 A 
ATOM     20  C   UNL     1      -0.262  -2.726   1.833  0.00  0.00    +0.005 A 
ATOM     21  C   UNL     1      -0.243  -4.108   1.825  0.00  0.00    +0.029 A 
ATOM     22  C   UNL     1       0.800  -4.782   1.218  0.00  0.00    +0.107 A 
ATOM     23  C   UNL     1       1.824  -4.074   0.617  0.00  0.00    +0.029 A 
ATOM     24  C   UNL     1       1.803  -2.692   0.621  0.00  0.00    +0.005 A 
BRANCH  19  25
ATOM     25  C   UNL     1       0.742  -0.511   1.242  0.00  0.00    +0.035 C 
BRANCH  25  27
ATOM     26  C   UNL     1      -0.019   1.526   0.010  0.00  0.00    +0.004 C 
ATOM     27  C   UNL     1       0.002  -0.004   0.002  0.00  0.00    +0.001 C 
ENDBRANCH  25  27
ENDBRANCH  19  25
ENDBRANCH  16  22
ENDBRANCH   1  16
TORSDOF 6
