REMARK  Name = ZINC38595199
REMARK  1 active torsions:
REMARK  status: ('A' for Active; 'I' for Inactive)
REMARK    1  A    between atoms: C_3  and  C_11
REMARK                            x       y       z     vdW  Elec       q    Type
REMARK                         _______ _______ _______ _____ _____    ______ ____
ROOT
ATOM      1  C   UNL     1       3.728   1.850   0.399  0.00  0.00    +0.190 C 
ATOM      2  N   UNL     1       3.628   2.450   1.732  0.00  0.00    -0.304 N 
ATOM      3  C   UNL     1       3.297   3.741   1.894  0.00  0.00    +0.138 C 
ATOM      4  N   UNL     1       3.121   4.572   0.850  0.00  0.00    -0.270 N 
ATOM      5  C   UNL     1       3.283   4.087  -0.440  0.00  0.00    +0.180 C 
ATOM      6  N   UNL     1       4.021   2.915  -0.576  0.00  0.00    -0.295 N 
ATOM      7  N   UNL     1       2.770   4.697  -1.470  0.00  0.00    -0.272 NA
ATOM      8  S   UNL     1       3.091   4.350   3.481  0.00  0.00    -0.018 S 
ATOM      9  H   UNL     1       3.806   1.904   2.513  0.00  0.00    +0.150 HD
ATOM     10  H   UNL     1       2.260   5.512  -1.347  0.00  0.00    +0.189 HD
ATOM     11  H   UNL     1       4.691   2.804  -1.269  0.00  0.00    +0.151 HD
ATOM     12  H   UNL     1       2.884   5.501   0.998  0.00  0.00    +0.156 HD
ENDROOT
BRANCH   1  15
ATOM     13  C   UNL     1      -0.017   1.402   0.010  0.00  0.00    +0.006 C 
ATOM     14  C   UNL     1       1.213   2.000   0.001  0.00  0.00    +0.007 C 
ATOM     15  C   UNL     1       2.423   1.184   0.044  0.00  0.00    -0.011 C 
ATOM     16  C   UNL     1       2.425  -0.128  -0.217  0.00  0.00    +0.011 C 
ATOM     17  C   UNL     1       1.143  -0.789  -0.625  0.00  0.00    +0.158 C 
ATOM     18  C   UNL     1       0.002  -0.004   0.002  0.00  0.00    -0.018 C 
ATOM     19  C   UNL     1      -0.827  -0.933   0.506  0.00  0.00    +0.025 C 
ATOM     20  C   UNL     1      -0.189  -2.194   0.476  0.00  0.00    +0.106 C 
ATOM     21  N   UNL     1       0.962  -2.148  -0.136  0.00  0.00    -0.279 NA
ENDBRANCH   1  15
TORSDOF 1
