REMARK  Name = ZINC13128782
REMARK  6 active torsions:
REMARK  status: ('A' for Active; 'I' for Inactive)
REMARK    1  A    between atoms: C_1  and  C_2
REMARK    2  A    between atoms: C_2  and  C_3
REMARK    3  A    between atoms: C_2  and  N_4
REMARK    4  A    between atoms: C_8  and  N_11
REMARK    5  A    between atoms: C_12  and  C_14
REMARK    6  A    between atoms: C_18  and  N_19
REMARK                            x       y       z     vdW  Elec       q    Type
REMARK                         _______ _______ _______ _____ _____    ______ ____
ROOT
ATOM      1  N   UNL     1      -0.198   5.074  -0.064  0.00  0.00    -0.280 N 
ATOM      2  C   UNL     1       0.386   4.202  -0.910  0.00  0.00    +0.251 C 
ATOM      3  O   UNL     1      -0.018   4.101  -2.053  0.00  0.00    -0.270 OA
ATOM      4  H   UNL     1       0.074   5.102   0.867  0.00  0.00    +0.155 HD
ENDROOT
BRANCH   1   9
ATOM      5  N   UNL     1      -4.050   8.468  -2.005  0.00  0.00    -0.244 N 
ATOM      6  C   UNL     1      -3.200   7.628  -1.334  0.00  0.00    +0.159 A 
ATOM      7  C   UNL     1      -2.187   7.271  -2.246  0.00  0.00    +0.040 A 
ATOM      8  C   UNL     1      -1.162   6.413  -1.831  0.00  0.00    +0.038 A 
ATOM      9  C   UNL     1      -1.196   5.940  -0.528  0.00  0.00    +0.053 A 
ATOM     10  C   UNL     1      -2.232   6.338   0.316  0.00  0.00    +0.136 A 
ATOM     11  N   UNL     1      -3.180   7.149  -0.097  0.00  0.00    -0.234 NA
ATOM     12  C   UNL     1      -2.496   7.955  -3.497  0.00  0.00    +0.144 A 
ATOM     13  N   UNL     1      -3.588   8.640  -3.313  0.00  0.00    -0.177 NA
BRANCH   5  15
ATOM     14  C   UNL     1      -5.120  10.609  -1.506  0.00  0.00    +0.032 C 
ATOM     15  C   UNL     1      -5.252   9.086  -1.441  0.00  0.00    +0.103 C 
ATOM     16  C   UNL     1      -6.477   8.646  -2.244  0.00  0.00    +0.032 C 
ENDBRANCH   5  15
ENDBRANCH   1   9
BRANCH   2  17
ATOM     17  C   UNL     1       1.508   3.375  -0.452  0.00  0.00    +0.072 A 
ATOM     18  C   UNL     1       1.278   2.059   0.146  0.00  0.00    -0.021 A 
ATOM     19  C   UNL     1       2.396   1.407   0.511  0.00  0.00    +0.006 A 
ATOM     20  S   UNL     1       3.728   2.506   0.090  0.00  0.00    -0.074 S 
ATOM     21  C   UNL     1       2.812   3.815  -0.574  0.00  0.00    +0.097 A 
ATOM     22  C   UNL     1       2.563   0.051   1.139  0.00  0.00    +0.111 C 
ATOM     23  S   UNL     1       0.947  -0.484   1.784  0.00  0.00    -0.155 S 
ATOM     24  C   UNL     1      -0.174   0.017   0.439  0.00  0.00    +0.074 C 
ATOM     25  C   UNL     1      -0.140   1.534   0.313  0.00  0.00    +0.047 C 
BRANCH  21  26
ATOM     26  N   UNL     1       3.274   5.016  -1.101  0.00  0.00    -0.317 N 
ATOM     27  C   UNL     1       2.495   6.012  -1.619  0.00  0.00    +0.092 A 
ATOM     28  C   UNL     1       3.304   7.012  -2.025  0.00  0.00    +0.019 A 
ATOM     29  C   UNL     1       4.631   6.618  -1.758  0.00  0.00    +0.019 A 
ATOM     30  C   UNL     1       4.585   5.394  -1.194  0.00  0.00    +0.092 A 
ENDBRANCH  21  26
ENDBRANCH   2  17
TORSDOF 4
