REMARK  Name = ZINC27832142
REMARK  4 active torsions:
REMARK  status: ('A' for Active; 'I' for Inactive)
REMARK    1  A    between atoms: C_5  and  C_12
REMARK    2  A    between atoms: C_7  and  O_11
REMARK    3  A    between atoms: C_12  and  C_13
REMARK    4  A    between atoms: C_16  and  O_23
REMARK                            x       y       z     vdW  Elec       q    Type
REMARK                         _______ _______ _______ _____ _____    ______ ____
ROOT
ATOM      1  C   UNL     1      -2.490   0.965   0.019  0.00  0.00    +0.071 C 
ENDROOT
BRANCH   1   6
ATOM      2  C   UNL     1       3.569   1.909  -0.019  0.00  0.00    +0.020 A 
ATOM      3  C   UNL     1       2.438   1.143  -0.014  0.00  0.00    +0.011 A 
ATOM      4  C   UNL     1       1.192   1.798   0.000  0.00  0.00    +0.004 A 
ATOM      5  C   UNL     1      -0.013   1.076   0.008  0.00  0.00    +0.014 A 
ATOM      6  C   UNL     1      -1.199   1.743   0.017  0.00  0.00    -0.039 A 
ATOM      7  C   UNL     1      -1.238   3.135   0.029  0.00  0.00    +0.051 A 
ATOM      8  C   UNL     1      -0.087   3.871   0.022  0.00  0.00    +0.143 A 
ATOM      9  C   UNL     1       1.161   3.214   0.008  0.00  0.00    +0.112 A 
ATOM     10  N   UNL     1       2.304   3.905   0.001  0.00  0.00    -0.251 NA
ATOM     11  C   UNL     1       3.467   3.299  -0.012  0.00  0.00    +0.111 A 
BRANCH   8  12
ATOM     12  O   UNL     1      -0.144   5.228   0.030  0.00  0.00    -0.505 OA
ATOM     13  H   UNL     1       0.784   5.818   0.025  0.00  0.00    +0.292 HD
ENDBRANCH   8  12
ENDBRANCH   1   6
BRANCH   1  14
ATOM     14  C   UNL     1      -2.913   0.697   1.440  0.00  0.00    -0.034 A 
ATOM     15  C   UNL     1      -2.587  -0.481   2.041  0.00  0.00    +0.008 A 
ATOM     16  C   UNL     1      -2.964  -0.743   3.355  0.00  0.00    +0.048 A 
ATOM     17  C   UNL     1      -3.682   0.169   4.076  0.00  0.00    +0.143 A 
ATOM     18  C   UNL     1      -4.043   1.397   3.485  0.00  0.00    +0.112 A 
ATOM     19  C   UNL     1      -3.650   1.659   2.149  0.00  0.00    +0.007 A 
ATOM     20  C   UNL     1      -4.011   2.886   1.560  0.00  0.00    +0.012 A 
ATOM     21  C   UNL     1      -4.730   3.774   2.309  0.00  0.00    +0.020 A 
ATOM     22  C   UNL     1      -5.084   3.452   3.618  0.00  0.00    +0.111 A 
ATOM     23  N   UNL     1      -4.746   2.309   4.163  0.00  0.00    -0.251 NA
BRANCH  17  24
ATOM     24  O   UNL     1      -4.047  -0.107   5.355  0.00  0.00    -0.505 OA
ATOM     25  H   UNL     1      -4.625   0.629   5.933  0.00  0.00    +0.292 HD
ENDBRANCH  17  24
ENDBRANCH   1  14
TORSDOF 4
