REMARK  Name = ZINC47910220
REMARK  4 active torsions:
REMARK  status: ('A' for Active; 'I' for Inactive)
REMARK    1  A    between atoms: C_1  and  C_2
REMARK    2  A    between atoms: C_9  and  C_11
REMARK    3  A    between atoms: C_14  and  S_16
REMARK    4  A    between atoms: S_16  and  N_19
REMARK                            x       y       z     vdW  Elec       q    Type
REMARK                         _______ _______ _______ _____ _____    ______ ____
ROOT
ATOM      1  C   UNL     1       0.476  -4.220   2.014  0.00  0.00    +0.192 A 
ATOM      2  C   UNL     1      -0.014  -5.127   2.909  0.00  0.00    +0.057 A 
ATOM      3  C   UNL     1       0.224  -6.399   2.366  0.00  0.00    +0.072 A 
ATOM      4  C   UNL     1       0.840  -6.216   1.177  0.00  0.00    +0.258 A 
ATOM      5  O   UNL     1       0.986  -4.901   0.966  0.00  0.00    -0.432 OA
ENDROOT
BRANCH   1  13
ATOM      6  C   UNL     1       0.495   1.514  -0.062  0.00  0.00    +0.009 C 
ATOM      7  C   UNL     1       0.510  -0.016  -0.057  0.00  0.00    +0.003 C 
ATOM      8  C   UNL     1       1.490  -0.520  -1.119  0.00  0.00    +0.006 C 
ATOM      9  C   UNL     1       1.483  -2.050  -1.138  0.00  0.00    +0.019 C 
ATOM     10  C   UNL     1       1.937  -2.576   0.228  0.00  0.00    +0.108 C 
ATOM     11  N   UNL     1       1.089  -1.981   1.269  0.00  0.00    -0.295 N 
ATOM     12  C   UNL     1       0.953  -0.519   1.321  0.00  0.00    +0.111 C 
ATOM     13  C   UNL     1       0.447  -2.761   2.161  0.00  0.00    +0.282 C 
ATOM     14  O   UNL     1      -0.157  -2.256   3.089  0.00  0.00    -0.267 OA
ENDBRANCH   1  13
BRANCH   4  15
ATOM     15  S   UNL     1       1.361  -7.495   0.083  0.00  0.00    +0.089 S 
ATOM     16  O   UNL     1       2.406  -6.949  -0.711  0.00  0.00    -0.150 OA
ATOM     17  O   UNL     1       1.537  -8.661   0.876  0.00  0.00    -0.150 OA
BRANCH  15  18
ATOM     18  N   UNL     1       0.100  -7.805  -0.943  0.00  0.00    -0.201 NA
ATOM     19  H   UNL     1      -0.728  -7.306  -0.859  0.00  0.00    +0.144 HD
ATOM     20  H   UNL     1       0.188  -8.486  -1.629  0.00  0.00    +0.144 HD
ENDBRANCH  15  18
ENDBRANCH   4  15
TORSDOF 3
