REMARK  Name = ZINC58990181
REMARK  6 active torsions:
REMARK  status: ('A' for Active; 'I' for Inactive)
REMARK    1  A    between atoms: C_5  and  O_20
REMARK    2  A    between atoms: C_6  and  C_7
REMARK    3  A    between atoms: N_8  and  N_9
REMARK    4  A    between atoms: C_10  and  C_12
REMARK    5  A    between atoms: C_12  and  S_13
REMARK    6  A    between atoms: S_13  and  C_14
REMARK                            x       y       z     vdW  Elec       q    Type
REMARK                         _______ _______ _______ _____ _____    ______ ____
ROOT
ATOM      1  N   UNL     1      -2.442  -2.781   0.011  0.00  0.00    -0.206 N 
ATOM      2  C   UNL     1      -2.419  -4.128   0.004  0.00  0.00    +0.242 C 
ATOM      3  O   UNL     1      -1.359  -4.717  -0.010  0.00  0.00    -0.273 OA
ATOM      4  H   UNL     1      -3.289  -2.310   0.022  0.00  0.00    +0.177 HD
ENDROOT
BRANCH   1   6
ATOM      5  C   UNL     1      -1.262  -0.762   0.011  0.00  0.00    +0.142 C 
ATOM      6  N   UNL     1      -1.240  -2.060   0.003  0.00  0.00    -0.188 NA
BRANCH   5  12
ATOM      7  C   UNL     1      -0.017   1.392   0.010  0.00  0.00    +0.028 A 
ATOM      8  C   UNL     1       1.170   2.097   0.002  0.00  0.00    +0.020 A 
ATOM      9  C   UNL     1       2.381   1.424  -0.013  0.00  0.00    +0.034 A 
ATOM     10  C   UNL     1       2.412   0.041  -0.021  0.00  0.00    +0.061 A 
ATOM     11  C   UNL     1       1.229  -0.681  -0.013  0.00  0.00    +0.139 A 
ATOM     12  C   UNL     1       0.002  -0.004   0.002  0.00  0.00    +0.038 A 
ATOM     13 BR   UNL     1       4.072  -0.865  -0.042  0.00  0.00    -0.046 Br
ATOM     14 BR   UNL     1       1.143   3.987   0.012  0.00  0.00    -0.050 Br
BRANCH  11  15
ATOM     15  O   UNL     1       1.259  -2.039  -0.021  0.00  0.00    -0.505 OA
ATOM     16  H   UNL     1       1.277  -2.437   0.860  0.00  0.00    +0.292 HD
ENDBRANCH  11  15
ENDBRANCH   5  12
ENDBRANCH   1   6
BRANCH   2  17
ATOM     17  C   UNL     1      -3.711  -4.903   0.013  0.00  0.00    +0.173 C 
BRANCH  17  18
ATOM     18  S   UNL     1      -3.350  -6.681  -0.001  0.00  0.00    -0.088 S 
BRANCH  18  19
ATOM     19  C   UNL     1      -4.941  -7.439   0.011  0.00  0.00    +0.160 A 
ATOM     20  N   UNL     1      -6.135  -6.878   0.020  0.00  0.00    -0.133 NA
ATOM     21  N   UNL     1      -7.262  -7.667   0.028  0.00  0.00    -0.125 NA
ATOM     22  C   UNL     1      -7.144  -8.980   0.026  0.00  0.00    +0.180 A 
ATOM     23  S   UNL     1      -5.368  -9.174   0.006  0.00  0.00    -0.025 S 
ATOM     24  N   UNL     1      -8.136  -9.953   0.033  0.00  0.00    -0.336 N 
ATOM     25  H   UNL     1      -9.070  -9.693   0.040  0.00  0.00    +0.144 HD
ATOM     26  H   UNL     1      -7.894 -10.893   0.031  0.00  0.00    +0.144 HD
ENDBRANCH  18  19
ENDBRANCH  17  18
ENDBRANCH   2  17
TORSDOF 6
