REMARK  Name = ZINC09210009
REMARK  6 active torsions:
REMARK  status: ('A' for Active; 'I' for Inactive)
REMARK    1  A    between atoms: C_1  and  C_2
REMARK    2  A    between atoms: C_2  and  C_3
REMARK    3  A    between atoms: C_10  and  N_32
REMARK    4  A    between atoms: C_11  and  C_30
REMARK    5  A    between atoms: N_19  and  C_22
REMARK    6  A    between atoms: C_22  and  C_23
REMARK                            x       y       z     vdW  Elec       q    Type
REMARK                         _______ _______ _______ _____ _____    ______ ____
ROOT
ATOM      1  C   UNL     1       0.731  -0.503   1.223  0.00  0.00    +0.044 A 
ATOM      2  C   UNL     1       0.198  -0.697   2.438  0.00  0.00    +0.061 A 
ATOM      3  C   UNL     1       1.219  -1.171   3.294  0.00  0.00    +0.245 A 
ATOM      4  N   UNL     1       2.318  -1.252   2.602  0.00  0.00    -0.135 NA
ATOM      5  N   UNL     1       2.039  -0.842   1.289  0.00  0.00    -0.278 N 
ATOM      6  H   UNL     1       2.674  -0.806   0.556  0.00  0.00    +0.189 HD
ATOM      7  O   UNL     1       0.984  -1.462   4.601  0.00  0.00    -0.421 OA
ATOM      8  C   UNL     1      -0.299  -1.542   5.006  0.00  0.00    +0.201 C 
ATOM      9  C   UNL     1      -1.357  -1.112   4.282  0.00  0.00    +0.110 C 
ATOM     10  C   UNL     1      -1.208  -0.485   2.924  0.00  0.00    +0.145 C 
ATOM     11  C   UNL     1      -1.560   0.968   2.952  0.00  0.00    -0.001 A 
ATOM     12  C   UNL     1      -1.020   2.027   3.649  0.00  0.00    +0.007 A 
ATOM     13  C   UNL     1      -1.594   3.277   3.442  0.00  0.00    +0.000 A 
ATOM     14  C   UNL     1      -2.656   3.446   2.578  0.00  0.00    +0.002 A 
ATOM     15  C   UNL     1      -3.205   2.385   1.874  0.00  0.00    +0.024 A 
ATOM     16  C   UNL     1      -2.639   1.125   2.072  0.00  0.00    +0.041 A 
ATOM     17  N   UNL     1      -2.983  -0.091   1.510  0.00  0.00    -0.265 N 
ATOM     18  C   UNL     1      -2.196  -1.095   1.954  0.00  0.00    +0.241 C 
ATOM     19  O   UNL     1      -2.268  -2.263   1.635  0.00  0.00    -0.274 OA
ENDROOT
BRANCH   8  20
ATOM     20  N   UNL     1      -0.549  -2.097   6.236  0.00  0.00    -0.328 N 
ATOM     21  H   UNL     1       0.186  -2.416   6.783  0.00  0.00    +0.145 HD
ATOM     22  H   UNL     1      -1.461  -2.170   6.559  0.00  0.00    +0.145 HD
ENDBRANCH   8  20
BRANCH   1  24
ATOM     23  C   UNL     1      -0.019   1.526   0.010  0.00  0.00    +0.010 C 
ATOM     24  C   UNL     1       0.002  -0.004   0.002  0.00  0.00    +0.052 C 
ENDBRANCH   1  24
BRANCH   9  25
ATOM     25  C   UNL     1      -2.671  -1.260   4.831  0.00  0.00    +0.102 C 
ATOM     26  N   UNL     1      -3.713  -1.376   5.267  0.00  0.00    -0.191 NA
ENDBRANCH   9  25
BRANCH  17  27
ATOM     27  C   UNL     1      -4.072  -0.270   0.546  0.00  0.00    +0.148 C 
BRANCH  27  28
ATOM     28  C   UNL     1      -3.540  -0.093  -0.852  0.00  0.00    -0.030 A 
ATOM     29  C   UNL     1      -3.532   1.161  -1.435  0.00  0.00    +0.006 A 
ATOM     30  C   UNL     1      -3.044   1.324  -2.718  0.00  0.00    +0.020 A 
ATOM     31  C   UNL     1      -2.563   0.232  -3.418  0.00  0.00    +0.041 A 
ATOM     32  C   UNL     1      -2.571  -1.022  -2.835  0.00  0.00    +0.020 A 
ATOM     33  C   UNL     1      -3.054  -1.183  -1.550  0.00  0.00    +0.006 A 
ATOM     34 CL   UNL     1      -1.950   0.435  -5.030  0.00  0.00    -0.084 Cl
ENDBRANCH  27  28
ENDBRANCH  17  27
TORSDOF 5
