REMARK  Name = ZINC39533735
REMARK  5 active torsions:
REMARK  status: ('A' for Active; 'I' for Inactive)
REMARK    1  A    between atoms: C_4  and  C_7
REMARK    2  A    between atoms: C_10  and  C_13
REMARK    3  A    between atoms: C_13  and  C_15
REMARK    4  A    between atoms: C_13  and  N_18
REMARK    5  A    between atoms: C_15  and  N_16
REMARK                            x       y       z     vdW  Elec       q    Type
REMARK                         _______ _______ _______ _____ _____    ______ ____
ROOT
ATOM      1  C   UNL     1       7.472  -2.721  -0.068  0.00  0.00    +0.101 C 
ENDROOT
BRANCH   1   2
ATOM      2  N   UNL     1       7.372  -3.904  -0.933  0.00  0.00    -0.295 NA
ATOM      3  C   UNL     1       6.745  -5.027  -0.221  0.00  0.00    +0.066 C 
ATOM      4  C   UNL     1       6.605  -6.217  -1.173  0.00  0.00    -0.063 C 
ATOM      5  N   UNL     1       7.932  -6.607  -1.667  0.00  0.00    +0.400 N 
ATOM      6  C   UNL     1       8.535  -5.484  -2.397  0.00  0.00    +0.116 C 
ATOM      7  C   UNL     1       8.691  -4.288  -1.456  0.00  0.00    +0.100 C 
ATOM      8  O   UNL     1       9.819  -5.872  -2.892  0.00  0.00    -0.251 OA
ATOM      9  H   UNL     1       8.522  -6.856  -0.886  0.00  0.00    -0.082 HD
ATOM     10  H   UNL     1       7.841  -7.400  -2.284  0.00  0.00    -0.082 HD
ENDBRANCH   1   2
BRANCH   1  14
ATOM     11  C   UNL     1       3.797  -0.540  -0.204  0.00  0.00    -0.018 A 
ATOM     12  C   UNL     1       4.964   0.083   0.234  0.00  0.00    +0.009 A 
ATOM     13  C   UNL     1       6.148  -0.626   0.276  0.00  0.00    +0.006 A 
ATOM     14  C   UNL     1       6.177  -1.953  -0.116  0.00  0.00    -0.029 A 
ATOM     15  C   UNL     1       5.021  -2.576  -0.551  0.00  0.00    +0.006 A 
ATOM     16  C   UNL     1       3.831  -1.878  -0.592  0.00  0.00    +0.009 A 
BRANCH  11  20
ATOM     17  C   UNL     1       0.142   1.629  -0.339  0.00  0.00    +0.000 A 
ATOM     18  C   UNL     1       1.299   2.254   0.091  0.00  0.00    +0.001 A 
ATOM     19  C   UNL     1       2.488   1.554   0.137  0.00  0.00    +0.008 A 
ATOM     20  C   UNL     1       2.522   0.217  -0.251  0.00  0.00    -0.018 A 
ATOM     21  C   UNL     1       1.354  -0.408  -0.683  0.00  0.00    +0.008 A 
ATOM     22  C   UNL     1       0.170   0.301  -0.726  0.00  0.00    +0.001 A 
ENDBRANCH  11  20
ENDBRANCH   1  14
BRANCH   1  23
ATOM     23  C   UNL     1       7.750  -3.164   1.370  0.00  0.00    +0.115 C 
BRANCH  23  24
ATOM     24  N   UNL     1       9.015  -3.908   1.418  0.00  0.00    -0.259 NA
ATOM     25  I   UNL     1       9.559  -4.310   3.353  0.00  0.00    +0.018 I 
ATOM     26  H   UNL     1       8.957  -4.756   0.875  0.00  0.00    +0.134 HD
ENDBRANCH  23  24
ENDBRANCH   1  23
TORSDOF 5
