REMARK  Name = ZINC12585873
REMARK  4 active torsions:
REMARK  status: ('A' for Active; 'I' for Inactive)
REMARK    1  A    between atoms: C_2  and  C_3
REMARK    2  A    between atoms: C_3  and  N_4
REMARK    3  A    between atoms: C_5  and  C_16
REMARK    4  A    between atoms: C_19  and  O_22
REMARK                            x       y       z     vdW  Elec       q    Type
REMARK                         _______ _______ _______ _____ _____    ______ ____
ROOT
ATOM      1  N   UNL     1      -0.807   1.889   1.136  0.00  0.00    -0.271 N 
ATOM      2  C   UNL     1      -0.127   1.321  -0.028  0.00  0.00    +0.193 C 
ATOM      3  N   UNL     1      -0.927   1.540  -1.238  0.00  0.00    -0.321 N 
ATOM      4  C   UNL     1      -1.496   2.793  -1.440  0.00  0.00    +0.041 A 
ATOM      5  C   UNL     1      -1.722   3.300  -2.708  0.00  0.00    +0.024 A 
ATOM      6  C   UNL     1      -2.286   4.553  -2.853  0.00  0.00    +0.002 A 
ATOM      7  C   UNL     1      -2.627   5.305  -1.739  0.00  0.00    +0.001 A 
ATOM      8  C   UNL     1      -2.410   4.814  -0.469  0.00  0.00    +0.015 A 
ATOM      9  C   UNL     1      -1.843   3.552  -0.308  0.00  0.00    +0.058 A 
ATOM     10  C   UNL     1      -1.594   2.977   1.026  0.00  0.00    +0.250 C 
ATOM     11  O   UNL     1      -2.095   3.477   2.014  0.00  0.00    -0.270 OA
ATOM     12  H   UNL     1      -1.057   0.828  -1.883  0.00  0.00    +0.148 HD
ENDROOT
BRANCH   2  13
ATOM     13  C   UNL     1       1.218   1.982  -0.192  0.00  0.00    -0.009 A 
ATOM     14  C   UNL     1       2.363   1.210  -0.256  0.00  0.00    +0.010 A 
ATOM     15  C   UNL     1       3.596   1.812  -0.412  0.00  0.00    +0.046 A 
ATOM     16  C   UNL     1       3.686   3.195  -0.493  0.00  0.00    +0.117 A 
ATOM     17  C   UNL     1       2.536   3.967  -0.424  0.00  0.00    +0.046 A 
ATOM     18  C   UNL     1       1.304   3.359  -0.273  0.00  0.00    +0.010 A 
BRANCH  16  19
ATOM     19  O   UNL     1       4.898   3.791  -0.642  0.00  0.00    -0.507 OA
ATOM     20  H   UNL     1       5.333   4.010   0.193  0.00  0.00    +0.292 HD
ENDBRANCH  16  19
ENDBRANCH   2  13
BRANCH   1  21
ATOM     21  C   UNL     1      -0.625   1.266   2.450  0.00  0.00    +0.137 C 
BRANCH  21  23
ATOM     22  C   UNL     1       0.245   2.470   4.387  0.00  0.00    +0.005 C 
ATOM     23  C   UNL     1       0.474   1.976   3.195  0.00  0.00    -0.016 C 
ENDBRANCH  21  23
ENDBRANCH   1  21
TORSDOF 4
