REMARK  Name = ZINC20518233
REMARK  7 active torsions:
REMARK  status: ('A' for Active; 'I' for Inactive)
REMARK    1  A    between atoms: C_1  and  C_2
REMARK    2  A    between atoms: C_2  and  C_3
REMARK    3  A    between atoms: C_3  and  C_4
REMARK    4  A    between atoms: C_4  and  C_5
REMARK    5  A    between atoms: C_8  and  N_11
REMARK    6  A    between atoms: C_16  and  C_34
REMARK    7  A    between atoms: C_34  and  C_35
REMARK                            x       y       z     vdW  Elec       q    Type
REMARK                         _______ _______ _______ _____ _____    ______ ____
ROOT
ATOM      1  N   UNL     1       3.508  -3.921   5.831  0.00  0.00    -0.210 N 
ATOM      2  C   UNL     1       4.810  -4.227   5.822  0.00  0.00    +0.232 C 
ATOM      3  O   UNL     1       5.542  -4.143   4.859  0.00  0.00    -0.274 OA
ATOM      4  C   UNL     1       5.227  -4.694   7.198  0.00  0.00    +0.108 C 
ATOM      5  C   UNL     1       5.568  -6.199   7.141  0.00  0.00    +0.076 C 
ATOM      6  N   UNL     1       4.884  -6.789   8.322  0.00  0.00    -0.295 NA
ATOM      7  C   UNL     1       3.598  -6.070   8.390  0.00  0.00    +0.136 C 
ATOM      8  C   UNL     1       3.912  -4.599   8.021  0.00  0.00    +0.123 C 
ATOM      9  C   UNL     1       2.906  -4.089   7.015  0.00  0.00    +0.233 C 
ATOM     10  O   UNL     1       1.737  -3.869   7.243  0.00  0.00    -0.274 OA
ATOM     11  C   UNL     1       2.581  -6.676   7.465  0.00  0.00    +0.006 A 
ATOM     12  C   UNL     1       2.540  -6.881   6.104  0.00  0.00    +0.046 A 
ATOM     13  C   UNL     1       1.435  -7.484   5.526  0.00  0.00    +0.124 A 
ATOM     14  C   UNL     1       0.372  -7.879   6.322  0.00  0.00    +0.040 A 
ATOM     15  C   UNL     1       0.410  -7.673   7.685  0.00  0.00    +0.026 A 
ATOM     16  C   UNL     1       1.517  -7.068   8.273  0.00  0.00    +0.039 A 
ATOM     17  N   UNL     1       1.786  -6.756   9.609  0.00  0.00    -0.283 N 
ATOM     18  C   UNL     1       2.988  -6.168   9.762  0.00  0.00    +0.243 C 
ATOM     19  O   UNL     1       3.482  -5.790  10.803  0.00  0.00    -0.273 OA
ATOM     20  F   UNL     1       1.394  -7.686   4.191  0.00  0.00    -0.205 F 
ATOM     21  H   UNL     1       4.738  -7.780   8.197  0.00  0.00    +0.124 HD
ATOM     22  H   UNL     1       1.177  -6.942  10.341  0.00  0.00    +0.155 HD
ENDROOT
BRANCH   1  26
ATOM     23  C   UNL     1       1.493  -2.538   2.454  0.00  0.00    -0.047 A 
ATOM     24  C   UNL     1       1.677  -1.701   3.538  0.00  0.00    +0.005 A 
ATOM     25  C   UNL     1       2.345  -2.156   4.659  0.00  0.00    +0.024 A 
ATOM     26  C   UNL     1       2.830  -3.456   4.696  0.00  0.00    +0.044 A 
ATOM     27  C   UNL     1       2.643  -4.295   3.605  0.00  0.00    +0.024 A 
ATOM     28  C   UNL     1       1.971  -3.835   2.490  0.00  0.00    +0.005 A 
BRANCH  23  29
ATOM     29  C   UNL     1       0.765  -2.038   1.233  0.00  0.00    +0.035 C 
BRANCH  29  30
ATOM     30  C   UNL     1      -0.733  -2.314   1.384  0.00  0.00    +0.004 C 
BRANCH  30  32
ATOM     31  C   UNL     1      -2.969  -2.083   0.295  0.00  0.00    +0.004 C 
ATOM     32  C   UNL     1      -1.472  -1.807   0.144  0.00  0.00    -0.003 C 
ENDBRANCH  30  32
ENDBRANCH  29  30
ENDBRANCH  23  29
ENDBRANCH   1  26
BRANCH   5  33
ATOM     33  C   UNL     1       7.081  -6.406   7.240  0.00  0.00    +0.115 C 
BRANCH  33  34
ATOM     34  C   UNL     1       7.400  -7.868   7.059  0.00  0.00    +0.212 C 
ATOM     35  O   UNL     1       6.506  -8.665   6.870  0.00  0.00    -0.276 OA
ATOM     36  N   UNL     1       8.680  -8.289   7.108  0.00  0.00    -0.329 N 
ATOM     37  H   UNL     1       9.395  -7.651   7.259  0.00  0.00    +0.145 HD
ATOM     38  H   UNL     1       8.885  -9.230   6.991  0.00  0.00    +0.145 HD
ENDBRANCH  33  34
ENDBRANCH   5  33
TORSDOF 6
