REMARK  Name = ZINC61440335
REMARK  4 active torsions:
REMARK  status: ('A' for Active; 'I' for Inactive)
REMARK    1  A    between atoms: C_1  and  C_2
REMARK    2  A    between atoms: C_9  and  S_12
REMARK    3  A    between atoms: S_12  and  C_13
REMARK    4  A    between atoms: C_18  and  C_19
REMARK                            x       y       z     vdW  Elec       q    Type
REMARK                         _______ _______ _______ _____ _____    ______ ____
ROOT
ATOM      1  C   UNL     1       0.245  -5.227   4.219  0.00  0.00    +0.027 A 
ATOM      2  C   UNL     1       1.482  -5.260   4.851  0.00  0.00    +0.016 A 
ATOM      3  C   UNL     1       1.598  -4.860   6.167  0.00  0.00    +0.003 A 
ATOM      4  C   UNL     1       0.486  -4.423   6.868  0.00  0.00    +0.021 A 
ATOM      5  C   UNL     1      -0.751  -4.383   6.258  0.00  0.00    +0.052 A 
ATOM      6  C   UNL     1      -0.883  -4.779   4.924  0.00  0.00    +0.044 A 
ATOM      7 CL   UNL     1      -2.140  -3.836   7.144  0.00  0.00    -0.083 Cl
ENDROOT
BRANCH   6   8
ATOM      8  C   UNL     1      -2.201  -4.733   4.263  0.00  0.00    +0.097 C 
ATOM      9  N   UNL     1      -2.804  -3.561   4.060  0.00  0.00    -0.387 N 
ATOM     10  N   UNL     1      -2.788  -5.862   3.867  0.00  0.00    -0.344 N 
ATOM     11  H   UNL     1      -2.377  -2.739   4.348  0.00  0.00    +0.157 HD
ATOM     12  H   UNL     1      -2.349  -6.715   4.014  0.00  0.00    +0.144 HD
ATOM     13  H   UNL     1      -3.655  -5.832   3.433  0.00  0.00    +0.144 HD
ATOM     14  H   UNL     1      -3.671  -3.531   3.625  0.00  0.00    +0.157 HD
ENDBRANCH   6   8
BRANCH   1  15
ATOM     15  S   UNL     1       0.095  -5.737   2.539  0.00  0.00    -0.051 S 
BRANCH  15  24
ATOM     16  C   UNL     1      -0.272   1.502   0.032  0.00  0.00    +0.044 C 
ATOM     17  C   UNL     1      -0.290  -0.005   0.028  0.00  0.00    -0.048 A 
ATOM     18  C   UNL     1      -0.511  -0.687  -1.160  0.00  0.00    +0.005 A 
ATOM     19  C   UNL     1      -0.530  -2.067  -1.180  0.00  0.00    +0.028 A 
ATOM     20  C   UNL     1      -0.328  -2.777  -0.007  0.00  0.00    +0.067 A 
ATOM     21  C   UNL     1      -0.104  -2.091   1.199  0.00  0.00    +0.090 A 
ATOM     22  C   UNL     1      -0.083  -0.694   1.202  0.00  0.00    +0.033 A 
ATOM     23  N   UNL     1       0.058  -3.029   2.168  0.00  0.00    -0.222 NA
ATOM     24  C   UNL     1      -0.049  -4.225   1.646  0.00  0.00    +0.172 A 
ATOM     25  N   UNL     1      -0.287  -4.126   0.304  0.00  0.00    -0.333 N 
ATOM     26  H   UNL     1      -0.407  -4.863  -0.315  0.00  0.00    +0.168 HD
ENDBRANCH  15  24
ENDBRANCH   1  15
TORSDOF 3
