REMARK  Name = ZINC40535865
REMARK  7 active torsions:
REMARK  status: ('A' for Active; 'I' for Inactive)
REMARK    1  A    between atoms: C_1  and  C_2
REMARK    2  A    between atoms: C_2  and  C_3
REMARK    3  A    between atoms: C_2  and  C_4
REMARK    4  A    between atoms: C_2  and  CA_5
REMARK    5  A    between atoms: CA_5  and  C_7
REMARK    6  A    between atoms: CA_5  and  N_10
REMARK    7  A    between atoms: N_13  and  C_14
REMARK                            x       y       z     vdW  Elec       q    Type
REMARK                         _______ _______ _______ _____ _____    ______ ____
ROOT
ATOM      1  N   UNL     1       0.755  -1.962  -1.264  0.00  0.00    -0.285 N 
ATOM      2  C   UNL     1       0.844  -2.628  -2.432  0.00  0.00    +0.305 C 
ATOM      3  O   UNL     1       0.914  -2.014  -3.479  0.00  0.00    -0.252 OA
ATOM      4  N   UNL     1       0.856  -3.976  -2.440  0.00  0.00    -0.268 N 
ATOM      5  H   UNL     1       0.699  -2.452  -0.429  0.00  0.00    +0.151 HD
ATOM      6  H   UNL     1       0.866  -4.466  -1.602  0.00  0.00    +0.156 HD
ENDROOT
BRANCH   4   7
ATOM      7  C   UNL     1       0.854  -4.670  -3.656  0.00  0.00    +0.053 A 
ATOM      8  C   UNL     1       1.526  -4.150  -4.754  0.00  0.00    +0.026 A 
ATOM      9  C   UNL     1       1.522  -4.836  -5.953  0.00  0.00    +0.022 A 
ATOM     10  C   UNL     1       0.850  -6.041  -6.061  0.00  0.00    +0.042 A 
ATOM     11  C   UNL     1       0.179  -6.561  -4.969  0.00  0.00    +0.041 A 
ATOM     12  C   UNL     1       0.184  -5.882  -3.765  0.00  0.00    +0.064 A 
ATOM     13 CL   UNL     1      -0.651  -6.540  -2.393  0.00  0.00    -0.082 Cl
ATOM     14 CL   UNL     1       0.848  -6.900  -7.570  0.00  0.00    -0.083 Cl
ENDBRANCH   4   7
BRANCH   1  15
ATOM     15  CA  UNL     1       0.742  -0.497  -1.256  0.00  0.00    +0.193 C 
BRANCH  15  17
ATOM     16  C   UNL     1       0.022   1.530   0.015  0.00  0.00    +0.013 C 
ATOM     17  C   UNL     1       0.036   0.000   0.007  0.00  0.00    -0.009 C 
ATOM     18  C   UNL     1       0.781  -0.510   1.242  0.00  0.00    +0.013 C 
ATOM     19  C   UNL     1      -1.402  -0.523   0.027  0.00  0.00    +0.013 C 
ENDBRANCH  15  17
BRANCH  15  20
ATOM     20  C   UNL     1       2.158   0.018  -1.276  0.00  0.00    +0.376 C 
ATOM     21  O   UNL     1       3.052  -0.635  -0.766  0.00  0.00    -0.244 OA
ATOM     22  OXT UNL     1       2.410   1.089  -1.802  0.00  0.00    -0.244 OA
ENDBRANCH  15  20
ENDBRANCH   1  15
TORSDOF 4
