REMARK  Name = ZINC39522968
REMARK  5 active torsions:
REMARK  status: ('A' for Active; 'I' for Inactive)
REMARK    1  A    between atoms: C_1  and  O_2
REMARK    2  A    between atoms: O_2  and  C_3
REMARK    3  A    between atoms: N_9  and  O_10
REMARK    4  A    between atoms: C_14  and  S_17
REMARK    5  A    between atoms: S_17  and  C_18
REMARK                            x       y       z     vdW  Elec       q    Type
REMARK                         _______ _______ _______ _____ _____    ______ ____
ROOT
ATOM      1  C   UNL     1       0.621  -0.648   1.468  0.00  0.00    +0.213 C 
ATOM      2  C   UNL     1       0.322  -2.146   1.377  0.00  0.00    +0.050 C 
ATOM      3  C   UNL     1       1.224  -2.901   2.358  0.00  0.00    +0.006 C 
ATOM      4  C   UNL     1       2.688  -2.596   2.030  0.00  0.00    +0.025 C 
ATOM      5  C   UNL     1       2.919  -1.085   2.102  0.00  0.00    +0.051 C 
ATOM      6  N   UNL     1       2.033  -0.408   1.146  0.00  0.00    -0.156 NA
ATOM      7  C   UNL     1       4.377  -0.776   1.754  0.00  0.00    +0.025 C 
ATOM      8  C   UNL     1       4.611   0.734   1.829  0.00  0.00    +0.003 C 
ATOM      9  C   UNL     1       4.309   1.227   3.245  0.00  0.00    +0.014 C 
ATOM     10  C   UNL     1       2.851   0.920   3.592  0.00  0.00    +0.048 C 
ATOM     11  C   UNL     1       2.617  -0.590   3.518  0.00  0.00    +0.039 C 
ENDROOT
BRANCH   1  13
ATOM     12  C   UNL     1      -0.114  -0.419  -0.802  0.00  0.00    +0.196 C 
ATOM     13  O   UNL     1      -0.206   0.060   0.541  0.00  0.00    -0.363 OA
ENDBRANCH   1  13
BRANCH   6  14
ATOM     14  O   UNL     1       2.322   1.025   1.088  0.00  0.00    -0.309 OA
ATOM     15  H   UNL     1       1.866   1.490   0.373  0.00  0.00    +0.237 HD
ENDBRANCH   6  14
BRANCH  10  16
ATOM     16  S   UNL     1       2.493   1.505   5.271  0.00  0.00    -0.161 S 
ATOM     17  C   UNL     1       2.668   3.307   5.154  0.00  0.00    +0.084 C 
ENDBRANCH  10  16
TORSDOF 3
