REMARK  Name = ZINC09608523
REMARK  9 active torsions:
REMARK  status: ('A' for Active; 'I' for Inactive)
REMARK    1  A    between atoms: C_1  and  N_2
REMARK    2  A    between atoms: N_2  and  C_3
REMARK    3  A    between atoms: N_2  and  S_21
REMARK    4  A    between atoms: C_3  and  C_4
REMARK    5  A    between atoms: N_6  and  C_7
REMARK    6  A    between atoms: C_7  and  C_8
REMARK    7  A    between atoms: C_8  and  N_65
REMARK    8  A    between atoms: N_11  and  C_14
REMARK    9  A    between atoms: S_21  and  C_24
REMARK                            x       y       z     vdW  Elec       q    Type
REMARK                         _______ _______ _______ _____ _____    ______ ____
ROOT
ATOM      1  C   UNL     1       1.396   1.982  -0.001  0.00  0.00    +0.229 C 
ATOM      2  O   UNL     1       2.328   1.207  -0.014  0.00  0.00    -0.274 OA
ATOM      3  N   UNL     1       1.624   3.311   0.004  0.00  0.00    -0.316 N 
ATOM      4  H   UNL     1       0.879   3.931   0.015  0.00  0.00    +0.149 HD
ENDROOT
BRANCH   1   5
ATOM      5  C   UNL     1      -0.018   1.461   0.010  0.00  0.00    +0.204 C 
BRANCH   5   7
ATOM      6  C   UNL     1       0.111  -0.728  -1.267  0.00  0.00    +0.132 C 
ATOM      7  N   UNL     1       0.002  -0.004   0.002  0.00  0.00    -0.171 NA
BRANCH   7   8
ATOM      8  S   UNL     1      -0.098  -0.841   1.427  0.00  0.00    +0.061 S 
ATOM      9  O   UNL     1       0.489  -2.114   1.193  0.00  0.00    -0.153 OA
ATOM     10  O   UNL     1       0.364   0.035   2.446  0.00  0.00    -0.153 OA
BRANCH   8  11
ATOM     11  C   UNL     1      -1.808  -1.127   1.745  0.00  0.00    +0.106 A 
ATOM     12  C   UNL     1      -2.536  -0.207   2.477  0.00  0.00    +0.030 A 
ATOM     13  C   UNL     1      -3.877  -0.426   2.725  0.00  0.00    +0.025 A 
ATOM     14  C   UNL     1      -4.491  -1.575   2.245  0.00  0.00    +0.037 A 
ATOM     15  C   UNL     1      -3.756  -2.498   1.514  0.00  0.00    -0.024 A 
ATOM     16  C   UNL     1      -2.416  -2.272   1.266  0.00  0.00    +0.034 A 
ATOM     17  C   UNL     1      -4.423  -3.745   0.993  0.00  0.00    +0.046 C 
ATOM     18  C   UNL     1      -5.492  -4.205   1.984  0.00  0.00    +0.101 C 
ATOM     19  C   UNL     1      -6.364  -3.041   2.374  0.00  0.00    +0.218 C 
ATOM     20  O   UNL     1      -7.545  -3.220   2.581  0.00  0.00    -0.275 OA
ATOM     21  N   UNL     1      -5.847  -1.805   2.496  0.00  0.00    -0.285 N 
ATOM     22  H   UNL     1      -6.420  -1.067   2.760  0.00  0.00    +0.155 HD
ENDBRANCH   8  11
ENDBRANCH   7   8
ENDBRANCH   5   7
ENDBRANCH   1   5
BRANCH   3  23
ATOM     23  C   UNL     1       2.999   3.818  -0.006  0.00  0.00    +0.086 C 
BRANCH  23  24
ATOM     24  C   UNL     1       2.978   5.348   0.002  0.00  0.00    -0.060 C 
BRANCH  24  30
ATOM     25  C   UNL     1       5.054   5.512   1.239  0.00  0.00    -0.060 C 
ATOM     26  C   UNL     1       6.506   5.989   1.156  0.00  0.00    +0.086 C 
ATOM     27  N   UNL     1       6.530   7.440   0.925  0.00  0.00    -0.331 N 
ATOM     28  C   UNL     1       5.832   7.784  -0.322  0.00  0.00    +0.086 C 
ATOM     29  C   UNL     1       4.380   7.307  -0.239  0.00  0.00    -0.060 C 
ATOM     30  N   UNL     1       4.370   5.844  -0.029  0.00  0.00    +0.383 N 
ATOM     31  H   UNL     1       4.868   5.392  -0.805  0.00  0.00    -0.082 HD
BRANCH  27  32
ATOM     32  C   UNL     1       7.842   7.924   0.915  0.00  0.00    +0.065 A 
ATOM     33  C   UNL     1       8.080   9.285   0.785  0.00  0.00    +0.026 A 
ATOM     34  C   UNL     1       9.377   9.761   0.779  0.00  0.00    +0.002 A 
ATOM     35  C   UNL     1      10.439   8.882   0.894  0.00  0.00    +0.003 A 
ATOM     36  C   UNL     1      10.207   7.525   1.020  0.00  0.00    +0.040 A 
ATOM     37  C   UNL     1       8.911   7.042   1.030  0.00  0.00    +0.144 A 
ATOM     38  F   UNL     1       8.684   5.716   1.152  0.00  0.00    -0.204 F 
ENDBRANCH  27  32
ENDBRANCH  24  30
ENDBRANCH  23  24
ENDBRANCH   3  23
TORSDOF 8
