REMARK  Name = ZINC59186748
REMARK  11 active torsions:
REMARK  status: ('A' for Active; 'I' for Inactive)
REMARK    1  A    between atoms: C_1  and  O_2
REMARK    2  A    between atoms: O_2  and  C_3
REMARK    3  A    between atoms: C_5  and  C_13
REMARK    4  A    between atoms: C_7  and  O_11
REMARK    5  A    between atoms: C_8  and  O_9
REMARK    6  A    between atoms: O_9  and  C_10
REMARK    7  A    between atoms: O_11  and  C_12
REMARK    8  A    between atoms: N_15  and  C_16
REMARK    9  A    between atoms: C_16  and  C_18
REMARK   10  A    between atoms: C_16  and  C_22
REMARK   11  A    between atoms: N_20  and  N_21
REMARK                            x       y       z     vdW  Elec       q    Type
REMARK                         _______ _______ _______ _____ _____    ______ ____
ROOT
ATOM      1  C   UNL     1      -4.856   0.233   0.038  0.00  0.00    +0.245 C 
ATOM      2  O   UNL     1      -4.811   1.448   0.040  0.00  0.00    -0.270 OA
ATOM      3  N   UNL     1      -6.047  -0.397   0.045  0.00  0.00    -0.293 N 
ATOM      4  H   UNL     1      -6.083  -1.366   0.044  0.00  0.00    +0.150 HD
ENDROOT
BRANCH   1   7
ATOM      5  C   UNL     1      -1.201  -0.638   0.010  0.00  0.00    +0.166 A 
ATOM      6  C   UNL     1      -2.370   0.100   0.019  0.00  0.00    +0.062 A 
ATOM      7  C   UNL     1      -3.606  -0.552   0.027  0.00  0.00    +0.044 A 
ATOM      8  C   UNL     1      -3.657  -1.948   0.026  0.00  0.00    +0.062 A 
ATOM      9  C   UNL     1      -2.485  -2.681   0.016  0.00  0.00    +0.166 A 
ATOM     10  C   UNL     1      -1.254  -2.029   0.003  0.00  0.00    +0.204 A 
BRANCH   5  12
ATOM     11  C   UNL     1      -0.017   1.425   0.010  0.00  0.00    +0.277 C 
ATOM     12  O   UNL     1       0.002  -0.004   0.002  0.00  0.00    -0.491 OA
ENDBRANCH   5  12
BRANCH  10  13
ATOM     13  O   UNL     1      -0.104  -2.752  -0.011  0.00  0.00    -0.488 OA
ATOM     14  C   UNL     1       0.457  -3.104   1.255  0.00  0.00    +0.277 C 
ENDBRANCH  10  13
BRANCH   9  15
ATOM     15  O   UNL     1      -2.533  -4.040   0.015  0.00  0.00    -0.491 OA
ATOM     16  C   UNL     1      -3.829  -4.643   0.024  0.00  0.00    +0.277 C 
ENDBRANCH   9  15
ENDBRANCH   1   7
BRANCH   3  17
ATOM     17  C   UNL     1      -7.288   0.383   0.056  0.00  0.00    +0.265 C 
BRANCH  17  18
ATOM     18  C   UNL     1      -8.394  -0.442   0.663  0.00  0.00    +0.256 C 
ATOM     19  O   UNL     1      -8.168  -1.569   1.049  0.00  0.00    -0.272 OA
ATOM     20  N   UNL     1      -9.634   0.074   0.777  0.00  0.00    -0.252 N 
ATOM     21  H   UNL     1      -9.814   0.976   0.468  0.00  0.00    +0.169 HD
BRANCH  20  22
ATOM     22  N   UNL     1     -10.636  -0.673   1.327  0.00  0.00    -0.254 NA
ATOM     23  H   UNL     1     -10.385  -0.991   2.251  0.00  0.00    +0.140 HD
ATOM     24  H   UNL     1     -11.503  -0.157   1.346  0.00  0.00    +0.140 HD
ENDBRANCH  20  22
ENDBRANCH  17  18
BRANCH  17  25
ATOM     25  C   UNL     1      -7.663   0.763  -1.378  0.00  0.00    +0.416 C 
ATOM     26  F   UNL     1      -7.849  -0.399  -2.135  0.00  0.00    -0.168 F 
ATOM     27  F   UNL     1      -8.848   1.507  -1.368  0.00  0.00    -0.168 F 
ATOM     28  F   UNL     1      -6.636   1.528  -1.942  0.00  0.00    -0.168 F 
ENDBRANCH  17  25
ENDBRANCH   3  17
TORSDOF 8
