REMARK  Name = ZINC08569987
REMARK  5 active torsions:
REMARK  status: ('A' for Active; 'I' for Inactive)
REMARK    1  A    between atoms: C_1  and  C_2
REMARK    2  A    between atoms: C_2  and  C_4
REMARK    3  A    between atoms: C_2  and  C_12
REMARK    4  A    between atoms: C_4  and  C_6
REMARK    5  A    between atoms: C_12  and  O_24
REMARK                            x       y       z     vdW  Elec       q    Type
REMARK                         _______ _______ _______ _____ _____    ______ ____
ROOT
ATOM      1  C   UNL     1      -2.388   1.107  -0.702  0.00  0.00    +0.179 C 
ATOM      2  C   UNL     1      -3.720   1.820  -0.698  0.00  0.00    +0.033 A 
ATOM      3  C   UNL     1      -4.602   0.997  -0.008  0.00  0.00    +0.043 A 
ATOM      4  C   UNL     1      -5.923   1.408   0.152  0.00  0.00    +0.043 A 
ATOM      5  C   UNL     1      -6.342   2.616  -0.369  0.00  0.00    +0.044 A 
ATOM      6  C   UNL     1      -5.455   3.428  -1.054  0.00  0.00    +0.040 A 
ATOM      7  C   UNL     1      -4.139   3.025  -1.217  0.00  0.00    +0.051 A 
ATOM      8 CL   UNL     1      -3.021   4.037  -2.076  0.00  0.00    -0.083 Cl
ATOM      9 CL   UNL     1      -7.991   3.120  -0.164  0.00  0.00    -0.083 Cl
ATOM     10  N   UNL     1      -3.949  -0.160   0.418  0.00  0.00    -0.282 N 
ATOM     11  C   UNL     1      -2.655  -0.177   0.055  0.00  0.00    +0.254 C 
ATOM     12  O   UNL     1      -1.852  -1.055   0.290  0.00  0.00    -0.272 OA
ATOM     13  H   UNL     1      -4.379  -0.871   0.918  0.00  0.00    +0.155 HD
ENDROOT
BRANCH   1  15
ATOM     14  C   UNL     1      -1.752   2.157   1.474  0.00  0.00    +0.019 C 
ATOM     15  C   UNL     1      -1.330   1.944   0.019  0.00  0.00    +0.102 C 
BRANCH  15  16
ATOM     16  C   UNL     1      -0.007   1.223  -0.020  0.00  0.00    +0.169 C 
ATOM     17  O   UNL     1       0.029   0.035  -0.258  0.00  0.00    -0.292 OA
BRANCH  16  18
ATOM     18  C   UNL     1       1.242   1.963   0.224  0.00  0.00    +0.018 A 
ATOM     19  C   UNL     1       1.205   3.335   0.492  0.00  0.00    +0.011 A 
ATOM     20  C   UNL     1       2.378   4.021   0.724  0.00  0.00    +0.001 A 
ATOM     21  C   UNL     1       3.592   3.356   0.682  0.00  0.00    +0.000 A 
ATOM     22  C   UNL     1       3.637   2.000   0.412  0.00  0.00    +0.001 A 
ATOM     23  C   UNL     1       2.472   1.299   0.183  0.00  0.00    +0.011 A 
ENDBRANCH  16  18
ENDBRANCH  15  16
ENDBRANCH   1  15
BRANCH   1  24
ATOM     24  O   UNL     1      -1.974   0.822  -2.039  0.00  0.00    -0.374 OA
ATOM     25  H   UNL     1      -2.607   0.293  -2.543  0.00  0.00    +0.211 HD
ENDBRANCH   1  24
TORSDOF 4
