REMARK  Name = ZINC41068039
REMARK  6 active torsions:
REMARK  status: ('A' for Active; 'I' for Inactive)
REMARK    1  A    between atoms: C_2  and  N_20
REMARK    2  A    between atoms: C_5  and  S_6
REMARK    3  A    between atoms: S_6  and  N_9
REMARK    4  A    between atoms: N_9  and  C_10
REMARK    5  A    between atoms: C_10  and  C_11
REMARK    6  A    between atoms: N_15  and  C_17
REMARK                            x       y       z     vdW  Elec       q    Type
REMARK                         _______ _______ _______ _____ _____    ______ ____
ROOT
ATOM      1  N   UNL     1      -1.744  -1.436  -1.570  0.00  0.00    -0.189 NA
ATOM      2  H   UNL     1      -2.606  -1.157  -1.919  0.00  0.00    +0.148 HD
ENDROOT
BRANCH   1   3
ATOM      3  S   UNL     1      -1.352  -1.131   0.009  0.00  0.00    +0.065 S 
ATOM      4  O   UNL     1      -0.863  -2.351   0.549  0.00  0.00    -0.153 OA
ATOM      5  O   UNL     1      -2.455  -0.436   0.575  0.00  0.00    -0.153 OA
BRANCH   3  10
ATOM      6  C   UNL     1      -0.016   1.351   0.009  0.00  0.00    +0.059 A 
ATOM      7  C   UNL     1       1.187   2.039   0.002  0.00  0.00    +0.034 A 
ATOM      8  C   UNL     1       2.346   1.331  -0.013  0.00  0.00    +0.069 A 
ATOM      9  S   UNL     1       1.753  -0.352  -0.017  0.00  0.00    -0.075 S 
ATOM     10  C   UNL     1       0.002  -0.004   0.002  0.00  0.00    +0.144 A 
BRANCH   7  11
ATOM     11  N   UNL     1       1.207   3.447   0.009  0.00  0.00    -0.358 N 
ATOM     12  H   UNL     1       0.374   3.944   0.019  0.00  0.00    +0.142 HD
ATOM     13  H   UNL     1       2.054   3.920   0.003  0.00  0.00    +0.142 HD
ENDBRANCH   7  11
ENDBRANCH   3  10
ENDBRANCH   1   3
BRANCH   1  14
ATOM     14  C   UNL     1      -0.790  -2.126  -2.442  0.00  0.00    +0.107 C 
BRANCH  14  15
ATOM     15  C   UNL     1      -1.509  -2.612  -3.702  0.00  0.00    -0.014 C 
ATOM     16  C   UNL     1      -1.929  -1.416  -4.588  0.00  0.00    -0.016 C 
ATOM     17  C   UNL     1      -1.665  -1.875  -6.034  0.00  0.00    -0.078 C 
ATOM     18  N   UNL     1      -1.155  -3.262  -5.963  0.00  0.00    +0.382 N 
ATOM     19  C   UNL     1      -0.540  -3.402  -4.616  0.00  0.00    -0.074 C 
ATOM     20  H   UNL     1      -1.915  -3.917  -6.066  0.00  0.00    -0.081 HD
BRANCH  18  21
ATOM     21  C   UNL     1      -0.147  -3.485  -7.007  0.00  0.00    -0.069 C 
ATOM     22  C   UNL     1      -0.500  -4.458  -8.134  0.00  0.00    -0.017 C 
ATOM     23  C   UNL     1       0.518  -4.862  -7.065  0.00  0.00    -0.017 C 
ENDBRANCH  18  21
ENDBRANCH  14  15
ENDBRANCH   1  14
TORSDOF 6
