REMARK  Name = ZINC50249675
REMARK  6 active torsions:
REMARK  status: ('A' for Active; 'I' for Inactive)
REMARK    1  A    between atoms: C_4  and  S_15
REMARK    2  A    between atoms: C_5  and  N_7
REMARK    3  A    between atoms: C_10  and  C_13
REMARK    4  A    between atoms: C_13  and  N_14
REMARK    5  A    between atoms: S_15  and  N_18
REMARK    6  A    between atoms: N_18  and  C_19
REMARK                            x       y       z     vdW  Elec       q    Type
REMARK                         _______ _______ _______ _____ _____    ______ ____
ROOT
ATOM      1  C   UNL     1       0.003   1.329  -0.427  0.00  0.00    +0.002 A 
ATOM      2  C   UNL     1       1.160   2.083  -0.371  0.00  0.00    +0.002 A 
ATOM      3  C   UNL     1       2.387   1.463  -0.223  0.00  0.00    +0.030 A 
ATOM      4  C   UNL     1       2.460   0.087  -0.131  0.00  0.00    +0.126 A 
ATOM      5  C   UNL     1       1.300  -0.674  -0.186  0.00  0.00    +0.056 A 
ATOM      6  C   UNL     1       0.069  -0.047  -0.335  0.00  0.00    +0.025 A 
ENDROOT
BRANCH   5   7
ATOM      7  N   UNL     1       1.370  -2.066  -0.092  0.00  0.00    -0.328 N 
ATOM      8  C   UNL     1       1.276  -2.849   1.153  0.00  0.00    +0.105 C 
ATOM      9  C   UNL     1       0.790  -4.250   0.705  0.00  0.00    +0.022 C 
ATOM     10  C   UNL     1       1.539  -4.423  -0.643  0.00  0.00    -0.010 C 
ATOM     11  C   UNL     1       1.543  -2.992  -1.220  0.00  0.00    +0.107 C 
BRANCH  10  12
ATOM     12  C   UNL     1       0.779  -5.378  -1.566  0.00  0.00    -0.081 C 
BRANCH  12  13
ATOM     13  N   UNL     1       0.790  -6.729  -0.989  0.00  0.00    +0.378 N 
ATOM     14  H   UNL     1       1.744  -7.045  -0.890  0.00  0.00    -0.090 HD
ATOM     15  H   UNL     1       0.346  -6.712  -0.083  0.00  0.00    -0.090 HD
ATOM     16  H   UNL     1       0.289  -7.359  -1.597  0.00  0.00    -0.090 HD
ENDBRANCH  12  13
ENDBRANCH  10  12
ENDBRANCH   5   7
BRANCH   4  17
ATOM     17  S   UNL     1       4.024  -0.703   0.057  0.00  0.00    +0.060 S 
ATOM     18  O   UNL     1       5.001   0.329   0.067  0.00  0.00    -0.153 OA
ATOM     19  O   UNL     1       3.885  -1.631   1.124  0.00  0.00    -0.153 OA
BRANCH  17  20
ATOM     20  N   UNL     1       4.291  -1.593  -1.314  0.00  0.00    -0.187 NA
ATOM     21  H   UNL     1       4.343  -2.560  -1.261  0.00  0.00    +0.148 HD
BRANCH  20  22
ATOM     22  C   UNL     1       4.447  -0.920  -2.606  0.00  0.00    +0.077 C 
ATOM     23  C   UNL     1       3.931  -1.648  -3.848  0.00  0.00    +0.022 C 
ATOM     24  C   UNL     1       5.436  -1.526  -3.603  0.00  0.00    +0.022 C 
ENDBRANCH  20  22
ENDBRANCH  17  20
ENDBRANCH   4  17
TORSDOF 6
