REMARK  Name = ZINC08780324
REMARK  8 active torsions:
REMARK  status: ('A' for Active; 'I' for Inactive)
REMARK    1  A    between atoms: C_1  and  C_2
REMARK    2  A    between atoms: C_7  and  S_26
REMARK    3  A    between atoms: N_11  and  C_12
REMARK    4  A    between atoms: C_12  and  C_13
REMARK    5  A    between atoms: N_15  and  C_16
REMARK    6  A    between atoms: C_16  and  C_17
REMARK    7  A    between atoms: C_17  and  C_18
REMARK    8  A    between atoms: S_26  and  N_29
REMARK                            x       y       z     vdW  Elec       q    Type
REMARK                         _______ _______ _______ _____ _____    ______ ____
ROOT
ATOM      1  C   UNL     1       2.102  -8.755  -2.792  0.00  0.00    +0.028 C 
ATOM      2  C   UNL     1       1.202  -8.361  -3.965  0.00  0.00    +0.075 C 
ATOM      3  C   UNL     1       1.904  -8.631  -5.316  0.00  0.00    +0.059 C 
ATOM      4  C   UNL     1       2.566  -7.302  -5.621  0.00  0.00    -0.023 A 
ATOM      5  C   UNL     1       3.565  -6.960  -6.508  0.00  0.00    +0.034 A 
ATOM      6  C   UNL     1       4.000  -5.650  -6.590  0.00  0.00    +0.105 A 
ATOM      7  C   UNL     1       3.432  -4.683  -5.781  0.00  0.00    +0.030 A 
ATOM      8  C   UNL     1       2.431  -5.019  -4.894  0.00  0.00    +0.025 A 
ATOM      9  C   UNL     1       1.984  -6.337  -4.808  0.00  0.00    +0.034 A 
ATOM     10  N   UNL     1       0.991  -6.898  -3.996  0.00  0.00    -0.318 N 
ENDROOT
BRANCH   6  11
ATOM     11  S   UNL     1       5.277  -5.213  -7.724  0.00  0.00    +0.056 S 
ATOM     12  O   UNL     1       5.881  -4.030  -7.220  0.00  0.00    -0.153 OA
ATOM     13  O   UNL     1       6.018  -6.399  -7.977  0.00  0.00    -0.153 OA
BRANCH  11  14
ATOM     14  N   UNL     1       4.544  -4.800  -9.150  0.00  0.00    -0.204 NA
ATOM     15  H   UNL     1       3.578  -4.832  -9.226  0.00  0.00    +0.144 HD
ATOM     16  H   UNL     1       5.082  -4.526  -9.910  0.00  0.00    +0.144 HD
ENDBRANCH  11  14
ENDBRANCH   6  11
BRANCH  10  17
ATOM     17  C   UNL     1       1.035  -6.330  -2.642  0.00  0.00    +0.201 C 
BRANCH  17  18
ATOM     18  C   UNL     1      -0.135  -6.846  -1.843  0.00  0.00    +0.230 C 
ATOM     19  O   UNL     1      -0.985  -7.524  -2.381  0.00  0.00    -0.274 OA
ATOM     20  N   UNL     1      -0.237  -6.552  -0.531  0.00  0.00    -0.314 N 
ATOM     21  H   UNL     1       0.443  -6.010  -0.102  0.00  0.00    +0.149 HD
BRANCH  20  22
ATOM     22  C   UNL     1      -1.374  -7.053   0.245  0.00  0.00    +0.109 C 
BRANCH  22  23
ATOM     23  C   UNL     1      -1.249  -6.580   1.695  0.00  0.00    +0.055 C 
BRANCH  23  24
ATOM     24  C   UNL     1      -2.418  -7.096   2.493  0.00  0.00    -0.027 A 
ATOM     25  C   UNL     1      -3.534  -6.300   2.677  0.00  0.00    +0.006 A 
ATOM     26  C   UNL     1      -4.607  -6.771   3.409  0.00  0.00    +0.020 A 
ATOM     27  C   UNL     1      -4.565  -8.041   3.959  0.00  0.00    +0.042 A 
ATOM     28  C   UNL     1      -3.449  -8.837   3.776  0.00  0.00    +0.040 A 
ATOM     29  C   UNL     1      -2.376  -8.364   3.043  0.00  0.00    +0.046 A 
ATOM     30 CL   UNL     1      -0.974  -9.363   2.813  0.00  0.00    -0.083 Cl
ATOM     31 CL   UNL     1      -5.913  -8.633   4.879  0.00  0.00    -0.083 Cl
ENDBRANCH  23  24
ENDBRANCH  22  23
ENDBRANCH  20  22
ENDBRANCH  17  18
ENDBRANCH  10  17
TORSDOF 7
