REMARK  Name = ZINC40381122
REMARK  5 active torsions:
REMARK  status: ('A' for Active; 'I' for Inactive)
REMARK    1  A    between atoms: C_1  and  C_2
REMARK    2  A    between atoms: C_5  and  C_7
REMARK    3  A    between atoms: N_9  and  C_10
REMARK    4  A    between atoms: C_13  and  S_17
REMARK    5  A    between atoms: S_17  and  N_20
REMARK                            x       y       z     vdW  Elec       q    Type
REMARK                         _______ _______ _______ _____ _____    ______ ____
ROOT
ATOM      1  C   UNL     1       3.902  -4.073   0.050  0.00  0.00    +0.071 A 
ATOM      2  C   UNL     1       3.457  -5.356   0.346  0.00  0.00    +0.065 A 
ATOM      3  C   UNL     1       4.362  -6.398   0.424  0.00  0.00    +0.050 A 
ATOM      4  C   UNL     1       5.708  -6.165   0.209  0.00  0.00    +0.108 A 
ATOM      5  C   UNL     1       6.154  -4.890  -0.086  0.00  0.00    +0.050 A 
ATOM      6  C   UNL     1       5.254  -3.844  -0.172  0.00  0.00    +0.065 A 
ATOM      7 CL   UNL     1       5.814  -2.244  -0.549  0.00  0.00    -0.082 Cl
ATOM      8 CL   UNL     1       1.768  -5.649   0.617  0.00  0.00    -0.082 Cl
ENDROOT
BRANCH   1  11
ATOM      9  C   UNL     1       2.712  -2.279   1.065  0.00  0.00    +0.284 C 
ATOM     10  O   UNL     1       3.185  -2.590   2.142  0.00  0.00    -0.266 OA
ATOM     11  N   UNL     1       2.989  -3.015  -0.030  0.00  0.00    -0.277 N 
ATOM     12  H   UNL     1       2.554  -2.812  -0.874  0.00  0.00    +0.155 HD
BRANCH   9  17
ATOM     13  C   UNL     1      -0.270   1.240  -0.882  0.00  0.00    +0.086 C 
ATOM     14  C   UNL     1       0.535   0.441   0.110  0.00  0.00    +0.103 A 
ATOM     15  C   UNL     1       0.647   0.709   1.430  0.00  0.00    +0.045 A 
ATOM     16  C   UNL     1       1.482  -0.276   1.982  0.00  0.00    +0.055 A 
ATOM     17  C   UNL     1       1.842  -1.104   0.957  0.00  0.00    +0.190 A 
ATOM     18  O   UNL     1       1.252  -0.655  -0.170  0.00  0.00    -0.455 OA
ENDBRANCH   9  17
ENDBRANCH   1  11
BRANCH   4  19
ATOM     19  S   UNL     1       6.857  -7.496   0.310  0.00  0.00    +0.056 S 
ATOM     20  O   UNL     1       8.122  -6.919   0.605  0.00  0.00    -0.153 OA
ATOM     21  O   UNL     1       6.260  -8.486   1.136  0.00  0.00    -0.153 OA
BRANCH  19  22
ATOM     22  N   UNL     1       6.980  -8.154  -1.205  0.00  0.00    -0.204 NA
ATOM     23  H   UNL     1       6.461  -7.786  -1.937  0.00  0.00    +0.144 HD
ATOM     24  H   UNL     1       7.570  -8.908  -1.360  0.00  0.00    +0.144 HD
ENDBRANCH  19  22
ENDBRANCH   4  19
TORSDOF 4
