REMARK  Name = ZINC37540335
REMARK  7 active torsions:
REMARK  status: ('A' for Active; 'I' for Inactive)
REMARK    1  A    between atoms: C_1  and  C_2
REMARK    2  A    between atoms: C_5  and  S_9
REMARK    3  A    between atoms: C_6  and  C_8
REMARK    4  A    between atoms: S_9  and  N_12
REMARK    5  A    between atoms: N_12  and  C_13
REMARK    6  A    between atoms: N_12  and  C_17
REMARK    7  A    between atoms: C_13  and  C_14
REMARK                            x       y       z     vdW  Elec       q    Type
REMARK                         _______ _______ _______ _____ _____    ______ ____
ROOT
ATOM      1  N   UNL     1       2.446  -4.241   0.517  0.00  0.00    -0.167 NA
ENDROOT
BRANCH   1   2
ATOM      2  C   UNL     1       3.759  -4.074  -0.111  0.00  0.00    +0.062 C 
ATOM      3  C   UNL     1       4.636  -3.114   0.726  0.00  0.00    -0.000 C 
ATOM      4  C   UNL     1       5.493  -4.081   1.580  0.00  0.00    -0.081 C 
ATOM      5  N   UNL     1       5.772  -5.202   0.646  0.00  0.00    +0.380 N 
ATOM      6  C   UNL     1       4.521  -5.412  -0.120  0.00  0.00    -0.062 C 
ATOM      7  H   UNL     1       6.524  -4.955   0.021  0.00  0.00    -0.086 HD
ATOM      8  H   UNL     1       6.007  -6.036   1.163  0.00  0.00    -0.086 HD
ENDBRANCH   1   2
BRANCH   1   9
ATOM      9  S   UNL     1       1.068  -3.963  -0.358  0.00  0.00    +0.062 S 
ATOM     10  O   UNL     1      -0.022  -4.354   0.466  0.00  0.00    -0.153 OA
ATOM     11  O   UNL     1       1.287  -4.519  -1.647  0.00  0.00    -0.153 OA
BRANCH   9  16
ATOM     12  C   UNL     1       0.605   2.006  -1.112  0.00  0.00    +0.044 C 
ATOM     13  C   UNL     1       0.721   0.515  -0.924  0.00  0.00    -0.050 A 
ATOM     14  C   UNL     1       0.880  -0.310  -2.022  0.00  0.00    +0.005 A 
ATOM     15  C   UNL     1       0.986  -1.677  -1.849  0.00  0.00    +0.029 A 
ATOM     16  C   UNL     1       0.934  -2.220  -0.578  0.00  0.00    +0.108 A 
ATOM     17  C   UNL     1       0.776  -1.395   0.519  0.00  0.00    -0.024 A 
ATOM     18  C   UNL     1       0.674  -0.027   0.347  0.00  0.00    +0.008 A 
ATOM     19  C   UNL     1       0.718  -1.986   1.904  0.00  0.00    +0.046 C 
ENDBRANCH   9  16
ENDBRANCH   1   9
BRANCH   1  20
ATOM     20  C   UNL     1       2.352  -4.654   1.920  0.00  0.00    +0.205 C 
BRANCH  20  21
ATOM     21  C   UNL     1       2.305  -6.159   1.998  0.00  0.00    +0.226 C 
ATOM     22  O   UNL     1       2.206  -6.816   0.984  0.00  0.00    -0.275 OA
ATOM     23  N   UNL     1       2.374  -6.773   3.196  0.00  0.00    -0.328 N 
ATOM     24  H   UNL     1       2.454  -6.247   4.007  0.00  0.00    +0.145 HD
ATOM     25  H   UNL     1       2.344  -7.742   3.246  0.00  0.00    +0.145 HD
ENDBRANCH  20  21
ENDBRANCH   1  20
TORSDOF 5
