REMARK  Name = ZINC11869528
REMARK  7 active torsions:
REMARK  status: ('A' for Active; 'I' for Inactive)
REMARK    1  A    between atoms: C_1  and  O_2
REMARK    2  A    between atoms: O_2  and  C_3
REMARK    3  A    between atoms: C_8  and  O_9
REMARK    4  A    between atoms: O_9  and  C_10
REMARK    5  A    between atoms: C_17  and  C_18
REMARK    6  A    between atoms: C_21  and  O_25
REMARK    7  A    between atoms: C_23  and  O_24
REMARK                            x       y       z     vdW  Elec       q    Type
REMARK                         _______ _______ _______ _____ _____    ______ ____
ROOT
ATOM      1  C   UNL     1       1.220  -0.685  -0.125  0.00  0.00    +0.170 A 
ATOM      2  C   UNL     1       1.175  -2.038  -0.241  0.00  0.00    +0.133 A 
ATOM      3  N   UNL     1      -0.025  -2.677  -0.124  0.00  0.00    -0.337 N 
ATOM      4  H   UNL     1      -0.068  -3.643  -0.210  0.00  0.00    +0.167 HD
ATOM      5  C   UNL     1      -1.150  -1.976   0.109  0.00  0.00    +0.178 A 
ATOM      6  S   UNL     1      -2.642  -2.804   0.252  0.00  0.00    -0.011 S 
ATOM      7  N   UNL     1      -1.124  -0.651   0.232  0.00  0.00    -0.219 NA
ATOM      8  C   UNL     1       0.018   0.019   0.126  0.00  0.00    +0.121 A 
ENDROOT
BRANCH   8   9
ATOM      9  C   UNL     1       0.033   1.489   0.264  0.00  0.00    +0.046 A 
ATOM     10  C   UNL     1       0.702   2.275  -0.678  0.00  0.00    +0.017 A 
ATOM     11  C   UNL     1       0.713   3.645  -0.546  0.00  0.00    +0.046 A 
ATOM     12  C   UNL     1       0.059   4.251   0.521  0.00  0.00    +0.120 A 
ATOM     13  C   UNL     1      -0.608   3.480   1.461  0.00  0.00    +0.091 A 
ATOM     14  C   UNL     1      -0.630   2.102   1.336  0.00  0.00    +0.130 A 
BRANCH  14  15
ATOM     15  O   UNL     1      -1.288   1.346   2.252  0.00  0.00    -0.506 OA
ATOM     16  H   UNL     1      -0.742   1.074   3.002  0.00  0.00    +0.292 HD
ENDBRANCH  14  15
BRANCH  12  17
ATOM     17  O   UNL     1       0.075   5.603   0.644  0.00  0.00    -0.507 OA
ATOM     18  H   UNL     1      -0.659   6.047   0.197  0.00  0.00    +0.292 HD
ENDBRANCH  12  17
ENDBRANCH   8   9
BRANCH   1  19
ATOM     19  O   UNL     1       2.401  -0.019  -0.243  0.00  0.00    -0.449 OA
BRANCH  19  25
ATOM     20  C   UNL     1       4.218   1.085   0.836  0.00  0.00    +0.162 A 
ATOM     21  C   UNL     1       4.896   1.407   2.000  0.00  0.00    +0.049 A 
ATOM     22  C   UNL     1       4.432   0.950   3.219  0.00  0.00    +0.004 A 
ATOM     23  C   UNL     1       3.291   0.171   3.281  0.00  0.00    +0.004 A 
ATOM     24  C   UNL     1       2.607  -0.150   2.123  0.00  0.00    +0.050 A 
ATOM     25  C   UNL     1       3.070   0.300   0.897  0.00  0.00    +0.170 A 
BRANCH  20  27
ATOM     26  C   UNL     1       5.857   2.334  -0.351  0.00  0.00    +0.277 C 
ATOM     27  O   UNL     1       4.673   1.534  -0.365  0.00  0.00    -0.491 OA
ENDBRANCH  20  27
ENDBRANCH  19  25
ENDBRANCH   1  19
TORSDOF 6
