REMARK  Name = ZINC02780523
REMARK  9 active torsions:
REMARK  status: ('A' for Active; 'I' for Inactive)
REMARK    1  A    between atoms: C_1  and  C_2
REMARK    2  A    between atoms: C_2  and  N_3
REMARK    3  A    between atoms: C_4  and  C_25
REMARK    4  A    between atoms: C_5  and  N_8
REMARK    5  A    between atoms: C_9  and  C_11
REMARK    6  A    between atoms: C_11  and  C_13
REMARK    7  A    between atoms: C_11  and  N_14
REMARK    8  A    between atoms: C_15  and  C_24
REMARK    9  A    between atoms: C_17  and  C_19
REMARK                            x       y       z     vdW  Elec       q    Type
REMARK                         _______ _______ _______ _____ _____    ______ ____
ROOT
ATOM      1  N   UNL     1       2.160   1.487  -1.143  0.00  0.00    -0.281 N 
ATOM      2  C   UNL     1       1.310   1.867  -0.168  0.00  0.00    +0.242 C 
ATOM      3  O   UNL     1       1.712   2.539   0.759  0.00  0.00    -0.273 OA
ATOM      4  H   UNL     1       1.838   0.949  -1.883  0.00  0.00    +0.155 HD
ENDROOT
BRANCH   1   7
ATOM      5  N   UNL     1       5.648   2.152  -1.521  0.00  0.00    -0.258 N 
ATOM      6  C   UNL     1       4.507   1.559  -1.998  0.00  0.00    +0.144 A 
ATOM      7  C   UNL     1       3.502   1.867  -1.087  0.00  0.00    +0.084 A 
ATOM      8  C   UNL     1       4.130   2.637  -0.095  0.00  0.00    +0.158 A 
ATOM      9  N   UNL     1       5.390   2.761  -0.420  0.00  0.00    -0.177 NA
BRANCH   6  10
ATOM     10  C   UNL     1       4.373   0.763  -3.223  0.00  0.00    +0.261 C 
ATOM     11  O   UNL     1       4.460  -0.449  -3.173  0.00  0.00    -0.269 OA
ATOM     12  N   UNL     1       4.154   1.376  -4.404  0.00  0.00    -0.324 N 
ATOM     13  H   UNL     1       4.160   2.344  -4.456  0.00  0.00    +0.145 HD
ATOM     14  H   UNL     1       3.991   0.848  -5.201  0.00  0.00    +0.145 HD
ENDBRANCH   6  10
BRANCH   5  16
ATOM     15  C   UNL     1       7.777   0.949  -1.560  0.00  0.00    +0.029 C 
ATOM     16  C   UNL     1       6.962   2.094  -2.165  0.00  0.00    +0.141 C 
ENDBRANCH   5  16
ENDBRANCH   1   7
BRANCH   2  17
ATOM     17  C   UNL     1      -0.138   1.456  -0.228  0.00  0.00    +0.190 C 
ATOM     18  C   UNL     1      -0.772   2.009  -1.506  0.00  0.00    +0.042 C 
BRANCH  17  19
ATOM     19  N   UNL     1      -0.846   1.990   0.938  0.00  0.00    -0.255 N 
ATOM     20  C   UNL     1      -1.495   1.265   1.874  0.00  0.00    +0.051 A 
ATOM     21  C   UNL     1      -2.010   2.128   2.781  0.00  0.00    +0.070 A 
ATOM     22  C   UNL     1      -1.672   3.426   2.380  0.00  0.00    +0.179 A 
ATOM     23  N   UNL     1      -0.974   3.344   1.276  0.00  0.00    -0.165 NA
ATOM     24 BR   UNL     1      -3.016   1.664   4.313  0.00  0.00    -0.046 Br
ATOM     25  C   UNL     1      -1.620  -0.236   1.906  0.00  0.00    +0.066 C 
BRANCH  22  26
ATOM     26  C   UNL     1      -2.046   4.698   3.096  0.00  0.00    +0.437 C 
ATOM     27  F   UNL     1      -1.630   5.798   2.340  0.00  0.00    -0.164 F 
ATOM     28  F   UNL     1      -3.434   4.746   3.267  0.00  0.00    -0.164 F 
ATOM     29  F   UNL     1      -1.421   4.729   4.348  0.00  0.00    -0.164 F 
ENDBRANCH  22  26
ENDBRANCH  17  19
ENDBRANCH   2  17
TORSDOF 6
