REMARK  Name = ZINC13988394
REMARK  10 active torsions:
REMARK  status: ('A' for Active; 'I' for Inactive)
REMARK    1  A    between atoms: C_1  and  C_2
REMARK    2  A    between atoms: C_2  and  C_3
REMARK    3  A    between atoms: C_2  and  C_4
REMARK    4  A    between atoms: C_2  and  C_5
REMARK    5  A    between atoms: N_7  and  C_8
REMARK    6  A    between atoms: C_8  and  N_10
REMARK    7  A    between atoms: N_10  and  N_11
REMARK    8  A    between atoms: C_12  and  C_14
REMARK    9  A    between atoms: C_14  and  O_15
REMARK   10  A    between atoms: O_15  and  C_16
REMARK                            x       y       z     vdW  Elec       q    Type
REMARK                         _______ _______ _______ _____ _____    ______ ____
ROOT
ATOM      1  N   UNL     1       3.909  -2.193  -0.049  0.00  0.00    -0.232 N 
ATOM      2  C   UNL     1       3.713  -0.860  -0.040  0.00  0.00    +0.267 C 
ATOM      3  O   UNL     1       4.664  -0.107  -0.044  0.00  0.00    -0.271 OA
ATOM      4  H   UNL     1       3.148  -2.795  -0.045  0.00  0.00    +0.173 HD
ENDROOT
BRANCH   1   5
ATOM      5  N   UNL     1       5.211  -2.709  -0.065  0.00  0.00    -0.245 N 
ATOM      6  H   UNL     1       5.972  -2.107  -0.069  0.00  0.00    +0.172 HD
BRANCH   5   7
ATOM      7  C   UNL     1       5.407  -4.043  -0.074  0.00  0.00    +0.153 C 
ATOM      8  S   UNL     1       6.999  -4.674  -0.093  0.00  0.00    -0.017 S 
BRANCH   7  11
ATOM      9  C   UNL     1       4.547  -6.213  -0.078  0.00  0.00    +0.224 C 
ATOM     10  O   UNL     1       5.674  -6.660  -0.092  0.00  0.00    -0.275 OA
ATOM     11  N   UNL     1       4.351  -4.880  -0.069  0.00  0.00    -0.266 N 
ATOM     12  H   UNL     1       3.449  -4.522  -0.058  0.00  0.00    +0.157 HD
BRANCH   9  14
ATOM     13  C   UNL     1       3.861  -8.596  -0.085  0.00  0.00    +0.020 C 
ATOM     14  C   UNL     1       3.365  -7.148  -0.072  0.00  0.00    +0.039 C 
ATOM     15  C   UNL     1       2.530  -6.907   1.187  0.00  0.00    +0.020 C 
ATOM     16  C   UNL     1       2.506  -6.892  -1.312  0.00  0.00    +0.020 C 
ENDBRANCH   9  14
ENDBRANCH   7  11
ENDBRANCH   5   7
ENDBRANCH   1   5
BRANCH   2  17
ATOM     17  C   UNL     1       2.312  -0.304  -0.023  0.00  0.00    +0.326 C 
BRANCH  17  18
ATOM     18  O   UNL     1       2.366   1.124  -0.015  0.00  0.00    -0.482 OA
BRANCH  18  19
ATOM     19  C   UNL     1       1.179   1.786   0.000  0.00  0.00    +0.135 A 
ATOM     20  C   UNL     1      -0.013   1.076   0.008  0.00  0.00    +0.048 A 
ATOM     21  C   UNL     1      -1.218   1.751   0.017  0.00  0.00    +0.023 A 
ATOM     22  C   UNL     1      -1.238   3.134   0.031  0.00  0.00    +0.042 A 
ATOM     23  C   UNL     1      -0.051   3.845   0.023  0.00  0.00    +0.039 A 
ATOM     24  C   UNL     1       1.157   3.174   0.008  0.00  0.00    +0.061 A 
ATOM     25 BR   UNL     1       2.780   4.145  -0.003  0.00  0.00    -0.046 Br
ATOM     26 CL   UNL     1      -2.754   3.979   0.050  0.00  0.00    -0.084 Cl
ENDBRANCH  18  19
ENDBRANCH  17  18
ENDBRANCH   2  17
TORSDOF 7
