REMARK  Name = ZINC00426244
REMARK  4 active torsions:
REMARK  status: ('A' for Active; 'I' for Inactive)
REMARK    1  A    between atoms: C_1  and  C_2
REMARK    2  A    between atoms: C_5  and  C_7
REMARK    3  A    between atoms: C_13  and  N_19
REMARK    4  A    between atoms: C_14  and  C_16
REMARK                            x       y       z     vdW  Elec       q    Type
REMARK                         _______ _______ _______ _____ _____    ______ ____
ROOT
ATOM      1  C   UNL     1       1.325  -3.507   0.179  0.00  0.00    +0.034 A 
ATOM      2  C   UNL     1       2.099  -3.811   1.304  0.00  0.00    -0.015 A 
ATOM      3  C   UNL     1       2.984  -4.865   1.263  0.00  0.00    +0.046 A 
ATOM      4  N   UNL     1       3.109  -5.588   0.156  0.00  0.00    -0.244 NA
ATOM      5  C   UNL     1       2.409  -5.348  -0.928  0.00  0.00    +0.112 A 
ATOM      6  C   UNL     1       1.463  -4.301  -0.999  0.00  0.00    +0.040 A 
ATOM      7  C   UNL     1       0.767  -4.180  -2.266  0.00  0.00    +0.054 A 
ATOM      8  C   UNL     1       1.077  -5.073  -3.271  0.00  0.00    +0.097 A 
ATOM      9  S   UNL     1       2.332  -6.101  -2.534  0.00  0.00    -0.062 S 
ATOM     10  C   UNL     1       3.834  -5.255   2.446  0.00  0.00    +0.056 C 
ATOM     11  C   UNL     1       3.907  -4.112   3.456  0.00  0.00    +0.006 C 
ATOM     12  C   UNL     1       2.478  -3.648   3.764  0.00  0.00    +0.005 C 
ATOM     13  C   UNL     1       1.923  -2.947   2.526  0.00  0.00    +0.038 C 
ENDROOT
BRANCH   1  18
ATOM     14  C   UNL     1      -2.985  -0.944   0.229  0.00  0.00    +0.086 C 
ATOM     15  C   UNL     1      -1.511  -1.256   0.234  0.00  0.00    +0.103 A 
ATOM     16  C   UNL     1      -0.515  -0.347   0.281  0.00  0.00    +0.045 A 
ATOM     17  C   UNL     1       0.697  -1.062   0.267  0.00  0.00    +0.050 A 
ATOM     18  C   UNL     1       0.373  -2.383   0.212  0.00  0.00    +0.136 A 
ATOM     19  O   UNL     1      -0.971  -2.484   0.197  0.00  0.00    -0.460 OA
ENDBRANCH   1  18
BRANCH   8  20
ATOM     20  C   UNL     1       0.534  -5.149  -4.577  0.00  0.00    +0.250 C 
ATOM     21  O   UNL     1      -0.321  -4.356  -4.928  0.00  0.00    -0.270 OA
ATOM     22  N   UNL     1       0.964  -6.098  -5.431  0.00  0.00    -0.325 N 
ATOM     23  H   UNL     1       1.645  -6.730  -5.152  0.00  0.00    +0.145 HD
ATOM     24  H   UNL     1       0.592  -6.150  -6.326  0.00  0.00    +0.145 HD
ENDBRANCH   8  20
BRANCH   7  25
ATOM     25  N   UNL     1      -0.187  -3.191  -2.462  0.00  0.00    -0.356 N 
ATOM     26  H   UNL     1      -0.238  -2.438  -1.852  0.00  0.00    +0.142 HD
ATOM     27  H   UNL     1      -0.803  -3.252  -3.209  0.00  0.00    +0.142 HD
ENDBRANCH   7  25
TORSDOF 3
