REMARK  Name = ZINC55161419
REMARK  5 active torsions:
REMARK  status: ('A' for Active; 'I' for Inactive)
REMARK    1  A    between atoms: C_3  and  C_21
REMARK    2  A    between atoms: C_6  and  C_9
REMARK    3  A    between atoms: C_14  and  C_17
REMARK    4  A    between atoms: C_17  and  C_18
REMARK    5  A    between atoms: C_21  and  N_22
REMARK                            x       y       z     vdW  Elec       q    Type
REMARK                         _______ _______ _______ _____ _____    ______ ____
ROOT
ATOM      1  C   UNL     1       0.739  -2.004  -1.265  0.00  0.00    +0.219 C 
ATOM      2  O   UNL     1       1.793  -2.596  -1.364  0.00  0.00    -0.275 OA
ATOM      3  N   UNL     1      -0.414  -2.695  -1.156  0.00  0.00    -0.301 N 
ATOM      4  C   UNL     1      -1.706  -1.996  -1.145  0.00  0.00    +0.108 C 
ATOM      5  C   UNL     1      -2.490  -2.429   0.099  0.00  0.00    +0.023 C 
ATOM      6  C   UNL     1      -2.600  -3.955   0.122  0.00  0.00    +0.001 C 
ATOM      7  C   UNL     1      -1.199  -4.568   0.195  0.00  0.00    +0.023 C 
ATOM      8  C   UNL     1      -0.402  -4.160  -1.053  0.00  0.00    +0.108 C 
ENDROOT
BRANCH   1  13
ATOM      9  C   UNL     1       0.690   1.541   0.180  0.00  0.00    +0.001 C 
ATOM     10  C   UNL     1       1.931   2.069  -0.541  0.00  0.00    +0.002 C 
ATOM     11  C   UNL     1       1.938   1.560  -1.984  0.00  0.00    -0.028 C 
ATOM     12  C   UNL     1       1.959   0.030  -1.985  0.00  0.00    +0.014 C 
ATOM     13  C   UNL     1       0.718  -0.497  -1.264  0.00  0.00    +0.075 C 
ATOM     14  C   UNL     1       0.711   0.011   0.179  0.00  0.00    +0.013 C 
BRANCH  11  15
ATOM     15  C   UNL     1       3.179   2.088  -2.706  0.00  0.00    -0.083 C 
BRANCH  15  16
ATOM     16  N   UNL     1       3.100   3.551  -2.810  0.00  0.00    +0.378 N 
ATOM     17  H   UNL     1       2.274   3.807  -3.331  0.00  0.00    -0.090 HD
ATOM     18  H   UNL     1       3.052   3.953  -1.885  0.00  0.00    -0.090 HD
ATOM     19  H   UNL     1       3.919   3.900  -3.286  0.00  0.00    -0.090 HD
ENDBRANCH  15  16
ENDBRANCH  11  15
ENDBRANCH   1  13
BRANCH   6  20
ATOM     20  C   UNL     1      -3.411  -4.390   1.344  0.00  0.00    +0.099 C 
BRANCH  20  21
ATOM     21  C   UNL     1      -3.624  -5.881   1.301  0.00  0.00    +0.211 C 
ATOM     22  O   UNL     1      -3.172  -6.532   0.384  0.00  0.00    -0.276 OA
ATOM     23  N   UNL     1      -4.318  -6.491   2.283  0.00  0.00    -0.329 N 
ATOM     24  H   UNL     1      -4.680  -5.970   3.017  0.00  0.00    +0.145 HD
ATOM     25  H   UNL     1      -4.455  -7.451   2.255  0.00  0.00    +0.145 HD
ENDBRANCH  20  21
ENDBRANCH   6  20
TORSDOF 5
