REMARK  Name = ZINC39694348
REMARK  8 active torsions:
REMARK  status: ('A' for Active; 'I' for Inactive)
REMARK    1  A    between atoms: C_1  and  C_2
REMARK    2  A    between atoms: C_2  and  C_3
REMARK    3  A    between atoms: C_3  and  C_5
REMARK    4  A    between atoms: C_3  and  C_11
REMARK    5  A    between atoms: C_15  and  C_24
REMARK    6  A    between atoms: N_26  and  C_27
REMARK    7  A    between atoms: C_27  and  C_28
REMARK    8  A    between atoms: C_33  and  N_34
REMARK                            x       y       z     vdW  Elec       q    Type
REMARK                         _______ _______ _______ _____ _____    ______ ____
ROOT
ATOM      1  C   UNL     1       0.984  -1.853  -2.207  0.00  0.00    +0.223 C 
ATOM      2  O   UNL     1       1.889  -2.651  -2.323  0.00  0.00    -0.275 OA
ATOM      3  N   UNL     1      -0.289  -2.286  -2.115  0.00  0.00    -0.300 N 
ATOM      4  C   UNL     1      -1.509  -1.479  -1.877  0.00  0.00    +0.121 C 
ATOM      5  C   UNL     1      -2.581  -2.111  -2.792  0.00  0.00    +0.100 C 
ATOM      6  C   UNL     1      -2.102  -3.555  -3.017  0.00  0.00    -0.004 C 
ATOM      7  C   UNL     1      -0.786  -3.678  -2.234  0.00  0.00    +0.115 C 
ATOM      8  C   UNL     1      -3.132  -4.544  -2.480  0.00  0.00    -0.010 C 
ATOM      9  C   UNL     1      -2.660  -5.972  -2.767  0.00  0.00    -0.082 C 
ATOM     10  N   UNL     1      -2.490  -6.151  -4.214  0.00  0.00    +0.379 N 
ATOM     11  C   UNL     1      -1.431  -5.261  -4.707  0.00  0.00    -0.082 C 
ATOM     12  C   UNL     1      -1.851  -3.803  -4.502  0.00  0.00    -0.010 C 
ATOM     13  H   UNL     1      -2.238  -7.109  -4.406  0.00  0.00    -0.086 HD
ATOM     14  H   UNL     1      -3.356  -5.933  -4.683  0.00  0.00    -0.086 HD
ENDROOT
BRANCH   5  15
ATOM     15  C   UNL     1      -2.656  -1.371  -4.102  0.00  0.00    +0.218 C 
ATOM     16  O   UNL     1      -1.675  -0.803  -4.535  0.00  0.00    -0.275 OA
ATOM     17  N   UNL     1      -3.813  -1.339  -4.793  0.00  0.00    -0.311 N 
ATOM     18  H   UNL     1      -4.616  -1.725  -4.411  0.00  0.00    +0.149 HD
BRANCH  17  19
ATOM     19  C   UNL     1      -3.857  -0.720  -6.120  0.00  0.00    +0.141 C 
BRANCH  19  20
ATOM     20  C   UNL     1      -5.277  -0.711  -6.623  0.00  0.00    -0.009 A 
ATOM     21  C   UNL     1      -5.702  -1.681  -7.510  0.00  0.00    +0.007 A 
ATOM     22  C   UNL     1      -7.005  -1.674  -7.972  0.00  0.00    +0.000 A 
ATOM     23  C   UNL     1      -7.887  -0.695  -7.550  0.00  0.00    +0.002 A 
ATOM     24  C   UNL     1      -7.468   0.278  -6.664  0.00  0.00    +0.023 A 
ATOM     25  C   UNL     1      -6.161   0.270  -6.193  0.00  0.00    +0.035 A 
BRANCH  25  26
ATOM     26  N   UNL     1      -5.736   1.249  -5.292  0.00  0.00    -0.325 N 
ATOM     27  C   UNL     1      -5.134   2.505  -5.767  0.00  0.00    +0.133 C 
ATOM     28  C   UNL     1      -5.853   3.674  -5.084  0.00  0.00    +0.178 C 
ATOM     29  O   UNL     1      -5.853   3.465  -3.670  0.00  0.00    -0.377 OA
ATOM     30  C   UNL     1      -6.559   2.295  -3.251  0.00  0.00    +0.178 C 
ATOM     31  C   UNL     1      -5.881   1.058  -3.840  0.00  0.00    +0.133 C 
ENDBRANCH  25  26
ENDBRANCH  19  20
ENDBRANCH  17  19
ENDBRANCH   5  15
BRANCH   1  32
ATOM     32  C   UNL     1       1.282  -0.376  -2.166  0.00  0.00    +0.105 C 
BRANCH  32  33
ATOM     33  C   UNL     1       2.580  -0.106  -2.882  0.00  0.00    -0.036 A 
ATOM     34  C   UNL     1       3.748  -0.699  -2.442  0.00  0.00    +0.004 A 
ATOM     35  C   UNL     1       4.939  -0.451  -3.098  0.00  0.00    +0.000 A 
ATOM     36  C   UNL     1       4.962   0.390  -4.195  0.00  0.00    +0.000 A 
ATOM     37  C   UNL     1       3.793   0.983  -4.636  0.00  0.00    +0.000 A 
ATOM     38  C   UNL     1       2.602   0.731  -3.982  0.00  0.00    +0.004 A 
ENDBRANCH  32  33
BRANCH  32  40
ATOM     39  C   UNL     1       1.587   1.598  -0.666  0.00  0.00    +0.005 C 
ATOM     40  C   UNL     1       1.397   0.081  -0.711  0.00  0.00    +0.014 C 
ENDBRANCH  32  40
ENDBRANCH   1  32
TORSDOF 7
