REMARK  Name = ZINC40159528
REMARK  7 active torsions:
REMARK  status: ('A' for Active; 'I' for Inactive)
REMARK    1  A    between atoms: C_1  and  C_2
REMARK    2  A    between atoms: C_2  and  C_3
REMARK    3  A    between atoms: C_2  and  C_4
REMARK    4  A    between atoms: C_4  and  C_6
REMARK    5  A    between atoms: C_4  and  N_24
REMARK    6  A    between atoms: N_11  and  C_14
REMARK    7  A    between atoms: C_18  and  C_20
REMARK                            x       y       z     vdW  Elec       q    Type
REMARK                         _______ _______ _______ _____ _____    ______ ____
ROOT
ATOM      1  C   UNL     1      -2.229  -0.014  -1.073  0.00  0.00    +0.236 C 
ATOM      2  O   UNL     1      -2.825  -0.802  -1.776  0.00  0.00    -0.274 OA
ATOM      3  N   UNL     1      -2.284   1.306  -1.344  0.00  0.00    -0.297 N 
ATOM      4  C   UNL     1      -1.663   2.281  -0.437  0.00  0.00    +0.126 C 
ATOM      5  C   UNL     1      -0.681   3.141  -1.242  0.00  0.00    +0.124 C 
ATOM      6  N   UNL     1      -1.363   3.630  -2.449  0.00  0.00    -0.327 N 
ATOM      7  C   UNL     1      -1.985   2.654  -3.355  0.00  0.00    +0.124 C 
ATOM      8  C   UNL     1      -2.962   1.794  -2.553  0.00  0.00    +0.126 C 
ENDROOT
BRANCH   6   9
ATOM      9  C   UNL     1      -1.421   4.997  -2.729  0.00  0.00    +0.030 A 
ATOM     10  C   UNL     1      -0.700   5.897  -1.954  0.00  0.00    +0.023 A 
ATOM     11  C   UNL     1      -0.759   7.248  -2.234  0.00  0.00    +0.002 A 
ATOM     12  C   UNL     1      -1.534   7.705  -3.284  0.00  0.00    +0.012 A 
ATOM     13  C   UNL     1      -2.253   6.812  -4.056  0.00  0.00    +0.057 A 
ATOM     14  C   UNL     1      -2.194   5.459  -3.786  0.00  0.00    +0.035 A 
BRANCH  13  15
ATOM     15  C   UNL     1      -3.098   7.315  -5.199  0.00  0.00    +0.417 C 
ATOM     16  F   UNL     1      -2.993   8.708  -5.278  0.00  0.00    -0.166 F 
ATOM     17  F   UNL     1      -2.650   6.745  -6.396  0.00  0.00    -0.166 F 
ATOM     18  F   UNL     1      -4.433   6.959  -4.984  0.00  0.00    -0.166 F 
ENDBRANCH  13  15
ENDBRANCH   6   9
BRANCH   1  19
ATOM     19  C   UNL     1      -1.427  -0.509   0.102  0.00  0.00    +0.163 C 
BRANCH  19  20
ATOM     20  N   UNL     1      -2.081  -1.686   0.679  0.00  0.00    -0.288 N 
ATOM     21  C   UNL     1      -1.878  -2.004   1.973  0.00  0.00    +0.298 C 
ATOM     22  O   UNL     1      -1.151  -1.313   2.661  0.00  0.00    -0.253 OA
ATOM     23  N   UNL     1      -2.479  -3.087   2.503  0.00  0.00    -0.313 N 
ATOM     24  H   UNL     1      -2.660  -2.237   0.129  0.00  0.00    +0.151 HD
ATOM     25  H   UNL     1      -3.059  -3.637   1.954  0.00  0.00    +0.146 HD
ATOM     26  H   UNL     1      -2.333  -3.315   3.434  0.00  0.00    +0.146 HD
ENDBRANCH  19  20
BRANCH  19  28
ATOM     27  C   UNL     1       0.681   0.355  -0.925  0.00  0.00    +0.009 C 
ATOM     28  C   UNL     1      -0.018  -0.885  -0.364  0.00  0.00    +0.012 C 
ATOM     29  C   UNL     1       0.782  -1.429   0.821  0.00  0.00    +0.009 C 
ENDBRANCH  19  28
ENDBRANCH   1  19
TORSDOF 5
