REMARK  Name = ZINC63571473
REMARK  5 active torsions:
REMARK  status: ('A' for Active; 'I' for Inactive)
REMARK    1  A    between atoms: C_1  and  C_2
REMARK    2  A    between atoms: C_5  and  C_8
REMARK    3  A    between atoms: N_25  and  C_26
REMARK    4  A    between atoms: C_31  and  O_32
REMARK    5  A    between atoms: O_32  and  C_33
REMARK                            x       y       z     vdW  Elec       q    Type
REMARK                         _______ _______ _______ _____ _____    ______ ____
ROOT
ATOM      1  C   UNL     1      -0.626  -4.515  -0.361  0.00  0.00    +0.134 C 
ATOM      2  C   UNL     1       0.888  -4.735  -0.453  0.00  0.00    +0.131 C 
ATOM      3  C   UNL     1       1.152  -6.152   0.040  0.00  0.00    -0.035 C 
ATOM      4  C   UNL     1       1.801  -6.774  -0.937  0.00  0.00    -0.001 A 
ATOM      5  C   UNL     1       2.379  -8.125  -1.024  0.00  0.00    +0.010 A 
ATOM      6  C   UNL     1       2.977  -8.447  -2.201  0.00  0.00    +0.001 A 
ATOM      7  C   UNL     1       3.057  -7.571  -3.288  0.00  0.00    +0.002 A 
ATOM      8  C   UNL     1       2.557  -6.309  -3.295  0.00  0.00    +0.026 A 
ATOM      9  C   UNL     1       1.908  -5.854  -2.110  0.00  0.00    +0.043 A 
ATOM     10  N   UNL     1       1.363  -4.682  -1.837  0.00  0.00    -0.375 N 
ATOM     11  C   UNL     1       0.647  -6.654   1.371  0.00  0.00    +0.052 C 
ATOM     12  C   UNL     1      -0.854  -6.319   1.430  0.00  0.00    +0.114 C 
ATOM     13  N   UNL     1      -1.064  -4.940   0.978  0.00  0.00    -0.276 N 
ATOM     14  C   UNL     1      -1.662  -4.052   1.797  0.00  0.00    +0.307 C 
ATOM     15  O   UNL     1      -1.970  -2.952   1.381  0.00  0.00    -0.252 OA
ATOM     16  N   UNL     1      -1.919  -4.385   3.078  0.00  0.00    -0.266 N 
ATOM     17  H   UNL     1      -1.614  -5.236   3.429  0.00  0.00    +0.156 HD
ATOM     18  H   UNL     1       1.281  -3.924  -2.436  0.00  0.00    +0.160 HD
ENDROOT
BRANCH   1  23
ATOM     19  C   UNL     1      -1.839   1.083  -1.127  0.00  0.00    +0.044 C 
ATOM     20  C   UNL     1      -1.522  -0.377  -0.927  0.00  0.00    -0.050 A 
ATOM     21  C   UNL     1      -2.282  -1.342  -1.562  0.00  0.00    +0.004 A 
ATOM     22  C   UNL     1      -1.992  -2.681  -1.379  0.00  0.00    +0.006 A 
ATOM     23  C   UNL     1      -0.942  -3.055  -0.561  0.00  0.00    -0.025 A 
ATOM     24  C   UNL     1      -0.181  -2.090   0.073  0.00  0.00    +0.006 A 
ATOM     25  C   UNL     1      -0.469  -0.751  -0.114  0.00  0.00    +0.004 A 
ENDBRANCH   1  23
BRANCH  16  26
ATOM     26  C   UNL     1      -2.627  -3.500   3.903  0.00  0.00    +0.078 A 
ATOM     27  C   UNL     1      -2.612  -2.139   3.637  0.00  0.00    +0.047 A 
ATOM     28  C   UNL     1      -3.312  -1.268   4.452  0.00  0.00    +0.043 A 
ATOM     29  C   UNL     1      -4.027  -1.752   5.533  0.00  0.00    +0.024 A 
ATOM     30  C   UNL     1      -4.046  -3.107   5.803  0.00  0.00    +0.049 A 
ATOM     31  C   UNL     1      -3.352  -3.986   4.988  0.00  0.00    +0.141 A 
ATOM     32 CL   UNL     1      -3.292   0.436   4.119  0.00  0.00    -0.083 Cl
BRANCH  31  33
ATOM     33  O   UNL     1      -3.374  -5.321   5.250  0.00  0.00    -0.493 OA
ATOM     34  C   UNL     1      -4.138  -5.747   6.380  0.00  0.00    +0.277 C 
ENDBRANCH  31  33
ENDBRANCH  16  26
TORSDOF 3
