REMARK  Name = ZINC62723567
REMARK  2 active torsions:
REMARK  status: ('A' for Active; 'I' for Inactive)
REMARK    1  A    between atoms: C_5  and  N_8
REMARK    2  A    between atoms: N_11  and  C_13
REMARK                            x       y       z     vdW  Elec       q    Type
REMARK                         _______ _______ _______ _____ _____    ______ ____
ROOT
ATOM      1  C   UNL     1      -0.017   1.380   0.010  0.00  0.00    +0.027 A 
ATOM      2  C   UNL     1       1.165   2.086   0.002  0.00  0.00    -0.017 A 
ATOM      3  C   UNL     1       2.390   1.414  -0.013  0.00  0.00    +0.043 A 
ATOM      4  C   UNL     1       2.409   0.018  -0.021  0.00  0.00    +0.037 A 
ATOM      5  C   UNL     1       1.215  -0.685  -0.013  0.00  0.00    +0.044 A 
ATOM      6  C   UNL     1       0.002  -0.004   0.002  0.00  0.00    +0.062 A 
ATOM      7 CL   UNL     1      -1.490  -0.891   0.012  0.00  0.00    -0.082 Cl
ATOM      8  C   UNL     1       3.469   2.421  -0.018  0.00  0.00    +0.248 C 
ATOM      9  O   UNL     1       4.657   2.165  -0.031  0.00  0.00    -0.270 OA
ATOM     10  N   UNL     1       2.950   3.660  -0.006  0.00  0.00    -0.290 N 
ATOM     11  C   UNL     1       1.486   3.559   0.007  0.00  0.00    +0.144 C 
ENDROOT
BRANCH  10  12
ATOM     12  C   UNL     1       3.719   4.907  -0.007  0.00  0.00    +0.077 C 
ATOM     13  C   UNL     1       4.589   4.970  -1.264  0.00  0.00    +0.022 C 
ATOM     14  C   UNL     1       5.392   6.272  -1.264  0.00  0.00    +0.002 C 
ATOM     15  C   UNL     1       6.286   6.320  -0.023  0.00  0.00    +0.000 C 
ATOM     16  C   UNL     1       5.416   6.258   1.234  0.00  0.00    +0.002 C 
ATOM     17  C   UNL     1       4.613   4.956   1.234  0.00  0.00    +0.022 C 
ENDBRANCH  10  12
BRANCH   5  18
ATOM     18  N   UNL     1       1.230  -2.083  -0.021  0.00  0.00    -0.357 N 
ATOM     19  H   UNL     1       2.075  -2.559  -0.032  0.00  0.00    +0.142 HD
ATOM     20  H   UNL     1       0.395  -2.577  -0.016  0.00  0.00    +0.142 HD
ENDBRANCH   5  18
TORSDOF 2
