REMARK  Name = ZINC31679469
REMARK  7 active torsions:
REMARK  status: ('A' for Active; 'I' for Inactive)
REMARK    1  A    between atoms: C_1  and  C_2
REMARK    2  A    between atoms: C_2  and  C_4
REMARK    3  A    between atoms: C_2  and  O_22
REMARK    4  A    between atoms: N_6  and  C_7
REMARK    5  A    between atoms: C_11  and  S_13
REMARK    6  A    between atoms: S_13  and  N_16
REMARK    7  A    between atoms: O_22  and  C_23
REMARK                            x       y       z     vdW  Elec       q    Type
REMARK                         _______ _______ _______ _____ _____    ______ ____
ROOT
ATOM      1  C   UNL     1       4.098   0.815  -3.001  0.00  0.00    +0.035 A 
ATOM      2  C   UNL     1       4.075   1.645  -4.114  0.00  0.00    +0.023 A 
ATOM      3  C   UNL     1       3.376   2.835  -4.072  0.00  0.00    +0.004 A 
ATOM      4  C   UNL     1       2.698   3.200  -2.923  0.00  0.00    +0.029 A 
ATOM      5  C   UNL     1       2.719   2.377  -1.813  0.00  0.00    +0.110 A 
ATOM      6  C   UNL     1       3.421   1.187  -1.847  0.00  0.00    +0.052 A 
ENDROOT
BRANCH   1   9
ATOM      7  C   UNL     1       4.847  -1.113  -4.177  0.00  0.00    +0.258 C 
ATOM      8  O   UNL     1       4.342  -0.676  -5.190  0.00  0.00    -0.271 OA
ATOM      9  N   UNL     1       4.806  -0.391  -3.039  0.00  0.00    -0.282 N 
ATOM     10  H   UNL     1       5.330  -0.751  -2.141  0.00  0.00    +0.155 HD
BRANCH   7  12
ATOM     11  C   UNL     1       6.990  -2.302  -3.801  0.00  0.00    +0.062 C 
ATOM     12  C   UNL     1       5.519  -2.461  -4.191  0.00  0.00    +0.256 C 
BRANCH  12  13
ATOM     13  O   UNL     1       5.431  -3.024  -5.501  0.00  0.00    -0.479 OA
BRANCH  13  14
ATOM     14  C   UNL     1       5.486  -4.379  -5.596  0.00  0.00    +0.136 A 
ATOM     15  C   UNL     1       5.730  -5.145  -4.466  0.00  0.00    +0.049 A 
ATOM     16  C   UNL     1       5.779  -6.522  -4.562  0.00  0.00    +0.042 A 
ATOM     17  C   UNL     1       5.595  -7.138  -5.789  0.00  0.00    +0.125 A 
ATOM     18  C   UNL     1       5.357  -6.375  -6.919  0.00  0.00    +0.057 A 
ATOM     19  C   UNL     1       5.302  -4.997  -6.825  0.00  0.00    +0.062 A 
ATOM     20 BR   UNL     1       4.975  -3.955  -8.369  0.00  0.00    -0.046 Br
ATOM     21  F   UNL     1       5.649  -8.485  -5.883  0.00  0.00    -0.205 F 
ENDBRANCH  13  14
ENDBRANCH  12  13
ENDBRANCH   7  12
ENDBRANCH   1   9
BRANCH   5  22
ATOM     22  S   UNL     1       1.856   2.848  -0.351  0.00  0.00    +0.073 S 
ATOM     23  O   UNL     1       1.734   4.263  -0.390  0.00  0.00    -0.150 OA
ATOM     24  O   UNL     1       2.481   2.166   0.728  0.00  0.00    -0.150 OA
BRANCH  22  25
ATOM     25  N   UNL     1       0.321   2.237  -0.471  0.00  0.00    -0.205 N 
ATOM     26  C   UNL     1       0.122   0.882  -0.485  0.00  0.00    +0.088 C 
ATOM     27  N   UNL     1       1.063   0.006  -0.409  0.00  0.00    -0.375 N 
ATOM     28  C   UNL     1       0.549  -1.368  -0.445  0.00  0.00    +0.114 C 
ATOM     29  C   UNL     1      -0.897  -1.245  -0.979  0.00  0.00    +0.028 C 
ATOM     30  C   UNL     1      -1.232   0.215  -0.584  0.00  0.00    +0.072 C 
ATOM     31  H   UNL     1      -0.539   2.920  -0.539  0.00  0.00    +0.175 HD
ATOM     32  H   UNL     1       2.111   0.331  -0.329  0.00  0.00    +0.161 HD
ENDBRANCH  22  25
ENDBRANCH   5  22
TORSDOF 6
