REMARK  Name = ZINC19936590
REMARK  8 active torsions:
REMARK  status: ('A' for Active; 'I' for Inactive)
REMARK    1  A    between atoms: C_4  and  C_7
REMARK    2  A    between atoms: C_7  and  C_8
REMARK    3  A    between atoms: C_7  and  N_14
REMARK    4  A    between atoms: N_17  and  C_20
REMARK    5  A    between atoms: C_20  and  C_22
REMARK    6  A    between atoms: C_20  and  C_25
REMARK    7  A    between atoms: C_22  and  C_23
REMARK    8  A    between atoms: C_23  and  N_24
REMARK                            x       y       z     vdW  Elec       q    Type
REMARK                         _______ _______ _______ _____ _____    ______ ____
ROOT
ATOM      1  N   UNL     1       4.011   2.230   2.665  0.00  0.00    +0.389 N 
ATOM      2  C   UNL     1       3.143   2.516   3.816  0.00  0.00    -0.062 C 
ATOM      3  C   UNL     1       1.755   1.921   3.565  0.00  0.00    +0.066 C 
ATOM      4  N   UNL     1       1.196   2.494   2.332  0.00  0.00    -0.299 NA
ATOM      5  C   UNL     1       2.063   2.208   1.181  0.00  0.00    +0.066 C 
ATOM      6  C   UNL     1       3.451   2.802   1.432  0.00  0.00    -0.062 C 
ATOM      7  H   UNL     1       4.061   1.138   2.540  0.00  0.00    -0.080 HD
ENDROOT
BRANCH   1   8
ATOM      8  C   UNL     1       5.376   2.719   2.900  0.00  0.00    -0.007 C 
BRANCH   8  12
ATOM      9  C   UNL     1       6.922   0.961   6.473  0.00  0.00    +0.000 A 
ATOM     10  C   UNL     1       7.050   2.321   6.260  0.00  0.00    +0.000 A 
ATOM     11  C   UNL     1       6.550   2.890   5.104  0.00  0.00    +0.002 A 
ATOM     12  C   UNL     1       5.921   2.099   4.160  0.00  0.00    -0.057 A 
ATOM     13  C   UNL     1       5.789   0.740   4.375  0.00  0.00    +0.002 A 
ATOM     14  C   UNL     1       6.293   0.170   5.529  0.00  0.00    +0.000 A 
ENDBRANCH   8  12
BRANCH   8  15
ATOM     15  C   UNL     1       6.253   2.342   1.734  0.00  0.00    -0.057 A 
ATOM     16  C   UNL     1       6.166   1.077   1.185  0.00  0.00    +0.002 A 
ATOM     17  C   UNL     1       6.967   0.733   0.112  0.00  0.00    +0.000 A 
ATOM     18  C   UNL     1       7.862   1.651  -0.405  0.00  0.00    +0.000 A 
ATOM     19  C   UNL     1       7.952   2.915   0.148  0.00  0.00    +0.000 A 
ATOM     20  C   UNL     1       7.148   3.260   1.217  0.00  0.00    +0.002 A 
ENDBRANCH   8  15
ENDBRANCH   1   8
BRANCH   4  21
ATOM     21  C   UNL     1      -0.169   2.004   2.097  0.00  0.00    +0.088 C 
BRANCH  21  22
ATOM     22  C   UNL     1      -1.047   2.384   3.261  0.00  0.00    +0.006 A 
ATOM     23  C   UNL     1      -0.981   3.660   3.791  0.00  0.00    +0.047 A 
ATOM     24  C   UNL     1      -1.790   4.009   4.857  0.00  0.00    +0.020 A 
ATOM     25  C   UNL     1      -2.657   3.080   5.400  0.00  0.00    +0.003 A 
ATOM     26  C   UNL     1      -2.720   1.803   4.875  0.00  0.00    +0.020 A 
ATOM     27  C   UNL     1      -1.915   1.454   3.805  0.00  0.00    +0.047 A 
ATOM     28 CL   UNL     1      -1.994  -0.150   3.146  0.00  0.00    -0.083 Cl
ATOM     29 CL   UNL     1       0.114   4.825   3.114  0.00  0.00    -0.083 Cl
ENDBRANCH  21  22
BRANCH  21  30
ATOM     30  C   UNL     1      -0.722   2.632   0.816  0.00  0.00    +0.004 C 
BRANCH  30  31
ATOM     31  C   UNL     1      -2.112   2.062   0.527  0.00  0.00    -0.085 C 
BRANCH  31  32
ATOM     32  N   UNL     1      -2.674   2.719  -0.661  0.00  0.00    +0.378 N 
ATOM     33  H   UNL     1      -3.674   2.309  -0.868  0.00  0.00    -0.090 HD
ATOM     34  H   UNL     1      -2.017   2.538  -1.525  0.00  0.00    -0.090 HD
ATOM     35  H   UNL     1      -2.752   3.801  -0.480  0.00  0.00    -0.090 HD
ENDBRANCH  31  32
ENDBRANCH  30  31
ENDBRANCH  21  30
ENDBRANCH   4  21
TORSDOF 8
