REMARK  Name = ZINC11849336
REMARK  6 active torsions:
REMARK  status: ('A' for Active; 'I' for Inactive)
REMARK    1  A    between atoms: C_3  and  S_9
REMARK    2  A    between atoms: C_6  and  C_7
REMARK    3  A    between atoms: C_7  and  C_8
REMARK    4  A    between atoms: C_8  and  N_38
REMARK    5  A    between atoms: S_9  and  N_12
REMARK    6  A    between atoms: N_12  and  C_13
REMARK                            x       y       z     vdW  Elec       q    Type
REMARK                         _______ _______ _______ _____ _____    ______ ____
ROOT
ATOM      1  C   UNL     1       3.091   3.345  -4.221  0.00  0.00    +0.005 A 
ATOM      2  C   UNL     1       2.052   2.434  -4.247  0.00  0.00    +0.029 A 
ATOM      3  C   UNL     1       0.789   2.814  -3.832  0.00  0.00    +0.105 A 
ATOM      4  C   UNL     1       0.565   4.106  -3.397  0.00  0.00    +0.029 A 
ATOM      5  C   UNL     1       1.604   5.017  -3.368  0.00  0.00    +0.005 A 
ATOM      6  C   UNL     1       2.867   4.637  -3.782  0.00  0.00    -0.049 A 
ENDROOT
BRANCH   3   7
ATOM      7  S   UNL     1      -0.535   1.652  -3.864  0.00  0.00    +0.059 S 
ATOM      8  O   UNL     1      -0.190   0.669  -4.830  0.00  0.00    -0.153 OA
ATOM      9  O   UNL     1      -1.736   2.407  -3.941  0.00  0.00    -0.153 OA
BRANCH   7  10
ATOM     10  N   UNL     1      -0.550   0.886  -2.395  0.00  0.00    -0.185 NA
ATOM     11  H   UNL     1      -0.360  -0.063  -2.341  0.00  0.00    +0.148 HD
BRANCH  10  12
ATOM     12  C   UNL     1      -0.851   1.643  -1.178  0.00  0.00    +0.099 C 
ATOM     13  C   UNL     1      -2.340   1.490  -0.825  0.00  0.00    +0.044 C 
ATOM     14  C   UNL     1      -2.599   2.009   0.610  0.00  0.00    +0.167 C 
ATOM     15  S   UNL     1      -0.979   1.731   1.438  0.00  0.00    -0.029 S 
ATOM     16  O   UNL     1      -1.123   0.698   2.403  0.00  0.00    -0.174 OA
ATOM     17  O   UNL     1      -0.440   2.986   1.832  0.00  0.00    -0.174 OA
ATOM     18  C   UNL     1      -0.013   1.086   0.008  0.00  0.00    +0.186 C 
ENDBRANCH  10  12
ENDBRANCH   7  10
ENDBRANCH   3   7
BRANCH   6  19
ATOM     19  C   UNL     1       4.000   5.631  -3.755  0.00  0.00    +0.015 C 
BRANCH  19  20
ATOM     20  C   UNL     1       4.062   6.370  -5.093  0.00  0.00    -0.082 C 
BRANCH  20  23
ATOM     21  H   UNL     1       6.040   6.885  -4.847  0.00  0.00    -0.090 HD
ATOM     22  H   UNL     1       5.228   7.840  -5.940  0.00  0.00    -0.090 HD
ATOM     23  N   UNL     1       5.158   7.354  -5.048  0.00  0.00    +0.378 N 
ATOM     24  H   UNL     1       4.967   8.038  -4.307  0.00  0.00    -0.090 HD
ENDBRANCH  20  23
ENDBRANCH  19  20
ENDBRANCH   6  19
TORSDOF 6
