REMARK  Name = ZINC38761867
REMARK  5 active torsions:
REMARK  status: ('A' for Active; 'I' for Inactive)
REMARK    1  A    between atoms: C_1  and  C_2
REMARK    2  A    between atoms: C_1  and  O_17
REMARK    3  A    between atoms: C_4  and  O_16
REMARK    4  A    between atoms: C_8  and  O_14
REMARK    5  A    between atoms: C_10  and  O_13
REMARK                            x       y       z     vdW  Elec       q    Type
REMARK                         _______ _______ _______ _____ _____    ______ ____
ROOT
ATOM      1  C   UNL     1       0.002  -0.004   0.002  0.00  0.00    +0.177 C 
ATOM      2  C   UNL     1      -1.430  -0.533  -0.112  0.00  0.00    +0.166 C 
ATOM      3  C   UNL     1      -1.406  -2.064  -0.059  0.00  0.00    +0.145 C 
ATOM      4  C   UNL     1      -0.724  -2.509   1.238  0.00  0.00    +0.190 C 
ATOM      5  C   UNL     1       0.681  -1.903   1.300  0.00  0.00    +0.278 C 
ATOM      6  O   UNL     1       0.589  -0.479   1.215  0.00  0.00    -0.341 OA
ATOM      7 CL   UNL     1      -3.094  -2.696  -0.103  0.00  0.00    -0.116 Cl
ENDROOT
BRANCH   5   8
ATOM      8  O   UNL     1       1.303  -2.268   2.534  0.00  0.00    -0.365 OA
ATOM      9  H   UNL     1       2.198  -1.917   2.642  0.00  0.00    +0.213 HD
ENDBRANCH   5   8
BRANCH   4  10
ATOM     10  O   UNL     1      -0.632  -3.934   1.265  0.00  0.00    -0.385 OA
ATOM     11  H   UNL     1      -0.209  -4.286   2.060  0.00  0.00    +0.210 HD
ENDBRANCH   4  10
BRANCH   2  12
ATOM     12  O   UNL     1      -1.999  -0.106  -1.351  0.00  0.00    -0.388 OA
ATOM     13  H   UNL     1      -2.908  -0.406  -1.491  0.00  0.00    +0.210 HD
ENDBRANCH   2  12
BRANCH   1  14
ATOM     14  C   UNL     1      -0.019   1.526   0.010  0.00  0.00    +0.190 C 
BRANCH  14  15
ATOM     15  O   UNL     1       1.322   2.020   0.000  0.00  0.00    -0.392 OA
ATOM     16  H   UNL     1       1.385   2.985   0.005  0.00  0.00    +0.210 HD
ENDBRANCH  14  15
ENDBRANCH   1  14
TORSDOF 5
