REMARK  Name = ZINC37082927
REMARK  7 active torsions:
REMARK  status: ('A' for Active; 'I' for Inactive)
REMARK    1  A    between atoms: C_1  and  C_2
REMARK    2  A    between atoms: C_2  and  C_3
REMARK    3  A    between atoms: N_9  and  S_10
REMARK    4  A    between atoms: S_10  and  C_13
REMARK    5  A    between atoms: C_15  and  C_21
REMARK    6  A    between atoms: C_16  and  C_20
REMARK    7  A    between atoms: C_17  and  N_19
REMARK                            x       y       z     vdW  Elec       q    Type
REMARK                         _______ _______ _______ _____ _____    ______ ____
ROOT
ATOM      1  S   UNL     1      -1.307   0.648  -2.422  0.00  0.00    +0.061 S 
ATOM      2  O   UNL     1      -2.312   1.289  -3.195  0.00  0.00    -0.153 OA
ATOM      3  O   UNL     1      -0.363   1.375  -1.646  0.00  0.00    -0.153 OA
ENDROOT
BRANCH   1   4
ATOM      4  C   UNL     1      -0.379  -0.355  -3.534  0.00  0.00    +0.107 A 
ATOM      5  C   UNL     1       0.968  -0.575  -3.307  0.00  0.00    +0.032 A 
ATOM      6  C   UNL     1       1.700  -1.361  -4.177  0.00  0.00    -0.044 A 
ATOM      7  C   UNL     1       1.088  -1.930  -5.277  0.00  0.00    -0.027 A 
ATOM      8  C   UNL     1      -0.264  -1.712  -5.508  0.00  0.00    +0.030 A 
ATOM      9  C   UNL     1      -0.998  -0.926  -4.628  0.00  0.00    +0.051 A 
ATOM     10  C   UNL     1       1.887  -2.787  -6.225  0.00  0.00    +0.046 C 
ATOM     11  C   UNL     1       3.167  -1.596  -3.926  0.00  0.00    +0.044 C 
BRANCH   8  12
ATOM     12  N   UNL     1      -0.886  -2.287  -6.619  0.00  0.00    -0.358 N 
ATOM     13  H   UNL     1      -0.374  -2.838  -7.230  0.00  0.00    +0.142 HD
ATOM     14  H   UNL     1      -1.831  -2.134  -6.779  0.00  0.00    +0.142 HD
ENDBRANCH   8  12
ENDBRANCH   1   4
BRANCH   1  20
ATOM     15  C   UNL     1      -1.392  -0.936  -0.216  0.00  0.00    +0.080 C 
ATOM     16  C   UNL     1      -1.538  -2.461  -0.240  0.00  0.00    +0.021 C 
ATOM     17  C   UNL     1      -3.023  -2.825  -0.319  0.00  0.00    +0.003 C 
ATOM     18  C   UNL     1      -3.620  -2.262  -1.610  0.00  0.00    +0.017 C 
ATOM     19  C   UNL     1      -3.497  -0.735  -1.601  0.00  0.00    +0.110 C 
ATOM     20  N   UNL     1      -2.091  -0.372  -1.379  0.00  0.00    -0.174 NA
BRANCH  15  22
ATOM     21  C   UNL     1       0.844  -1.277   0.845  0.00  0.00    +0.005 C 
ATOM     22  C   UNL     1       0.091  -0.562  -0.278  0.00  0.00    +0.017 C 
ENDBRANCH  15  22
ENDBRANCH   1  20
TORSDOF 4
