REMARK  Name = ZINC39512227
REMARK  2 active torsions:
REMARK  status: ('A' for Active; 'I' for Inactive)
REMARK    1  A    between atoms: C_3  and  O_15
REMARK    2  A    between atoms: N_12  and  O_14
REMARK                            x       y       z     vdW  Elec       q    Type
REMARK                         _______ _______ _______ _____ _____    ______ ____
ROOT
ATOM      1  C   UNL     1      -0.019   1.526   0.010  0.00  0.00    +0.020 C 
ATOM      2  C   UNL     1       1.419   2.052  -0.001  0.00  0.00    +0.034 C 
ATOM      3  C   UNL     1       2.143   1.511  -1.237  0.00  0.00    +0.137 C 
ATOM      4  C   UNL     1       2.089  -0.015  -1.226  0.00  0.00    +0.075 C 
ATOM      5  C   UNL     1       2.841  -0.553   0.005  0.00  0.00    +0.030 C 
ATOM      6  C   UNL     1       3.545  -1.834  -0.510  0.00  0.00    +0.039 C 
ATOM      7  C   UNL     1       3.976  -1.435  -1.943  0.00  0.00    +0.168 C 
ATOM      8  C   UNL     1       2.806  -0.574  -2.465  0.00  0.00    +0.064 C 
ATOM      9  F   UNL     1       5.159  -0.689  -1.908  0.00  0.00    -0.245 F 
ATOM     10  N   UNL     1       0.700  -0.478  -1.201  0.00  0.00    -0.182 NA
ATOM     11  C   UNL     1       0.002  -0.004   0.002  0.00  0.00    +0.115 C 
ENDROOT
BRANCH  10  12
ATOM     12  O   UNL     1      -0.011  -0.072  -2.413  0.00  0.00    -0.312 OA
ATOM     13  H   UNL     1      -0.935  -0.356  -2.442  0.00  0.00    +0.237 HD
ENDBRANCH  10  12
BRANCH   3  14
ATOM     14  O   UNL     1       3.505   1.941  -1.220  0.00  0.00    -0.390 OA
ATOM     15  H   UNL     1       3.614   2.902  -1.223  0.00  0.00    +0.210 HD
ENDBRANCH   3  14
TORSDOF 2
