REMARK  Name = ZINC12671396
REMARK  13 active torsions:
REMARK  status: ('A' for Active; 'I' for Inactive)
REMARK    1  A    between atoms: C_1  and  C_2
REMARK    2  A    between atoms: C_2  and  C_4
REMARK    3  A    between atoms: C_2  and  N_7
REMARK    4  A    between atoms: C_4  and  C_5
REMARK    5  A    between atoms: C_4  and  C_6
REMARK    6  A    between atoms: N_7  and  C_8
REMARK    7  A    between atoms: C_8  and  C_10
REMARK    8  A    between atoms: C_8  and  C_11
REMARK    9  A    between atoms: N_13  and  C_14
REMARK   10  A    between atoms: C_14  and  C_15
REMARK   11  A    between atoms: C_15  and  C_16
REMARK   12  A    between atoms: C_19  and  S_22
REMARK   13  A    between atoms: S_22  and  N_25
REMARK                            x       y       z     vdW  Elec       q    Type
REMARK                         _______ _______ _______ _____ _____    ______ ____
ROOT
ATOM      1  C   UNL     1       0.865  -0.421   3.499  0.00  0.00    +0.199 C 
ATOM      2  O   UNL     1       1.895  -1.045   3.358  0.00  0.00    -0.278 OA
ATOM      3  N   UNL     1       0.439  -0.095   4.735  0.00  0.00    -0.316 N 
ATOM      4  H   UNL     1      -0.385   0.405   4.848  0.00  0.00    +0.149 HD
ENDROOT
BRANCH   1   5
ATOM      5  C   UNL     1       0.062  -0.009   2.292  0.00  0.00    +0.013 C 
ATOM      6  C   UNL     1      -0.054   1.516   2.253  0.00  0.00    -0.004 C 
BRANCH   5   7
ATOM      7  N   UNL     1       0.733  -0.481   1.073  0.00  0.00    +0.388 N 
ATOM      8  H   UNL     1       1.693  -0.168   1.076  0.00  0.00    -0.084 HD
ATOM      9  H   UNL     1       0.260  -0.109   0.264  0.00  0.00    -0.084 HD
BRANCH   7  11
ATOM     10  C   UNL     1      -0.751  -2.419   0.881  0.00  0.00    -0.013 C 
ATOM     11  C   UNL     1       0.697  -1.949   1.031  0.00  0.00    -0.071 C 
BRANCH  11  12
ATOM     12  C   UNL     1       1.520  -2.445  -0.159  0.00  0.00    -0.032 C 
ATOM     13  C   UNL     1       2.969  -1.975  -0.009  0.00  0.00    +0.005 C 
ATOM     14  C   UNL     1       1.482  -3.974  -0.203  0.00  0.00    +0.005 C 
ENDBRANCH  11  12
ENDBRANCH   7  11
ENDBRANCH   5   7
ENDBRANCH   1   5
BRANCH   3  15
ATOM     15  C   UNL     1       1.219  -0.495   5.909  0.00  0.00    +0.109 C 
BRANCH  15  16
ATOM     16  C   UNL     1       0.520  -0.004   7.178  0.00  0.00    +0.054 C 
BRANCH  16  17
ATOM     17  C   UNL     1       1.323  -0.415   8.385  0.00  0.00    -0.046 A 
ATOM     18  C   UNL     1       1.081  -1.633   8.994  0.00  0.00    +0.005 A 
ATOM     19  C   UNL     1       1.818  -2.010  10.101  0.00  0.00    +0.029 A 
ATOM     20  C   UNL     1       2.796  -1.171  10.599  0.00  0.00    +0.105 A 
ATOM     21  C   UNL     1       3.039   0.046   9.990  0.00  0.00    +0.029 A 
ATOM     22  C   UNL     1       2.305   0.422   8.880  0.00  0.00    +0.005 A 
BRANCH  20  23
ATOM     23  S   UNL     1       3.735  -1.651  12.011  0.00  0.00    +0.056 S 
ATOM     24  O   UNL     1       4.214  -0.454  12.607  0.00  0.00    -0.153 OA
ATOM     25  O   UNL     1       2.943  -2.593  12.723  0.00  0.00    -0.153 OA
BRANCH  23  26
ATOM     26  N   UNL     1       5.064  -2.471  11.460  0.00  0.00    -0.204 NA
ATOM     27  H   UNL     1       5.194  -2.600  10.508  0.00  0.00    +0.144 HD
ATOM     28  H   UNL     1       5.712  -2.822  12.090  0.00  0.00    +0.144 HD
ENDBRANCH  23  26
ENDBRANCH  20  23
ENDBRANCH  16  17
ENDBRANCH  15  16
ENDBRANCH   3  15
TORSDOF 9
