REMARK  Name = ZINC39684313
REMARK  12 active torsions:
REMARK  status: ('A' for Active; 'I' for Inactive)
REMARK    1  A    between atoms: C_1  and  C_2
REMARK    2  A    between atoms: C_2  and  C_4
REMARK    3  A    between atoms: C_2  and  N_8
REMARK    4  A    between atoms: C_4  and  C_5
REMARK    5  A    between atoms: C_4  and  C_6
REMARK    6  A    between atoms: C_4  and  C_7
REMARK    7  A    between atoms: C_9  and  C_11
REMARK    8  A    between atoms: C_22  and  C_24
REMARK    9  A    between atoms: C_26  and  O_32
REMARK   10  A    between atoms: C_28  and  O_30
REMARK   11  A    between atoms: O_30  and  C_31
REMARK   12  A    between atoms: O_32  and  C_33
REMARK                            x       y       z     vdW  Elec       q    Type
REMARK                         _______ _______ _______ _____ _____    ______ ____
ROOT
ATOM      1  C   UNL     1      -4.050  -1.425  -0.872  0.00  0.00    +0.100 C 
ATOM      2  C   UNL     1      -4.682  -0.289  -0.036  0.00  0.00    +0.121 C 
ATOM      3  N   UNL     1      -5.233   0.651  -1.040  0.00  0.00    -0.296 N 
ATOM      4  C   UNL     1      -5.798  -0.224  -2.095  0.00  0.00    +0.115 C 
ATOM      5  C   UNL     1      -4.787  -1.381  -2.220  0.00  0.00    -0.004 C 
ATOM      6  C   UNL     1      -5.519  -2.697  -2.466  0.00  0.00    -0.010 C 
ATOM      7  C   UNL     1      -6.196  -2.651  -3.839  0.00  0.00    -0.082 C 
ATOM      8  N   UNL     1      -5.184  -2.429  -4.878  0.00  0.00    +0.379 N 
ATOM      9  C   UNL     1      -4.550  -1.119  -4.689  0.00  0.00    -0.082 C 
ATOM     10  C   UNL     1      -3.803  -1.100  -3.352  0.00  0.00    -0.010 C 
ATOM     11  C   UNL     1      -5.223   1.999  -1.002  0.00  0.00    +0.247 C 
ATOM     12  O   UNL     1      -4.609   2.578  -0.127  0.00  0.00    -0.270 OA
ATOM     13  H   UNL     1      -4.482  -3.152  -4.823  0.00  0.00    -0.086 HD
ATOM     14  H   UNL     1      -5.623  -2.460  -5.786  0.00  0.00    -0.086 HD
ENDROOT
BRANCH  11  15
ATOM     15  C   UNL     1      -5.960   2.773  -2.024  0.00  0.00    +0.044 A 
ATOM     16  C   UNL     1      -6.994   2.173  -2.744  0.00  0.00    +0.059 A 
ATOM     17  C   UNL     1      -7.682   2.902  -3.700  0.00  0.00    +0.124 A 
ATOM     18  C   UNL     1      -7.345   4.226  -3.942  0.00  0.00    +0.091 A 
ATOM     19  C   UNL     1      -6.318   4.826  -3.228  0.00  0.00    +0.124 A 
ATOM     20  C   UNL     1      -5.628   4.106  -2.266  0.00  0.00    +0.059 A 
BRANCH  19  21
ATOM     21  O   UNL     1      -5.991   6.123  -3.468  0.00  0.00    -0.495 OA
ATOM     22  C   UNL     1      -6.747   6.807  -4.470  0.00  0.00    +0.277 C 
ENDBRANCH  19  21
BRANCH  17  23
ATOM     23  O   UNL     1      -8.688   2.319  -4.403  0.00  0.00    -0.495 OA
ATOM     24  C   UNL     1      -9.356   3.129  -5.373  0.00  0.00    +0.277 C 
ENDBRANCH  17  23
ENDBRANCH  11  15
BRANCH   1  26
ATOM     25  N   UNL     1      -1.740  -2.205  -1.289  0.00  0.00    -0.312 N 
ATOM     26  C   UNL     1      -2.577  -1.172  -1.070  0.00  0.00    +0.218 C 
ATOM     27  O   UNL     1      -2.146  -0.040  -1.032  0.00  0.00    -0.275 OA
ATOM     28  H   UNL     1      -2.085  -3.111  -1.319  0.00  0.00    +0.149 HD
BRANCH  25  30
ATOM     29  C   UNL     1       0.383  -1.879  -0.120  0.00  0.00    +0.028 C 
ATOM     30  C   UNL     1      -0.309  -1.960  -1.482  0.00  0.00    +0.075 C 
BRANCH  30  31
ATOM     31  C   UNL     1       0.300  -3.104  -2.296  0.00  0.00    -0.020 C 
ATOM     32  C   UNL     1       0.105  -4.423  -1.546  0.00  0.00    +0.012 C 
ATOM     33  C   UNL     1      -0.392  -3.185  -3.658  0.00  0.00    +0.012 C 
ATOM     34  C   UNL     1       1.795  -2.848  -2.497  0.00  0.00    +0.012 C 
ENDBRANCH  30  31
ENDBRANCH  25  30
ENDBRANCH   1  26
TORSDOF 6
