REMARK  Name = ZINC55587038
REMARK  7 active torsions:
REMARK  status: ('A' for Active; 'I' for Inactive)
REMARK    1  A    between atoms: C_2  and  C_3
REMARK    2  A    between atoms: C_3  and  N_4
REMARK    3  A    between atoms: C_5  and  C_7
REMARK    4  A    between atoms: C_11  and  S_13
REMARK    5  A    between atoms: S_13  and  N_16
REMARK    6  A    between atoms: N_16  and  C_17
REMARK    7  A    between atoms: C_22  and  C_23
REMARK                            x       y       z     vdW  Elec       q    Type
REMARK                         _______ _______ _______ _____ _____    ______ ____
ROOT
ATOM      1  S   UNL     1      -4.931  -6.164  -4.015  0.00  0.00    +0.092 S 
ATOM      2  O   UNL     1      -6.035  -5.533  -3.380  0.00  0.00    -0.148 OA
ATOM      3  O   UNL     1      -4.934  -6.495  -5.397  0.00  0.00    -0.148 OA
ENDROOT
BRANCH   1   8
ATOM      4  C   UNL     1      -2.411  -3.431  -2.469  0.00  0.00    +0.039 A 
ATOM      5  C   UNL     1      -1.328  -3.492  -3.347  0.00  0.00    +0.013 A 
ATOM      6  C   UNL     1      -1.357  -4.364  -4.414  0.00  0.00    +0.003 A 
ATOM      7  C   UNL     1      -2.458  -5.179  -4.616  0.00  0.00    +0.029 A 
ATOM      8  C   UNL     1      -3.535  -5.124  -3.749  0.00  0.00    +0.111 A 
ATOM      9  C   UNL     1      -3.515  -4.259  -2.674  0.00  0.00    +0.042 A 
BRANCH   4  11
ATOM     10  N   UNL     1      -1.318  -1.700  -1.126  0.00  0.00    -0.308 N 
ATOM     11  C   UNL     1      -2.386  -2.498  -1.322  0.00  0.00    +0.244 C 
ATOM     12  O   UNL     1      -3.328  -2.451  -0.556  0.00  0.00    -0.270 OA
ATOM     13  H   UNL     1      -0.566  -1.737  -1.737  0.00  0.00    +0.149 HD
BRANCH  10  14
ATOM     14  C   UNL     1      -1.293  -0.775   0.010  0.00  0.00    +0.131 C 
BRANCH  14  16
ATOM     15  C   UNL     1      -0.016   1.306   0.009  0.00  0.00    +0.005 C 
ATOM     16  C   UNL     1       0.002  -0.004   0.002  0.00  0.00    -0.016 C 
ENDBRANCH  14  16
ENDBRANCH  10  14
ENDBRANCH   4  11
ENDBRANCH   1   8
BRANCH   1  17
ATOM     17  N   UNL     1      -4.655  -7.575  -3.192  0.00  0.00    -0.097 NA
BRANCH  17  18
ATOM     18  C   UNL     1      -5.599  -8.592  -3.222  0.00  0.00    +0.089 A 
ATOM     19  C   UNL     1      -6.774  -8.433  -3.946  0.00  0.00    +0.030 A 
ATOM     20  C   UNL     1      -7.711  -9.445  -3.975  0.00  0.00    +0.040 A 
ATOM     21  C   UNL     1      -7.490 -10.628  -3.283  0.00  0.00    +0.124 A 
ATOM     22  C   UNL     1      -6.330 -10.806  -2.559  0.00  0.00    +0.055 A 
ATOM     23  C   UNL     1      -5.368  -9.790  -2.525  0.00  0.00    +0.090 A 
ATOM     24  F   UNL     1      -8.417 -11.611  -3.319  0.00  0.00    -0.205 F 
BRANCH  23  25
ATOM     25  C   UNL     1      -4.125  -9.973  -1.761  0.00  0.00    +0.389 C 
ATOM     26  O   UNL     1      -3.928 -11.018  -1.155  0.00  0.00    -0.241 OA
ATOM     27  O   UNL     1      -3.289  -9.081  -1.730  0.00  0.00    -0.241 OA
ENDBRANCH  23  25
ENDBRANCH  17  18
ENDBRANCH   1  17
TORSDOF 7
