REMARK  Name = ZINC29726670
REMARK  8 active torsions:
REMARK  status: ('A' for Active; 'I' for Inactive)
REMARK    1  A    between atoms: C_1  and  C_2
REMARK    2  A    between atoms: C_2  and  C_4
REMARK    3  A    between atoms: C_2  and  N_7
REMARK    4  A    between atoms: C_4  and  C_5
REMARK    5  A    between atoms: C_4  and  C_6
REMARK    6  A    between atoms: N_10  and  C_11
REMARK    7  A    between atoms: N_14  and  S_17
REMARK    8  A    between atoms: S_17  and  C_20
REMARK                            x       y       z     vdW  Elec       q    Type
REMARK                         _______ _______ _______ _____ _____    ______ ____
ROOT
ATOM      1  N   UNL     1       0.688  -0.476  -1.203  0.00  0.00    -0.297 N 
ATOM      2  C   UNL     1       2.031  -0.587  -1.215  0.00  0.00    +0.300 C 
ATOM      3  O   UNL     1       2.674  -0.294  -0.225  0.00  0.00    -0.253 OA
ATOM      4  N   UNL     1       2.662  -1.022  -2.324  0.00  0.00    -0.296 N 
ATOM      5  H   UNL     1       0.175  -0.710  -1.993  0.00  0.00    +0.151 HD
ATOM      6  H   UNL     1       2.149  -1.255  -3.114  0.00  0.00    +0.151 HD
ENDROOT
BRANCH   4   7
ATOM      7  C   UNL     1       4.122  -1.142  -2.336  0.00  0.00    +0.077 C 
ATOM      8  C   UNL     1       4.742   0.212  -2.690  0.00  0.00    +0.039 C 
ATOM      9  C   UNL     1       6.269   0.091  -2.668  0.00  0.00    +0.111 C 
ATOM     10  N   UNL     1       6.669  -1.007  -3.559  0.00  0.00    -0.181 NA
ATOM     11  C   UNL     1       6.064  -2.331  -3.364  0.00  0.00    +0.111 C 
ATOM     12  C   UNL     1       4.539  -2.183  -3.377  0.00  0.00    +0.039 C 
BRANCH  10  13
ATOM     13  S   UNL     1       7.781  -0.756  -4.760  0.00  0.00    +0.029 S 
ATOM     14  O   UNL     1       7.480  -1.738  -5.743  0.00  0.00    -0.158 OA
ATOM     15  O   UNL     1       7.680   0.628  -5.065  0.00  0.00    -0.158 OA
ATOM     16  C   UNL     1       9.385  -1.112  -3.992  0.00  0.00    +0.215 C 
ENDBRANCH  10  13
ENDBRANCH   4   7
BRANCH   1  18
ATOM     17  C   UNL     1      -0.019   1.526   0.010  0.00  0.00    +0.028 C 
ATOM     18  C   UNL     1       0.002  -0.004   0.002  0.00  0.00    +0.074 C 
BRANCH  18  19
ATOM     19  C   UNL     1      -1.433  -0.534   0.013  0.00  0.00    +0.003 C 
ATOM     20  C   UNL     1      -1.413  -2.063   0.004  0.00  0.00    +0.009 C 
ATOM     21  C   UNL     1      -2.149  -0.040   1.272  0.00  0.00    +0.009 C 
ENDBRANCH  18  19
ENDBRANCH   1  18
TORSDOF 4
