REMARK  Name = ZINC12550436
REMARK  9 active torsions:
REMARK  status: ('A' for Active; 'I' for Inactive)
REMARK    1  A    between atoms: C_1  and  C_2
REMARK    2  A    between atoms: C_5  and  C_8
REMARK    3  A    between atoms: C_9  and  C_25
REMARK    4  A    between atoms: C_11  and  S_14
REMARK    5  A    between atoms: S_14  and  C_15
REMARK    6  A    between atoms: C_15  and  C_17
REMARK    7  A    between atoms: C_15  and  C_18
REMARK    8  A    between atoms: N_23  and  C_24
REMARK    9  A    between atoms: C_28  and  C_31
REMARK                            x       y       z     vdW  Elec       q    Type
REMARK                         _______ _______ _______ _____ _____    ______ ____
ROOT
ATOM      1  C   UNL     1      -2.701   4.701  -1.844  0.00  0.00    +0.075 A 
ATOM      2  C   UNL     1      -2.966   3.348  -1.912  0.00  0.00    +0.098 A 
ATOM      3  N   UNL     1      -2.475   2.777  -0.794  0.00  0.00    -0.221 NA
ATOM      4  C   UNL     1      -1.928   3.697  -0.035  0.00  0.00    +0.168 A 
ATOM      5  N   UNL     1      -2.041   4.909  -0.647  0.00  0.00    -0.332 N 
ATOM      6  H   UNL     1      -1.710   5.784  -0.296  0.00  0.00    +0.168 HD
ENDROOT
BRANCH   1  11
ATOM      7  C   UNL     1      -4.067   8.685  -5.763  0.00  0.00    +0.044 C 
ATOM      8  C   UNL     1      -3.709   7.641  -4.736  0.00  0.00    -0.050 A 
ATOM      9  C   UNL     1      -3.981   7.869  -3.399  0.00  0.00    +0.004 A 
ATOM     10  C   UNL     1      -3.656   6.919  -2.454  0.00  0.00    +0.010 A 
ATOM     11  C   UNL     1      -3.052   5.723  -2.849  0.00  0.00    +0.000 A 
ATOM     12  C   UNL     1      -2.776   5.501  -4.201  0.00  0.00    +0.010 A 
ATOM     13  C   UNL     1      -3.111   6.459  -5.136  0.00  0.00    +0.004 A 
ENDBRANCH   1  11
BRANCH   2  14
ATOM     14  C   UNL     1      -3.661   2.648  -3.017  0.00  0.00    +0.002 A 
ATOM     15  C   UNL     1      -4.804   3.204  -3.590  0.00  0.00    +0.010 A 
ATOM     16  C   UNL     1      -5.443   2.551  -4.623  0.00  0.00    +0.004 A 
ATOM     17  C   UNL     1      -4.958   1.339  -5.084  0.00  0.00    -0.050 A 
ATOM     18  C   UNL     1      -3.828   0.779  -4.516  0.00  0.00    +0.004 A 
ATOM     19  C   UNL     1      -3.177   1.426  -3.486  0.00  0.00    +0.010 A 
ATOM     20  C   UNL     1      -5.665   0.627  -6.208  0.00  0.00    +0.044 C 
ENDBRANCH   2  14
BRANCH   4  21
ATOM     21  S   UNL     1      -1.162   3.409   1.525  0.00  0.00    -0.075 S 
BRANCH  21  22
ATOM     22  C   UNL     1      -1.394   1.620   1.664  0.00  0.00    +0.137 C 
ATOM     23  C   UNL     1      -0.596   0.915   0.565  0.00  0.00    +0.029 C 
BRANCH  22  24
ATOM     24  C   UNL     1      -0.910   1.154   3.013  0.00  0.00    +0.233 C 
ATOM     25  O   UNL     1      -0.141   1.840   3.652  0.00  0.00    -0.274 OA
ATOM     26  N   UNL     1      -1.332  -0.026   3.510  0.00  0.00    -0.239 N 
ATOM     27  C   UNL     1      -0.899  -0.443   4.716  0.00  0.00    +0.306 C 
ATOM     28  O   UNL     1      -0.129   0.245   5.356  0.00  0.00    -0.252 OA
ATOM     29  N   UNL     1      -1.321  -1.623   5.213  0.00  0.00    -0.302 N 
ATOM     30  C   UNL     1      -0.851  -2.076   6.524  0.00  0.00    +0.129 C 
ATOM     31  H   UNL     1      -1.947  -0.575   2.999  0.00  0.00    +0.159 HD
ATOM     32  H   UNL     1      -1.937  -2.172   4.702  0.00  0.00    +0.150 HD
ENDBRANCH  22  24
ENDBRANCH  21  22
ENDBRANCH   4  21
TORSDOF 5
