REMARK  Name = ZINC39602335
REMARK  8 active torsions:
REMARK  status: ('A' for Active; 'I' for Inactive)
REMARK    1  A    between atoms: C_1  and  C_2
REMARK    2  A    between atoms: C_3  and  C_12
REMARK    3  A    between atoms: C_7  and  O_8
REMARK    4  A    between atoms: O_8  and  C_9
REMARK    5  A    between atoms: C_9  and  C_11
REMARK    6  A    between atoms: C_16  and  C_25
REMARK    7  A    between atoms: N_27  and  C_28
REMARK    8  A    between atoms: C_31  and  C_33
REMARK                            x       y       z     vdW  Elec       q    Type
REMARK                         _______ _______ _______ _____ _____    ______ ____
ROOT
ATOM      1  C   UNL     1      -0.172  -0.061  -2.711  0.00  0.00    +0.247 C 
ATOM      2  O   UNL     1      -0.099   1.144  -2.845  0.00  0.00    -0.270 OA
ATOM      3  N   UNL     1      -0.398  -0.847  -3.782  0.00  0.00    -0.296 N 
ATOM      4  C   UNL     1      -0.643  -2.308  -3.802  0.00  0.00    +0.121 C 
ATOM      5  C   UNL     1      -1.736  -2.506  -4.876  0.00  0.00    +0.100 C 
ATOM      6  C   UNL     1      -1.609  -1.281  -5.796  0.00  0.00    -0.004 C 
ATOM      7  C   UNL     1      -0.465  -0.443  -5.207  0.00  0.00    +0.115 C 
ATOM      8  C   UNL     1      -2.905  -0.475  -5.786  0.00  0.00    -0.010 C 
ATOM      9  C   UNL     1      -2.773   0.706  -6.752  0.00  0.00    -0.082 C 
ATOM     10  N   UNL     1      -2.495   0.206  -8.104  0.00  0.00    +0.379 N 
ATOM     11  C   UNL     1      -1.202  -0.488  -8.124  0.00  0.00    -0.082 C 
ATOM     12  C   UNL     1      -1.266  -1.720  -7.216  0.00  0.00    -0.010 C 
ATOM     13  H   UNL     1      -3.224  -0.435  -8.380  0.00  0.00    -0.086 HD
ATOM     14  H   UNL     1      -2.469   0.981  -8.749  0.00  0.00    -0.086 HD
ENDROOT
BRANCH   1  17
ATOM     15  C   UNL     1      -1.192   1.324  -0.385  0.00  0.00    +0.048 C 
ATOM     16  C   UNL     1      -0.500  -0.008  -0.242  0.00  0.00    +0.004 A 
ATOM     17  C   UNL     1      -0.012  -0.667  -1.371  0.00  0.00    +0.043 A 
ATOM     18  C   UNL     1       0.627  -1.899  -1.231  0.00  0.00    +0.013 A 
ATOM     19  C   UNL     1       0.774  -2.462   0.021  0.00  0.00    +0.004 A 
ATOM     20  C   UNL     1       0.290  -1.807   1.138  0.00  0.00    +0.047 A 
ATOM     21  C   UNL     1      -0.343  -0.578   1.009  0.00  0.00    +0.135 A 
BRANCH  21  22
ATOM     22  O   UNL     1      -0.813   0.063   2.112  0.00  0.00    -0.426 OA
BRANCH  22  23
ATOM     23  C   UNL     1      -0.108   1.104   2.584  0.00  0.00    +0.309 C 
ATOM     24  O   UNL     1       0.956   1.387   2.088  0.00  0.00    -0.251 OA
ATOM     25  C   UNL     1      -0.646   1.919   3.732  0.00  0.00    +0.136 C 
ENDBRANCH  22  23
ENDBRANCH  21  22
ENDBRANCH   1  17
BRANCH   5  26
ATOM     26  C   UNL     1      -1.487  -3.775  -5.650  0.00  0.00    +0.218 C 
ATOM     27  O   UNL     1      -0.364  -4.225  -5.732  0.00  0.00    -0.275 OA
ATOM     28  N   UNL     1      -2.513  -4.410  -6.251  0.00  0.00    -0.312 N 
ATOM     29  H   UNL     1      -3.412  -4.051  -6.185  0.00  0.00    +0.149 HD
BRANCH  28  30
ATOM     30  C   UNL     1      -2.271  -5.644  -7.003  0.00  0.00    +0.081 C 
ATOM     31  C   UNL     1      -3.254  -6.799  -6.802  0.00  0.00    +0.033 C 
ATOM     32  C   UNL     1      -3.265  -6.003  -8.110  0.00  0.00    +0.041 C 
BRANCH  32  33
ATOM     33  C   UNL     1      -2.721  -6.680  -9.341  0.00  0.00    -0.042 A 
ATOM     34  C   UNL     1      -2.081  -7.901  -9.233  0.00  0.00    +0.004 A 
ATOM     35  C   UNL     1      -1.582  -8.522 -10.362  0.00  0.00    +0.000 A 
ATOM     36  C   UNL     1      -1.724  -7.924 -11.600  0.00  0.00    +0.000 A 
ATOM     37  C   UNL     1      -2.364  -6.704 -11.708  0.00  0.00    +0.000 A 
ATOM     38  C   UNL     1      -2.867  -6.084 -10.579  0.00  0.00    +0.004 A 
ENDBRANCH  32  33
ENDBRANCH  28  30
ENDBRANCH   5  26
TORSDOF 6
