REMARK  Name = ZINC46987625
REMARK  3 active torsions:
REMARK  status: ('A' for Active; 'I' for Inactive)
REMARK    1  A    between atoms: C_1  and  C_2
REMARK    2  A    between atoms: C_6  and  C_7
REMARK    3  A    between atoms: C_7  and  N_8
REMARK                            x       y       z     vdW  Elec       q    Type
REMARK                         _______ _______ _______ _____ _____    ______ ____
ROOT
ATOM      1  N   UNL     1      -1.349  -0.027   3.052  0.00  0.00    -0.295 N 
ATOM      2  C   UNL     1      -1.589   0.425   4.299  0.00  0.00    +0.303 C 
ATOM      3  O   UNL     1      -0.664   0.622   5.063  0.00  0.00    -0.253 OA
ATOM      4  N   UNL     1      -2.855   0.659   4.699  0.00  0.00    -0.284 N 
ATOM      5  C   UNL     1      -3.968   0.309   3.816  0.00  0.00    +0.120 C 
ATOM      6  C   UNL     1      -4.792  -0.816   4.453  0.00  0.00    +0.088 C 
ATOM      7  S   UNL     1      -5.358  -0.266   6.091  0.00  0.00    -0.158 S 
ATOM      8  C   UNL     1      -3.819   0.248   6.910  0.00  0.00    +0.088 C 
ATOM      9  C   UNL     1      -3.099   1.255   6.013  0.00  0.00    +0.120 C 
ATOM     10  H   UNL     1      -2.089  -0.254   2.468  0.00  0.00    +0.151 HD
ENDROOT
BRANCH   1  11
ATOM     11  C   UNL     1       0.030  -0.175   2.580  0.00  0.00    +0.148 C 
BRANCH  11  17
ATOM     12  C   UNL     1      -0.021   1.509   0.011  0.00  0.00    +0.044 C 
ATOM     13  C   UNL     1       0.001   0.002   0.001  0.00  0.00    -0.039 A 
ATOM     14  C   UNL     1       0.006  -0.692  -1.194  0.00  0.00    +0.011 A 
ATOM     15  C   UNL     1       0.025  -2.047  -1.168  0.00  0.00    +0.046 A 
ATOM     16  S   UNL     1       0.039  -2.382   0.585  0.00  0.00    -0.100 S 
ATOM     17  C   UNL     1       0.023  -0.693   1.165  0.00  0.00    +0.010 A 
ENDBRANCH  11  17
ENDBRANCH   1  11
TORSDOF 2
