REMARK  Name = ZINC04131636
REMARK  7 active torsions:
REMARK  status: ('A' for Active; 'I' for Inactive)
REMARK    1  A    between atoms: C_1  and  C_2
REMARK    2  A    between atoms: C_4  and  O_25
REMARK    3  A    between atoms: C_6  and  O_24
REMARK    4  A    between atoms: C_7  and  C_8
REMARK    5  A    between atoms: C_9  and  C_18
REMARK    6  A    between atoms: C_10  and  C_14
REMARK    7  A    between atoms: C_21  and  C_23
REMARK                            x       y       z     vdW  Elec       q    Type
REMARK                         _______ _______ _______ _____ _____    ______ ____
ROOT
ATOM      1  C   UNL     1      -0.206   0.293   2.396  0.00  0.00    +0.079 A 
ATOM      2  C   UNL     1       0.950   0.907   2.858  0.00  0.00    +0.058 A 
ATOM      3  C   UNL     1       0.796   1.103   4.241  0.00  0.00    +0.175 A 
ATOM      4  N   UNL     1      -0.373   0.641   4.600  0.00  0.00    -0.169 NA
ATOM      5  N   UNL     1      -1.029   0.133   3.473  0.00  0.00    -0.276 N 
ATOM      6  H   UNL     1      -1.913  -0.266   3.459  0.00  0.00    +0.189 HD
ENDROOT
BRANCH   1  13
ATOM      7  C   UNL     1      -1.498   2.168   0.614  0.00  0.00    +0.044 C 
ATOM      8  C   UNL     1      -1.117   0.791   0.134  0.00  0.00    -0.034 A 
ATOM      9  C   UNL     1      -1.379   0.418  -1.168  0.00  0.00    +0.049 A 
ATOM     10  C   UNL     1      -1.030  -0.850  -1.615  0.00  0.00    +0.121 A 
ATOM     11  C   UNL     1      -0.415  -1.750  -0.755  0.00  0.00    +0.091 A 
ATOM     12  C   UNL     1      -0.147  -1.386   0.553  0.00  0.00    +0.130 A 
ATOM     13  C   UNL     1      -0.494  -0.105   1.004  0.00  0.00    +0.045 A 
BRANCH  12  14
ATOM     14  O   UNL     1       0.454  -2.265   1.395  0.00  0.00    -0.506 OA
ATOM     15  H   UNL     1       1.419  -2.216   1.393  0.00  0.00    +0.292 HD
ENDBRANCH  12  14
BRANCH  10  16
ATOM     16  O   UNL     1      -1.291  -1.211  -2.898  0.00  0.00    -0.507 OA
ATOM     17  H   UNL     1      -0.576  -1.011  -3.517  0.00  0.00    +0.292 HD
ENDBRANCH  10  16
ENDBRANCH   1  13
BRANCH   2  18
ATOM     18  C   UNL     1       2.130   1.287   2.042  0.00  0.00    +0.083 A 
ATOM     19  C   UNL     1       2.691   0.422   1.142  0.00  0.00    +0.075 A 
ATOM     20  S   UNL     1       4.022   1.427   0.505  0.00  0.00    -0.080 S 
ATOM     21  C   UNL     1       3.735   2.807   1.424  0.00  0.00    +0.076 A 
ATOM     22  N   UNL     1       2.691   2.483   2.143  0.00  0.00    -0.244 NA
ATOM     23  C   UNL     1       4.495   4.109   1.416  0.00  0.00    +0.073 C 
ENDBRANCH   2  18
BRANCH   3  24
ATOM     24  C   UNL     1       1.809   1.739   5.158  0.00  0.00    +0.437 C 
ATOM     25  F   UNL     1       1.969   3.086   4.814  0.00  0.00    -0.164 F 
ATOM     26  F   UNL     1       1.364   1.645   6.481  0.00  0.00    -0.164 F 
ATOM     27  F   UNL     1       3.034   1.076   5.030  0.00  0.00    -0.164 F 
ENDBRANCH   3  24
TORSDOF 5
