REMARK  Name = ZINC41095941
REMARK  6 active torsions:
REMARK  status: ('A' for Active; 'I' for Inactive)
REMARK    1  A    between atoms: C_1  and  C_2
REMARK    2  A    between atoms: C_2  and  C_4
REMARK    3  A    between atoms: C_2  and  O_10
REMARK    4  A    between atoms: O_10  and  C_11
REMARK    5  A    between atoms: C_11  and  C_13
REMARK    6  A    between atoms: C_15  and  N_20
REMARK                            x       y       z     vdW  Elec       q    Type
REMARK                         _______ _______ _______ _____ _____    ______ ____
ROOT
ATOM      1  O   UNL     1       0.693  -0.477   1.160  0.00  0.00    -0.449 OA
ENDROOT
BRANCH   1   3
ATOM      2  C   UNL     1      -0.019   1.526   0.010  0.00  0.00    +0.062 C 
ATOM      3  C   UNL     1       0.002  -0.004   0.002  0.00  0.00    +0.259 C 
BRANCH   3   4
ATOM      4  C   UNL     1      -1.412  -0.526   0.013  0.00  0.00    +0.261 C 
ATOM      5  O   UNL     1      -1.818  -1.157   0.965  0.00  0.00    -0.271 OA
ATOM      6  N   UNL     1      -2.225  -0.290  -1.036  0.00  0.00    -0.237 N 
ATOM      7  C   UNL     1      -3.489  -0.757  -1.027  0.00  0.00    +0.303 C 
ATOM      8  O   UNL     1      -3.896  -1.390  -0.072  0.00  0.00    -0.253 OA
ATOM      9  N   UNL     1      -4.302  -0.522  -2.075  0.00  0.00    -0.313 N 
ATOM     10  H   UNL     1      -1.900   0.215  -1.798  0.00  0.00    +0.159 HD
ATOM     11  H   UNL     1      -3.977  -0.017  -2.837  0.00  0.00    +0.146 HD
ATOM     12  H   UNL     1      -5.212  -0.858  -2.069  0.00  0.00    +0.146 HD
ENDBRANCH   3   4
ENDBRANCH   1   3
BRANCH   1  13
ATOM     13  C   UNL     1       2.023  -0.663   1.045  0.00  0.00    +0.341 C 
ATOM     14  O   UNL     1       2.580  -0.429  -0.009  0.00  0.00    -0.245 OA
BRANCH  13  15
ATOM     15  C   UNL     1       2.803  -1.150   2.201  0.00  0.00    +0.079 A 
ATOM     16  C   UNL     1       2.164  -1.425   3.411  0.00  0.00    +0.039 A 
ATOM     17  C   UNL     1       2.902  -1.883   4.490  0.00  0.00    +0.025 A 
ATOM     18  C   UNL     1       4.275  -2.067   4.367  0.00  0.00    +0.024 A 
ATOM     19  C   UNL     1       4.909  -1.795   3.170  0.00  0.00    +0.022 A 
ATOM     20  C   UNL     1       4.182  -1.343   2.085  0.00  0.00    +0.055 A 
ATOM     21 CL   UNL     1       4.982  -1.010   0.581  0.00  0.00    -0.083 Cl
BRANCH  17  22
ATOM     22  N   UNL     1       2.267  -2.159   5.705  0.00  0.00    -0.358 N 
ATOM     23  H   UNL     1       1.310  -2.031   5.791  0.00  0.00    +0.142 HD
ATOM     24  H   UNL     1       2.784  -2.479   6.460  0.00  0.00    +0.142 HD
ENDBRANCH  17  22
ENDBRANCH  13  15
ENDBRANCH   1  13
TORSDOF 5
