REMARK  Name = ZINC65739838
REMARK  7 active torsions:
REMARK  status: ('A' for Active; 'I' for Inactive)
REMARK    1  A    between atoms: C_1  and  C_2
REMARK    2  A    between atoms: C_1  and  O_23
REMARK    3  A    between atoms: C_4  and  O_22
REMARK    4  A    between atoms: C_6  and  O_21
REMARK    5  A    between atoms: C_8  and  N_14
REMARK    6  A    between atoms: C_10  and  O_13
REMARK    7  A    between atoms: C_15  and  C_17
REMARK                            x       y       z     vdW  Elec       q    Type
REMARK                         _______ _______ _______ _____ _____    ______ ____
ROOT
ATOM      1  C   UNL     1      -0.173  -0.020   0.121  0.00  0.00    +0.178 C 
ATOM      2  C   UNL     1      -1.572  -0.637   0.199  0.00  0.00    +0.176 C 
ATOM      3  C   UNL     1      -1.459  -2.159   0.068  0.00  0.00    +0.171 C 
ATOM      4  C   UNL     1      -0.747  -2.495  -1.247  0.00  0.00    +0.160 C 
ATOM      5  C   UNL     1       0.620  -1.806  -1.269  0.00  0.00    +0.270 C 
ATOM      6  O   UNL     1       0.444  -0.397  -1.111  0.00  0.00    -0.341 OA
ENDROOT
BRANCH   4   7
ATOM      7  N   UNL     1      -1.554  -2.022  -2.375  0.00  0.00    -0.298 N 
ATOM      8  C   UNL     1      -2.535  -2.799  -2.874  0.00  0.00    +0.318 C 
ATOM      9  O   UNL     1      -2.752  -3.889  -2.389  0.00  0.00    -0.266 OA
ATOM     10  H   UNL     1      -1.381  -1.150  -2.763  0.00  0.00    +0.150 HD
BRANCH   8  11
ATOM     11  C   UNL     1      -3.365  -2.312  -4.034  0.00  0.00    +0.469 C 
ATOM     12  F   UNL     1      -4.312  -3.285  -4.371  0.00  0.00    -0.162 F 
ATOM     13  F   UNL     1      -4.019  -1.129  -3.676  0.00  0.00    -0.162 F 
ATOM     14  F   UNL     1      -2.533  -2.071  -5.133  0.00  0.00    -0.162 F 
ENDBRANCH   8  11
ENDBRANCH   4   7
BRANCH   5  15
ATOM     15  O   UNL     1       1.424  -2.309  -0.200  0.00  0.00    -0.365 OA
ATOM     16  H   UNL     1       2.306  -1.916  -0.153  0.00  0.00    +0.213 HD
ENDBRANCH   5  15
BRANCH   3  17
ATOM     17  O   UNL     1      -0.707  -2.679   1.166  0.00  0.00    -0.387 OA
ATOM     18  H   UNL     1      -1.098  -2.496   2.032  0.00  0.00    +0.210 HD
ENDBRANCH   3  17
BRANCH   2  19
ATOM     19  O   UNL     1      -2.380  -0.124  -0.862  0.00  0.00    -0.387 OA
ATOM     20  H   UNL     1      -2.491   0.837  -0.843  0.00  0.00    +0.210 HD
ENDBRANCH   2  19
BRANCH   1  21
ATOM     21  C   UNL     1      -0.283   1.504   0.191  0.00  0.00    +0.190 C 
BRANCH  21  22
ATOM     22  O   UNL     1       1.026   2.075   0.235  0.00  0.00    -0.392 OA
ATOM     23  H   UNL     1       1.033   3.041   0.280  0.00  0.00    +0.210 HD
ENDBRANCH  21  22
ENDBRANCH   1  21
TORSDOF 7
