REMARK  Name = ZINC67497455
REMARK  10 active torsions:
REMARK  status: ('A' for Active; 'I' for Inactive)
REMARK    1  A    between atoms: C_1  and  C_2
REMARK    2  A    between atoms: C_5  and  N_11
REMARK    3  A    between atoms: C_7  and  C_8
REMARK    4  A    between atoms: C_12  and  C_14
REMARK    5  A    between atoms: N_16  and  C_17
REMARK    6  A    between atoms: C_17  and  C_18
REMARK    7  A    between atoms: C_18  and  C_20
REMARK    8  A    between atoms: C_18  and  N_25
REMARK    9  A    between atoms: N_25  and  C_26
REMARK   10  A    between atoms: N_25  and  C_27
REMARK                            x       y       z     vdW  Elec       q    Type
REMARK                         _______ _______ _______ _____ _____    ______ ____
ROOT
ATOM      1  N   UNL     1      -0.330  -4.273  -0.359  0.00  0.00    -0.278 N 
ATOM      2  C   UNL     1      -0.484  -4.925  -1.529  0.00  0.00    +0.303 C 
ATOM      3  O   UNL     1      -0.349  -4.329  -2.578  0.00  0.00    -0.265 OA
ATOM      4  H   UNL     1      -0.509  -4.730   0.477  0.00  0.00    +0.155 HD
ENDROOT
BRANCH   1   9
ATOM      5  C   UNL     1       1.356   1.152  -0.304  0.00  0.00    +0.044 C 
ATOM      6  C   UNL     1       0.911  -0.288  -0.322  0.00  0.00    -0.038 A 
ATOM      7  C   UNL     1       0.009  -0.743   0.619  0.00  0.00    +0.006 A 
ATOM      8  C   UNL     1      -0.403  -2.062   0.607  0.00  0.00    +0.023 A 
ATOM      9  C   UNL     1       0.089  -2.940  -0.352  0.00  0.00    +0.035 A 
ATOM     10  C   UNL     1       0.995  -2.493  -1.302  0.00  0.00    +0.036 A 
ATOM     11  C   UNL     1       1.406  -1.160  -1.293  0.00  0.00    +0.041 A 
BRANCH  11  12
ATOM     12  C   UNL     1       2.367  -0.673  -2.306  0.00  0.00    +0.242 C 
ATOM     13  O   UNL     1       2.637   0.510  -2.369  0.00  0.00    -0.270 OA
ATOM     14  N   UNL     1       2.944  -1.542  -3.159  0.00  0.00    -0.325 N 
ATOM     15  H   UNL     1       2.729  -2.487  -3.109  0.00  0.00    +0.145 HD
ATOM     16  H   UNL     1       3.575  -1.223  -3.823  0.00  0.00    +0.145 HD
ENDBRANCH  11  12
ENDBRANCH   1   9
BRANCH   2  17
ATOM     17  C   UNL     1      -0.821  -6.380  -1.535  0.00  0.00    +0.299 C 
ATOM     18  O   UNL     1      -0.956  -6.976  -0.486  0.00  0.00    -0.265 OA
ATOM     19  N   UNL     1      -0.975  -7.032  -2.704  0.00  0.00    -0.309 N 
ATOM     20  H   UNL     1      -0.868  -6.556  -3.542  0.00  0.00    +0.149 HD
BRANCH  19  21
ATOM     21  C   UNL     1      -1.306  -8.459  -2.710  0.00  0.00    +0.094 C 
BRANCH  21  22
ATOM     22  C   UNL     1      -1.326  -8.972  -4.151  0.00  0.00    -0.020 C 
BRANCH  22  23
ATOM     23  C   UNL     1      -2.430  -8.286  -4.913  0.00  0.00    -0.052 A 
ATOM     24  C   UNL     1      -2.147  -7.226  -5.755  0.00  0.00    +0.009 A 
ATOM     25  C   UNL     1      -3.163  -6.631  -6.426  0.00  0.00    +0.045 A 
ATOM     26  S   UNL     1      -4.574  -7.574  -5.872  0.00  0.00    -0.105 S 
ATOM     27  C   UNL     1      -3.714  -8.701  -4.788  0.00  0.00    +0.047 A 
ENDBRANCH  22  23
BRANCH  22  28
ATOM     28  N   UNL     1      -1.560 -10.422  -4.151  0.00  0.00    +0.382 N 
ATOM     29  C   UNL     1      -1.579 -10.915  -5.534  0.00  0.00    -0.096 C 
ATOM     30  C   UNL     1      -0.483 -11.092  -3.408  0.00  0.00    -0.096 C 
ATOM     31  H   UNL     1      -2.446 -10.620  -3.711  0.00  0.00    -0.082 HD
ENDBRANCH  22  28
ENDBRANCH  21  22
ENDBRANCH  19  21
ENDBRANCH   2  17
TORSDOF 7
