REMARK  Name = ZINC17851204
REMARK  6 active torsions:
REMARK  status: ('A' for Active; 'I' for Inactive)
REMARK    1  A    between atoms: C_1  and  C_2
REMARK    2  A    between atoms: C_2  and  C_4
REMARK    3  A    between atoms: C_2  and  N_14
REMARK    4  A    between atoms: C_7  and  S_10
REMARK    5  A    between atoms: S_10  and  N_13
REMARK    6  A    between atoms: C_15  and  C_17
REMARK                            x       y       z     vdW  Elec       q    Type
REMARK                         _______ _______ _______ _____ _____    ______ ____
ROOT
ATOM      1  N   UNL     1       1.362   1.593  -0.002  0.00  0.00    -0.304 N 
ATOM      2  C   UNL     1       2.318   0.933  -0.685  0.00  0.00    +0.251 C 
ATOM      3  O   UNL     1       2.041  -0.085  -1.292  0.00  0.00    -0.270 OA
ATOM      4  H   UNL     1       1.583   2.404   0.482  0.00  0.00    +0.150 HD
ENDROOT
BRANCH   2   5
ATOM      5  C   UNL     1       3.693   1.440  -0.695  0.00  0.00    +0.075 A 
ATOM      6  C   UNL     1       4.812   0.912  -1.323  0.00  0.00    +0.025 A 
ATOM      7  C   UNL     1       6.020   1.554  -1.208  0.00  0.00    -0.032 A 
ATOM      8  C   UNL     1       6.029   2.724  -0.442  0.00  0.00    +0.023 A 
ATOM      9  S   UNL     1       4.360   2.893   0.105  0.00  0.00    -0.083 S 
ATOM     10  C   UNL     1       7.224   3.529  -0.210  0.00  0.00    -0.008 A 
ATOM     11  C   UNL     1       7.298   4.522   0.759  0.00  0.00    +0.009 A 
ATOM     12  C   UNL     1       8.475   5.222   0.934  0.00  0.00    +0.001 A 
ATOM     13  C   UNL     1       9.572   4.939   0.139  0.00  0.00    +0.000 A 
ATOM     14  C   UNL     1       9.495   3.972  -0.847  0.00  0.00    +0.004 A 
ATOM     15  C   UNL     1       8.323   3.275  -1.047  0.00  0.00    -0.039 A 
ATOM     16  C   UNL     1       8.199   2.292  -2.176  0.00  0.00    +0.040 C 
ATOM     17  C   UNL     1       7.331   1.088  -1.829  0.00  0.00    +0.041 C 
ENDBRANCH   2   5
BRANCH   1  19
ATOM     18  C   UNL     1      -0.753   1.593  -1.232  0.00  0.00    +0.033 C 
ATOM     19  C   UNL     1      -0.013   1.086   0.008  0.00  0.00    +0.100 C 
BRANCH  19  20
ATOM     20  C   UNL     1      -0.718   1.572   1.248  0.00  0.00    -0.027 A 
ATOM     21  C   UNL     1      -0.511   2.861   1.700  0.00  0.00    +0.007 A 
ATOM     22  C   UNL     1      -1.161   3.309   2.835  0.00  0.00    +0.029 A 
ATOM     23  C   UNL     1      -2.011   2.463   3.523  0.00  0.00    +0.105 A 
ATOM     24  C   UNL     1      -2.215   1.172   3.073  0.00  0.00    +0.029 A 
ATOM     25  C   UNL     1      -1.568   0.726   1.936  0.00  0.00    +0.007 A 
BRANCH  23  26
ATOM     26  S   UNL     1      -2.835   3.031   4.973  0.00  0.00    +0.056 S 
ATOM     27  O   UNL     1      -2.900   4.447   4.875  0.00  0.00    -0.153 OA
ATOM     28  O   UNL     1      -3.995   2.224   5.124  0.00  0.00    -0.153 OA
BRANCH  26  29
ATOM     29  N   UNL     1      -1.851   2.690   6.261  0.00  0.00    -0.204 NA
ATOM     30  H   UNL     1      -1.868   3.257   7.048  0.00  0.00    +0.144 HD
ATOM     31  H   UNL     1      -1.258   1.923   6.228  0.00  0.00    +0.144 HD
ENDBRANCH  26  29
ENDBRANCH  23  26
ENDBRANCH  19  20
ENDBRANCH   1  19
TORSDOF 5
