REMARK  Name = ZINC43756890
REMARK  4 active torsions:
REMARK  status: ('A' for Active; 'I' for Inactive)
REMARK    1  A    between atoms: C_1  and  C_2
REMARK    2  A    between atoms: C_14  and  O_26
REMARK    3  A    between atoms: C_17  and  C_25
REMARK    4  A    between atoms: C_22  and  O_24
REMARK                            x       y       z     vdW  Elec       q    Type
REMARK                         _______ _______ _______ _____ _____    ______ ____
ROOT
ATOM      1  C   UNL     1       0.382   0.828   0.727  0.00  0.00    +0.014 C 
ATOM      2  C   UNL     1       0.162  -0.682   0.656  0.00  0.00    +0.001 C 
ATOM      3  C   UNL     1       0.980  -1.254  -0.511  0.00  0.00    +0.017 C 
ATOM      4  C   UNL     1       2.469  -0.956  -0.336  0.00  0.00    +0.075 C 
ATOM      5  C   UNL     1       2.905  -1.474   1.017  0.00  0.00    +0.134 C 
ATOM      6  O   UNL     1       3.871  -2.191   1.126  0.00  0.00    -0.297 OA
ATOM      7  C   UNL     1       2.098  -1.068   2.226  0.00  0.00    +0.078 C 
ATOM      8  C   UNL     1       0.613  -1.341   1.959  0.00  0.00    +0.005 C 
ATOM      9  C   UNL     1      -0.189  -0.830   3.155  0.00  0.00    +0.005 C 
ATOM     10  C   UNL     1      -1.690  -0.870   2.851  0.00  0.00    +0.007 C 
ATOM     11  C   UNL     1      -1.919  -1.713   1.607  0.00  0.00    +0.025 C 
ATOM     12  C   UNL     1      -1.307  -1.005   0.386  0.00  0.00    +0.075 C 
ATOM     13  C   UNL     1      -2.124   0.221   0.003  0.00  0.00    +0.036 C 
ATOM     14  C   UNL     1      -3.573  -0.180  -0.342  0.00  0.00    +0.012 C 
ATOM     15  C   UNL     1      -4.196  -0.835   0.867  0.00  0.00    -0.003 C 
ATOM     16  C   UNL     1      -3.347  -2.043   1.306  0.00  0.00    +0.003 C 
ATOM     17  C   UNL     1      -4.221  -2.648   2.412  0.00  0.00    +0.007 C 
ATOM     18  C   UNL     1      -5.644  -2.556   1.790  0.00  0.00    +0.032 C 
ATOM     19  C   UNL     1      -5.553  -1.526   0.634  0.00  0.00    +0.121 C 
ATOM     20  C   UNL     1      -4.409   0.190   1.980  0.00  0.00    +0.014 C 
ENDROOT
BRANCH  19  21
ATOM     21  O   UNL     1      -5.556  -2.187  -0.628  0.00  0.00    -0.391 OA
ATOM     22  H   UNL     1      -6.385  -2.641  -0.832  0.00  0.00    +0.210 HD
ENDBRANCH  19  21
BRANCH  12  23
ATOM     23  O   UNL     1      -1.364  -1.925  -0.718  0.00  0.00    -0.388 OA
ATOM     24  H   UNL     1      -2.261  -2.189  -0.964  0.00  0.00    +0.210 HD
ENDBRANCH  12  23
TORSDOF 2
