REMARK  Name = ZINC49105087
REMARK  7 active torsions:
REMARK  status: ('A' for Active; 'I' for Inactive)
REMARK    1  A    between atoms: C_1  and  C_2
REMARK    2  A    between atoms: C_2  and  C_3
REMARK    3  A    between atoms: C_3  and  C_4
REMARK    4  A    between atoms: C_4  and  C_6
REMARK    5  A    between atoms: C_4  and  N_18
REMARK    6  A    between atoms: N_8  and  C_9
REMARK    7  A    between atoms: N_8  and  C_10
REMARK                            x       y       z     vdW  Elec       q    Type
REMARK                         _______ _______ _______ _____ _____    ______ ____
ROOT
ATOM      1  C   UNL     1       0.532  -2.377   1.251  0.00  0.00    +0.160 C 
ENDROOT
BRANCH   1   2
ATOM      2  N   UNL     1       0.951  -3.211   0.121  0.00  0.00    -0.288 N 
ATOM      3  C   UNL     1       0.080  -3.492  -0.869  0.00  0.00    +0.298 C 
ATOM      4  O   UNL     1      -1.053  -3.053  -0.824  0.00  0.00    -0.253 OA
ATOM      5  N   UNL     1       0.465  -4.259  -1.908  0.00  0.00    -0.313 N 
ATOM      6  H   UNL     1       1.855  -3.561   0.085  0.00  0.00    +0.151 HD
ATOM      7  H   UNL     1       1.369  -4.609  -1.943  0.00  0.00    +0.146 HD
ATOM      8  H   UNL     1      -0.162  -4.460  -2.620  0.00  0.00    +0.146 HD
ENDBRANCH   1   2
BRANCH   1   9
ATOM      9  C   UNL     1       1.383  -2.696   2.453  0.00  0.00    +0.236 C 
ATOM     10  O   UNL     1       2.427  -3.297   2.314  0.00  0.00    -0.274 OA
ATOM     11  N   UNL     1       0.984  -2.313   3.682  0.00  0.00    -0.298 N 
ATOM     12  C   UNL     1       1.856  -2.535   4.838  0.00  0.00    +0.132 C 
BRANCH  11  13
ATOM     13  C   UNL     1      -0.323  -1.675   3.862  0.00  0.00    +0.098 C 
ATOM     14  C   UNL     1      -1.208  -2.567   4.748  0.00  0.00    +0.046 C 
ATOM     15  C   UNL     1      -2.452  -1.738   5.178  0.00  0.00    +0.168 C 
ATOM     16  S   UNL     1      -1.668  -0.107   5.523  0.00  0.00    -0.029 S 
ATOM     17  O   UNL     1      -2.467   0.920   4.951  0.00  0.00    -0.174 OA
ATOM     18  O   UNL     1      -1.324  -0.041   6.900  0.00  0.00    -0.174 OA
ATOM     19  C   UNL     1      -0.131  -0.292   4.531  0.00  0.00    +0.188 C 
ENDBRANCH  11  13
ENDBRANCH   1   9
BRANCH   1  20
ATOM     20  C   UNL     1       0.699  -0.901   0.884  0.00  0.00    +0.031 C 
BRANCH  20  22
ATOM     21  C   UNL     1      -0.097   0.931  -0.616  0.00  0.00    +0.004 C 
ATOM     22  C   UNL     1      -0.264  -0.545  -0.250  0.00  0.00    -0.001 C 
ENDBRANCH  20  22
ENDBRANCH   1  20
TORSDOF 5
