REMARK  Name = ZINC21230605
REMARK  7 active torsions:
REMARK  status: ('A' for Active; 'I' for Inactive)
REMARK    1  A    between atoms: C_1  and  C_2
REMARK    2  A    between atoms: C_2  and  C_3
REMARK    3  A    between atoms: C_2  and  C_4
REMARK    4  A    between atoms: C_4  and  C_6
REMARK    5  A    between atoms: C_4  and  S_12
REMARK    6  A    between atoms: S_12  and  C_13
REMARK    7  A    between atoms: C_15  and  C_22
REMARK                            x       y       z     vdW  Elec       q    Type
REMARK                         _______ _______ _______ _____ _____    ______ ____
ROOT
ATOM      1  C   UNL     1       3.110   3.580  -2.140  0.00  0.00    +0.110 A 
ATOM      2  C   UNL     1       3.923   3.163  -1.052  0.00  0.00    +0.047 A 
ATOM      3  C   UNL     1       3.659   2.163  -0.023  0.00  0.00    +0.001 A 
ATOM      4  C   UNL     1       4.603   1.934   0.921  0.00  0.00    +0.056 A 
ATOM      5  S   UNL     1       5.910   3.064   0.483  0.00  0.00    -0.076 S 
ATOM      6  C   UNL     1       5.169   3.813  -0.943  0.00  0.00    +0.113 A 
ATOM      7  N   UNL     1       5.537   4.743  -1.804  0.00  0.00    -0.228 NA
ATOM      8  C   UNL     1       4.743   5.081  -2.801  0.00  0.00    +0.223 A 
ATOM      9  N   UNL     1       3.560   4.517  -2.961  0.00  0.00    -0.228 NA
ENDROOT
BRANCH   3  10
ATOM     10  C   UNL     1       2.384   1.407  -0.014  0.00  0.00    -0.017 A 
ATOM     11  C   UNL     1       2.016   0.642  -1.119  0.00  0.00    +0.008 A 
ATOM     12  C   UNL     1       0.828  -0.060  -1.105  0.00  0.00    +0.001 A 
ATOM     13  C   UNL     1       0.003  -0.005   0.004  0.00  0.00    +0.000 A 
ATOM     14  C   UNL     1       0.362   0.753   1.104  0.00  0.00    +0.001 A 
ATOM     15  C   UNL     1       1.548   1.459   1.101  0.00  0.00    +0.008 A 
ENDBRANCH   3  10
BRANCH   1  16
ATOM     16  S   UNL     1       1.523   2.858  -2.396  0.00  0.00    -0.092 S 
BRANCH  16  17
ATOM     17  C   UNL     1       1.000   3.764  -3.873  0.00  0.00    +0.141 C 
BRANCH  17  18
ATOM     18  C   UNL     1      -0.317   3.215  -4.359  0.00  0.00    +0.234 C 
ATOM     19  O   UNL     1      -1.064   2.657  -3.584  0.00  0.00    -0.274 OA
ATOM     20  N   UNL     1      -0.663   3.343  -5.655  0.00  0.00    -0.239 N 
ATOM     21  C   UNL     1      -1.840   2.851  -6.090  0.00  0.00    +0.303 C 
ATOM     22  O   UNL     1      -2.589   2.292  -5.314  0.00  0.00    -0.253 OA
ATOM     23  N   UNL     1      -2.186   2.979  -7.386  0.00  0.00    -0.313 N 
ATOM     24  H   UNL     1       0.016   3.848  -6.358  0.00  0.00    +0.159 HD
ATOM     25  H   UNL     1      -3.147   2.578  -7.741  0.00  0.00    +0.146 HD
ATOM     26  H   UNL     1      -1.508   3.485  -8.089  0.00  0.00    +0.146 HD
ENDBRANCH  17  18
BRANCH  17  28
ATOM     27  C   UNL     1       0.396   6.013  -4.779  0.00  0.00    +0.009 C 
ATOM     28  C   UNL     1       0.838   5.247  -3.531  0.00  0.00    +0.005 C 
ATOM     29  C   UNL     1      -0.217   5.405  -2.435  0.00  0.00    +0.009 C 
ENDBRANCH  17  28
ENDBRANCH  16  17
ENDBRANCH   1  16
TORSDOF 5
