REMARK  Name = ZINC00042525
REMARK  3 active torsions:
REMARK  status: ('A' for Active; 'I' for Inactive)
REMARK    1  A    between atoms: C_3  and  C_9
REMARK    2  A    between atoms: C_10  and  C_11
REMARK    3  A    between atoms: C_10  and  C_13
REMARK                            x       y       z     vdW  Elec       q    Type
REMARK                         _______ _______ _______ _____ _____    ______ ____
ROOT
ATOM      1  C   UNL     1       2.406   3.940   0.000  0.00  0.00    +0.033 C 
ATOM      2  C   UNL     1       2.442   5.218   0.511  0.00  0.00    +0.114 C 
ENDROOT
BRANCH   1   5
ATOM      3  C   UNL     1      -1.252   3.168  -0.238  0.00  0.00    +0.020 A 
ATOM      4  C   UNL     1      -0.069   3.874  -0.214  0.00  0.00    +0.011 A 
ATOM      5  C   UNL     1       1.143   3.196  -0.027  0.00  0.00    -0.005 A 
ATOM      6  C   UNL     1       1.141   1.803   0.134  0.00  0.00    +0.050 A 
ATOM      7  C   UNL     1      -0.053   1.112   0.108  0.00  0.00    +0.040 A 
ATOM      8  C   UNL     1      -1.246   1.791  -0.083  0.00  0.00    +0.042 A 
ATOM      9 CL   UNL     1      -2.742   0.911  -0.122  0.00  0.00    -0.083 Cl
ATOM     10 CL   UNL     1       2.635   0.951   0.367  0.00  0.00    -0.083 Cl
ENDBRANCH   1   5
BRANCH   2  11
ATOM     11  C   UNL     1       3.672   6.019   0.404  0.00  0.00    +0.252 C 
ATOM     12  O   UNL     1       4.657   5.551  -0.135  0.00  0.00    -0.270 OA
ATOM     13  N   UNL     1       3.707   7.270   0.904  0.00  0.00    -0.325 N 
ATOM     14  H   UNL     1       2.921   7.643   1.334  0.00  0.00    +0.145 HD
ATOM     15  H   UNL     1       4.518   7.798   0.834  0.00  0.00    +0.145 HD
ENDBRANCH   2  11
BRANCH   2  16
ATOM     16  C   UNL     1       1.282   5.768   1.145  0.00  0.00    +0.104 C 
ATOM     17  N   UNL     1       0.362   6.204   1.649  0.00  0.00    -0.191 NA
ENDBRANCH   2  16
TORSDOF 3
