REMARK  Name = ZINC40457460
REMARK  3 active torsions:
REMARK  status: ('A' for Active; 'I' for Inactive)
REMARK    1  A    between atoms: C_9  and  C_12
REMARK    2  A    between atoms: N_14  and  N_15
REMARK    3  A    between atoms: C_16  and  C_18
REMARK                            x       y       z     vdW  Elec       q    Type
REMARK                         _______ _______ _______ _____ _____    ______ ____
ROOT
ATOM      1  C   UNL     1       4.898  -2.639  -0.071  0.00  0.00    +0.273 C 
ATOM      2  O   UNL     1       5.727  -1.999  -0.682  0.00  0.00    -0.270 OA
ATOM      3  N   UNL     1       5.143  -3.925   0.251  0.00  0.00    -0.231 N 
ATOM      4  H   UNL     1       4.479  -4.437   0.740  0.00  0.00    +0.173 HD
ENDROOT
BRANCH   1  13
ATOM      5  C   UNL     1      -0.017   1.378   0.010  0.00  0.00    +0.004 A 
ATOM      6  C   UNL     1       1.170   2.088   0.002  0.00  0.00    +0.004 A 
ATOM      7  C   UNL     1       2.378   1.418  -0.014  0.00  0.00    +0.049 A 
ATOM      8  C   UNL     1       2.404   0.031  -0.023  0.00  0.00    +0.163 A 
ATOM      9  C   UNL     1       1.212  -0.683  -0.013  0.00  0.00    +0.162 A 
ATOM     10  C   UNL     1       0.002  -0.004   0.002  0.00  0.00    +0.049 A 
ATOM     11  O   UNL     1       1.214  -2.044  -0.013  0.00  0.00    -0.484 OA
ATOM     12  C   UNL     1       2.434  -2.685  -0.404  0.00  0.00    +0.283 C 
ATOM     13  C   UNL     1       3.594  -1.997   0.328  0.00  0.00    +0.297 C 
ATOM     14  O   UNL     1       3.602  -0.615  -0.043  0.00  0.00    -0.472 OA
ENDBRANCH   1  13
BRANCH   3  15
ATOM     15  N   UNL     1       6.355  -4.522  -0.120  0.00  0.00    -0.234 N 
ATOM     16  C   UNL     1       6.599  -5.807   0.203  0.00  0.00    +0.232 C 
ATOM     17  O   UNL     1       5.770  -6.448   0.813  0.00  0.00    -0.274 OA
ATOM     18  H   UNL     1       7.018  -4.010  -0.608  0.00  0.00    +0.173 HD
BRANCH  16  19
ATOM     19  C   UNL     1       7.903  -6.449  -0.196  0.00  0.00    +0.080 C 
ATOM     20  C   UNL     1       7.926  -7.908   0.277  0.00  0.00    +0.017 C 
ATOM     21  C   UNL     1       9.322  -8.479   0.019  0.00  0.00    +0.027 C 
ATOM     22  C   UNL     1       9.746  -8.188  -1.390  0.00  0.00    -0.031 C 
ATOM     23  C   UNL     1       9.191  -7.295  -2.146  0.00  0.00    -0.030 C 
ATOM     24  C   UNL     1       8.041  -6.428  -1.720  0.00  0.00    +0.039 C 
ENDBRANCH  16  19
ENDBRANCH   3  15
TORSDOF 3
