REMARK  Name = ZINC37420540
REMARK  6 active torsions:
REMARK  status: ('A' for Active; 'I' for Inactive)
REMARK    1  A    between atoms: C_1  and  C_2
REMARK    2  A    between atoms: C_2  and  C_4
REMARK    3  A    between atoms: C_2  and  N_8
REMARK    4  A    between atoms: C_4  and  C_5
REMARK    5  A    between atoms: N_8  and  S_9
REMARK    6  A    between atoms: S_9  and  C_12
REMARK                            x       y       z     vdW  Elec       q    Type
REMARK                         _______ _______ _______ _____ _____    ______ ____
ROOT
ATOM      1  S   UNL     1      -0.114  -0.625   2.299  0.00  0.00    +0.034 S 
ATOM      2  O   UNL     1       0.691  -0.859   3.447  0.00  0.00    -0.158 OA
ATOM      3  O   UNL     1      -0.805   0.606   2.138  0.00  0.00    -0.158 OA
ENDROOT
BRANCH   1   4
ATOM      4  C   UNL     1      -1.247  -2.017   2.037  0.00  0.00    +0.170 C 
ATOM      5  C   UNL     1      -2.020  -1.817   0.723  0.00  0.00    +0.052 C 
ATOM      6  C   UNL     1      -3.202  -2.813   0.648  0.00  0.00    +0.168 C 
ATOM      7  S   UNL     1      -3.602  -3.098   2.421  0.00  0.00    -0.029 S 
ATOM      8  O   UNL     1      -3.378  -4.466   2.731  0.00  0.00    -0.174 OA
ATOM      9  O   UNL     1      -4.865  -2.513   2.709  0.00  0.00    -0.174 OA
ATOM     10  C   UNL     1      -2.278  -2.082   3.200  0.00  0.00    +0.193 C 
ENDBRANCH   1   4
BRANCH   1  11
ATOM     11  N   UNL     1       0.941  -0.689   1.024  0.00  0.00    -0.191 NA
ATOM     12  H   UNL     1       0.949   0.024   0.365  0.00  0.00    +0.148 HD
BRANCH  11  14
ATOM     13  C   UNL     1       1.257  -2.859  -0.058  0.00  0.00    +0.026 C 
ATOM     14  C   UNL     1       1.861  -1.821   0.889  0.00  0.00    +0.084 C 
BRANCH  14  15
ATOM     15  C   UNL     1       3.195  -1.329   0.324  0.00  0.00    +0.145 C 
BRANCH  15  16
ATOM     16  C   UNL     1       3.855  -0.412   1.320  0.00  0.00    +0.358 C 
ATOM     17  O   UNL     1       3.363  -0.256   2.425  0.00  0.00    -0.246 OA
ATOM     18  O   UNL     1       4.882   0.174   1.022  0.00  0.00    -0.246 OA
ENDBRANCH  15  16
ENDBRANCH  14  15
ENDBRANCH  11  14
ENDBRANCH   1  11
TORSDOF 5
