REMARK  Name = ZINC51734123
REMARK  5 active torsions:
REMARK  status: ('A' for Active; 'I' for Inactive)
REMARK    1  A    between atoms: C_1  and  C_2
REMARK    2  A    between atoms: C_7  and  C_10
REMARK    3  A    between atoms: C_11  and  C_13
REMARK    4  A    between atoms: C_13  and  C_14
REMARK    5  A    between atoms: C_14  and  N_16
REMARK                            x       y       z     vdW  Elec       q    Type
REMARK                         _______ _______ _______ _____ _____    ______ ____
ROOT
ATOM      1  C   UNL     1       0.122   1.614  -0.057  0.00  0.00    +0.007 C 
ATOM      2  C   UNL     1       0.108   0.085  -0.037  0.00  0.00    -0.011 C 
ATOM      3  C   UNL     1       0.796  -0.448  -1.296  0.00  0.00    +0.022 C 
ATOM      4  C   UNL     1       0.750  -1.979  -1.289  0.00  0.00    +0.108 C 
ATOM      5  N   UNL     1       1.333  -2.465  -0.031  0.00  0.00    -0.298 N 
ATOM      6  C   UNL     1       0.804  -1.947   1.239  0.00  0.00    +0.073 C 
ATOM      7  C   UNL     1       0.851  -0.416   1.204  0.00  0.00    +0.025 C 
ATOM      8  C   UNL     1      -0.640  -2.416   1.422  0.00  0.00    +0.028 C 
ATOM      9  C   UNL     1       2.333  -3.368  -0.041  0.00  0.00    +0.222 C 
ATOM     10  O   UNL     1       2.805  -3.761   1.005  0.00  0.00    -0.275 OA
ENDROOT
BRANCH   9  11
ATOM     11  C   UNL     1       2.864  -3.890  -1.351  0.00  0.00    +0.154 C 
BRANCH  11  12
ATOM     12  C   UNL     1       4.065  -4.763  -1.094  0.00  0.00    +0.055 C 
ATOM     13  S   UNL     1       4.478  -5.134   0.405  0.00  0.00    -0.040 S 
BRANCH  12  14
ATOM     14  N   UNL     1       4.792  -5.231  -2.129  0.00  0.00    -0.355 N 
ATOM     15  H   UNL     1       4.541  -5.005  -3.038  0.00  0.00    +0.143 HD
ATOM     16  H   UNL     1       5.565  -5.792  -1.964  0.00  0.00    +0.143 HD
ENDBRANCH  12  14
ENDBRANCH  11  12
ENDBRANCH   9  11
TORSDOF 3
