REMARK  Name = ZINC61882369
REMARK  7 active torsions:
REMARK  status: ('A' for Active; 'I' for Inactive)
REMARK    1  A    between atoms: C_1  and  C_2
REMARK    2  A    between atoms: C_2  and  C_3
REMARK    3  A    between atoms: C_3  and  C_5
REMARK    4  A    between atoms: C_3  and  N_10
REMARK    5  A    between atoms: N_10  and  S_11
REMARK    6  A    between atoms: S_11  and  C_14
REMARK    7  A    between atoms: C_18  and  N_21
REMARK                            x       y       z     vdW  Elec       q    Type
REMARK                         _______ _______ _______ _____ _____    ______ ____
ROOT
ATOM      1  S   UNL     1       2.572   1.245  -1.956  0.00  0.00    +0.060 S 
ATOM      2  O   UNL     1       1.796   2.328  -1.461  0.00  0.00    -0.153 OA
ATOM      3  O   UNL     1       3.975   1.158  -1.752  0.00  0.00    -0.153 OA
ENDROOT
BRANCH   1   4
ATOM      4  C   UNL     1       2.311   1.192  -3.697  0.00  0.00    +0.122 A 
ATOM      5  C   UNL     1       1.496   2.132  -4.302  0.00  0.00    +0.049 A 
ATOM      6  C   UNL     1       1.288   2.095  -5.670  0.00  0.00    +0.045 A 
ATOM      7  C   UNL     1       1.896   1.117  -6.436  0.00  0.00    +0.044 A 
ATOM      8  C   UNL     1       2.715   0.173  -5.832  0.00  0.00    +0.042 A 
ATOM      9  C   UNL     1       2.925   0.216  -4.458  0.00  0.00    +0.065 A 
ATOM     10 BR   UNL     1       4.046  -1.063  -3.631  0.00  0.00    -0.046 Br
ATOM     11 CL   UNL     1       0.264   3.276  -6.424  0.00  0.00    -0.083 Cl
BRANCH   8  12
ATOM     12  N   UNL     1       3.331  -0.816  -6.603  0.00  0.00    -0.357 N 
ATOM     13  H   UNL     1       3.186  -0.844  -7.562  0.00  0.00    +0.142 HD
ATOM     14  H   UNL     1       3.902  -1.476  -6.180  0.00  0.00    +0.142 HD
ENDBRANCH   8  12
ENDBRANCH   1   4
BRANCH   1  15
ATOM     15  N   UNL     1       1.915  -0.137  -1.321  0.00  0.00    -0.182 NA
ATOM     16  H   UNL     1       2.483  -0.781  -0.870  0.00  0.00    +0.149 HD
BRANCH  15  17
ATOM     17  C   UNL     1       0.476  -0.385  -1.438  0.00  0.00    +0.113 C 
BRANCH  17  18
ATOM     18  C   UNL     1       0.249  -1.679  -2.178  0.00  0.00    +0.008 A 
ATOM     19  C   UNL     1      -0.684  -1.973  -3.116  0.00  0.00    +0.013 A 
ATOM     20  C   UNL     1      -0.705  -3.241  -3.666  0.00  0.00    +0.008 A 
ATOM     21  C   UNL     1       0.207  -4.153  -3.250  0.00  0.00    +0.045 A 
ATOM     22  S   UNL     1       1.143  -3.219  -2.050  0.00  0.00    -0.100 S 
ENDBRANCH  17  18
BRANCH  17  24
ATOM     23  C   UNL     1      -0.025   0.874   0.661  0.00  0.00    +0.006 C 
ATOM     24  C   UNL     1      -0.141  -0.481  -0.042  0.00  0.00    +0.022 C 
ENDBRANCH  17  24
ENDBRANCH  15  17
ENDBRANCH   1  15
TORSDOF 6
