REMARK  Name = ZINC37963421
REMARK  4 active torsions:
REMARK  status: ('A' for Active; 'I' for Inactive)
REMARK    1  A    between atoms: C_1  and  C_2
REMARK    2  A    between atoms: C_2  and  C_21
REMARK    3  A    between atoms: C_5  and  C_12
REMARK    4  A    between atoms: C_5  and  N_15
REMARK                            x       y       z     vdW  Elec       q    Type
REMARK                         _______ _______ _______ _____ _____    ______ ____
ROOT
ATOM      1  C   UNL     1      -0.170   1.424  -0.482  0.00  0.00    +0.016 C 
ATOM      2  C   UNL     1      -0.088  -0.095  -0.321  0.00  0.00    -0.009 C 
ATOM      3  C   UNL     1       0.673  -0.687  -1.505  0.00  0.00    +0.014 C 
ATOM      4  C   UNL     1       0.934  -2.171  -1.219  0.00  0.00    +0.040 C 
ATOM      5  C   UNL     1       1.962  -2.271  -0.094  0.00  0.00    +0.149 C 
ATOM      6  C   UNL     1       1.548  -1.422   1.079  0.00  0.00    -0.013 A 
ATOM      7  C   UNL     1       0.610  -0.420   0.974  0.00  0.00    -0.036 A 
ATOM      8  C   UNL     1       0.278   0.331   2.094  0.00  0.00    +0.004 A 
ATOM      9  C   UNL     1       0.878   0.079   3.311  0.00  0.00    +0.000 A 
ATOM     10  C   UNL     1       1.817  -0.929   3.417  0.00  0.00    +0.000 A 
ATOM     11  C   UNL     1       2.150  -1.675   2.305  0.00  0.00    +0.006 A 
ATOM     12  C   UNL     1      -1.503  -0.675  -0.291  0.00  0.00    +0.016 C 
ENDROOT
BRANCH   5  13
ATOM     13  N   UNL     1       3.267  -1.812  -0.588  0.00  0.00    -0.287 NA
ATOM     14  C   UNL     1       4.279  -1.857   0.476  0.00  0.00    +0.066 C 
ATOM     15  C   UNL     1       5.606  -1.316  -0.061  0.00  0.00    -0.067 C 
ATOM     16  N   UNL     1       6.038  -2.129  -1.206  0.00  0.00    +0.381 N 
ATOM     17  C   UNL     1       5.029  -2.054  -2.271  0.00  0.00    -0.067 C 
ATOM     18  C   UNL     1       3.697  -2.601  -1.751  0.00  0.00    +0.066 C 
ATOM     19  H   UNL     1       6.919  -1.780  -1.553  0.00  0.00    -0.086 HD
ATOM     20  H   UNL     1       6.148  -3.088  -0.914  0.00  0.00    -0.086 HD
ENDBRANCH   5  13
BRANCH   5  21
ATOM     21  C   UNL     1       2.076  -3.708   0.348  0.00  0.00    +0.380 C 
ATOM     22  O   UNL     1       3.146  -4.287   0.268  0.00  0.00    -0.244 OA
ATOM     23  O   UNL     1       1.099  -4.290   0.786  0.00  0.00    -0.244 OA
ENDBRANCH   5  21
TORSDOF 2
