REMARK  Name = ZINC63772481
REMARK  6 active torsions:
REMARK  status: ('A' for Active; 'I' for Inactive)
REMARK    1  A    between atoms: N_9  and  C_10
REMARK    2  A    between atoms: C_12  and  O_25
REMARK    3  A    between atoms: C_14  and  O_24
REMARK    4  A    between atoms: C_16  and  O_23
REMARK    5  A    between atoms: C_18  and  C_21
REMARK    6  A    between atoms: C_21  and  O_22
REMARK                            x       y       z     vdW  Elec       q    Type
REMARK                         _______ _______ _______ _____ _____    ______ ____
ROOT
ATOM      1  C   UNL     1       4.881  -0.537  -0.048  0.00  0.00    +0.251 C 
ATOM      2  C   UNL     1       5.335  -0.185   1.371  0.00  0.00    +0.195 C 
ATOM      3  C   UNL     1       5.152  -1.408   2.275  0.00  0.00    +0.178 C 
ATOM      4  C   UNL     1       5.937  -2.585   1.689  0.00  0.00    +0.177 C 
ATOM      5  C   UNL     1       5.460  -2.845   0.258  0.00  0.00    +0.177 C 
ATOM      6  O   UNL     1       5.630  -1.659  -0.522  0.00  0.00    -0.346 OA
ENDROOT
BRANCH   1  15
ATOM      7  C   UNL     1       0.966  -2.926  -2.610  0.00  0.00    +0.001 A 
ATOM      8  C   UNL     1       2.295  -2.829  -2.999  0.00  0.00    +0.002 A 
ATOM      9  C   UNL     1       3.211  -2.164  -2.213  0.00  0.00    +0.026 A 
ATOM     10  C   UNL     1       2.801  -1.583  -1.017  0.00  0.00    +0.051 A 
ATOM     11  C   UNL     1       1.453  -1.684  -0.627  0.00  0.00    -0.000 A 
ATOM     12  C   UNL     1       0.542  -2.363  -1.440  0.00  0.00    +0.010 A 
ATOM     13  C   UNL     1       1.349  -0.982   0.654  0.00  0.00    +0.027 A 
ATOM     14  C   UNL     1       2.574  -0.522   0.951  0.00  0.00    +0.089 A 
ATOM     15  N   UNL     1       3.455  -0.871  -0.036  0.00  0.00    -0.318 N 
ENDBRANCH   1  15
BRANCH   4  16
ATOM     16  O   UNL     1       7.331  -2.272   1.680  0.00  0.00    -0.386 OA
ATOM     17  H   UNL     1       7.700  -2.092   2.555  0.00  0.00    +0.210 HD
ENDBRANCH   4  16
BRANCH   3  18
ATOM     18  O   UNL     1       5.639  -1.111   3.585  0.00  0.00    -0.386 OA
ATOM     19  H   UNL     1       5.554  -1.843   4.212  0.00  0.00    +0.210 HD
ENDBRANCH   3  18
BRANCH   2  20
ATOM     20  O   UNL     1       6.713   0.193   1.352  0.00  0.00    -0.385 OA
ATOM     21  H   UNL     1       7.068   0.430   2.219  0.00  0.00    +0.210 HD
ENDBRANCH   2  20
BRANCH   5  22
ATOM     22  C   UNL     1       6.281  -3.981  -0.356  0.00  0.00    +0.190 C 
BRANCH  22  23
ATOM     23  O   UNL     1       5.760  -4.301  -1.647  0.00  0.00    -0.392 OA
ATOM     24  H   UNL     1       6.233  -5.015  -2.096  0.00  0.00    +0.210 HD
ENDBRANCH  22  23
ENDBRANCH   5  22
TORSDOF 6
