REMARK  Name = ZINC67313252
REMARK  9 active torsions:
REMARK  status: ('A' for Active; 'I' for Inactive)
REMARK    1  A    between atoms: C_1  and  C_2
REMARK    2  A    between atoms: C_6  and  N_9
REMARK    3  A    between atoms: C_7  and  C_8
REMARK    4  A    between atoms: C_10  and  C_12
REMARK    5  A    between atoms: C_12  and  N_13
REMARK    6  A    between atoms: N_13  and  C_14
REMARK    7  A    between atoms: N_17  and  C_18
REMARK    8  A    between atoms: C_21  and  C_27
REMARK    9  A    between atoms: C_22  and  C_24
REMARK                            x       y       z     vdW  Elec       q    Type
REMARK                         _______ _______ _______ _____ _____    ______ ____
ROOT
ATOM      1  N   UNL     1      -0.666  -5.784   3.124  0.00  0.00    -0.280 N 
ATOM      2  C   UNL     1       0.650  -6.351   2.817  0.00  0.00    +0.134 C 
ATOM      3  C   UNL     1      -1.764  -6.563   3.071  0.00  0.00    +0.307 C 
ATOM      4  O   UNL     1      -2.856  -6.092   3.326  0.00  0.00    -0.252 OA
ATOM      5  N   UNL     1      -1.653  -7.863   2.735  0.00  0.00    -0.269 N 
ATOM      6  H   UNL     1      -0.776  -8.256   2.602  0.00  0.00    +0.156 HD
ENDROOT
BRANCH   5   7
ATOM      7  C   UNL     1      -2.802  -8.647   2.579  0.00  0.00    +0.036 A 
ATOM      8  C   UNL     1      -3.986  -8.065   2.140  0.00  0.00    +0.023 A 
ATOM      9  C   UNL     1      -5.123  -8.835   1.985  0.00  0.00    +0.006 A 
ATOM     10  C   UNL     1      -5.092 -10.186   2.264  0.00  0.00    -0.038 A 
ATOM     11  C   UNL     1      -3.908 -10.780   2.706  0.00  0.00    +0.041 A 
ATOM     12  C   UNL     1      -2.759 -10.004   2.858  0.00  0.00    +0.036 A 
ATOM     13  C   UNL     1      -6.335 -11.020   2.094  0.00  0.00    +0.044 C 
BRANCH  11  14
ATOM     14  C   UNL     1      -3.872 -12.227   3.006  0.00  0.00    +0.242 C 
ATOM     15  O   UNL     1      -4.838 -12.923   2.764  0.00  0.00    -0.270 OA
ATOM     16  N   UNL     1      -2.766 -12.775   3.548  0.00  0.00    -0.325 N 
ATOM     17  H   UNL     1      -1.994 -12.220   3.742  0.00  0.00    +0.145 HD
ATOM     18  H   UNL     1      -2.742 -13.724   3.745  0.00  0.00    +0.145 HD
ENDBRANCH  11  14
ENDBRANCH   5   7
BRANCH   1  19
ATOM     19  C   UNL     1      -0.787  -4.371   3.489  0.00  0.00    +0.205 C 
BRANCH  19  21
ATOM     20  N   UNL     1      -1.141  -2.210   2.338  0.00  0.00    -0.284 N 
ATOM     21  C   UNL     1      -1.002  -3.547   2.245  0.00  0.00    +0.235 C 
ATOM     22  O   UNL     1      -1.049  -4.088   1.161  0.00  0.00    -0.274 OA
ATOM     23  H   UNL     1      -1.018  -1.768   3.193  0.00  0.00    +0.155 HD
BRANCH  20  29
ATOM     24  C   UNL     1      -1.123   2.095  -0.037  0.00  0.00    +0.044 C 
ATOM     25  C   UNL     1      -1.467   0.629   0.024  0.00  0.00    -0.046 A 
ATOM     26  C   UNL     1      -2.104   0.024  -1.044  0.00  0.00    +0.004 A 
ATOM     27  C   UNL     1      -2.421  -1.321  -0.992  0.00  0.00    +0.002 A 
ATOM     28  C   UNL     1      -2.103  -2.064   0.128  0.00  0.00    +0.023 A 
ATOM     29  C   UNL     1      -1.464  -1.460   1.202  0.00  0.00    +0.037 A 
ATOM     30  C   UNL     1      -1.142  -0.110   1.145  0.00  0.00    -0.026 A 
ATOM     31  C   UNL     1      -0.443   0.549   2.306  0.00  0.00    +0.046 C 
ENDBRANCH  20  29
ENDBRANCH  19  21
ENDBRANCH   1  19
TORSDOF 5
