REMARK  Name = ZINC26760107
REMARK  5 active torsions:
REMARK  status: ('A' for Active; 'I' for Inactive)
REMARK    1  A    between atoms: C_1  and  C_2
REMARK    2  A    between atoms: C_5  and  S_11
REMARK    3  A    between atoms: C_7  and  C_8
REMARK    4  A    between atoms: S_11  and  N_14
REMARK    5  A    between atoms: N_14  and  C_15
REMARK                            x       y       z     vdW  Elec       q    Type
REMARK                         _______ _______ _______ _____ _____    ______ ____
ROOT
ATOM      1  S   UNL     1      -3.655  -2.949  -0.166  0.00  0.00    +0.059 S 
ATOM      2  O   UNL     1      -2.320  -3.392   0.040  0.00  0.00    -0.153 OA
ATOM      3  O   UNL     1      -4.742  -3.413   0.624  0.00  0.00    -0.153 OA
ENDROOT
BRANCH   1   8
ATOM      4  C   UNL     1      -3.609   3.070   0.374  0.00  0.00    +0.044 C 
ATOM      5  C   UNL     1      -3.617   1.569   0.239  0.00  0.00    -0.038 A 
ATOM      6  C   UNL     1      -4.781   0.861   0.456  0.00  0.00    +0.006 A 
ATOM      7  C   UNL     1      -4.790  -0.517   0.332  0.00  0.00    +0.029 A 
ATOM      8  C   UNL     1      -3.633  -1.194  -0.010  0.00  0.00    +0.106 A 
ATOM      9  C   UNL     1      -2.463  -0.498  -0.235  0.00  0.00    +0.041 A 
ATOM     10  C   UNL     1      -2.446   0.892  -0.106  0.00  0.00    +0.041 A 
BRANCH  10  11
ATOM     11  C   UNL     1      -1.195   1.644  -0.341  0.00  0.00    +0.242 C 
ATOM     12  O   UNL     1      -1.203   2.859  -0.318  0.00  0.00    -0.270 OA
ATOM     13  N   UNL     1      -0.046   0.982  -0.580  0.00  0.00    -0.325 N 
ATOM     14  H   UNL     1       0.885   1.542  -0.755  0.00  0.00    +0.145 HD
ATOM     15  H   UNL     1      -0.039  -0.117  -0.601  0.00  0.00    +0.145 HD
ENDBRANCH  10  11
ENDBRANCH   1   8
BRANCH   1  16
ATOM     16  N   UNL     1      -4.032  -3.296  -1.740  0.00  0.00    -0.182 NA
ATOM     17  H   UNL     1      -5.028  -3.697  -1.979  0.00  0.00    +0.149 HD
BRANCH  16  18
ATOM     18  C   UNL     1      -3.135  -2.872  -2.819  0.00  0.00    +0.113 C 
ATOM     19  C   UNL     1      -3.913  -2.012  -3.818  0.00  0.00    +0.066 C 
ATOM     20  C   UNL     1      -3.047  -1.829  -5.072  0.00  0.00    +0.231 C 
ATOM     21  O   UNL     1      -2.868  -3.106  -5.686  0.00  0.00    -0.492 OA
ATOM     22  C   UNL     1      -2.475  -4.140  -4.897  0.00  0.00    +0.125 A 
ATOM     23  C   UNL     1      -2.581  -4.087  -3.518  0.00  0.00    +0.013 A 
ATOM     24  C   UNL     1      -2.172  -5.167  -2.754  0.00  0.00    +0.009 A 
ATOM     25  C   UNL     1      -1.657  -6.296  -3.361  0.00  0.00    +0.001 A 
ATOM     26  C   UNL     1      -1.546  -6.350  -4.738  0.00  0.00    +0.004 A 
ATOM     27  C   UNL     1      -1.954  -5.277  -5.505  0.00  0.00    +0.046 A 
ENDBRANCH  16  18
ENDBRANCH   1  16
TORSDOF 4
