REMARK  Name = ZINC36742911
REMARK  4 active torsions:
REMARK  status: ('A' for Active; 'I' for Inactive)
REMARK    1  A    between atoms: C_3  and  S_8
REMARK    2  A    between atoms: S_8  and  N_11
REMARK    3  A    between atoms: N_11  and  C_12
REMARK    4  A    between atoms: C_17  and  N_18
REMARK                            x       y       z     vdW  Elec       q    Type
REMARK                         _______ _______ _______ _____ _____    ______ ____
ROOT
ATOM      1  N   UNL     1       4.327   2.556   1.555  0.00  0.00    -0.214 N 
ATOM      2  H   UNL     1       4.358   3.457   1.915  0.00  0.00    +0.174 HD
ENDROOT
BRANCH   1   3
ATOM      3  C   UNL     1       4.554   1.457   2.396  0.00  0.00    +0.072 A 
ATOM      4  C   UNL     1       5.221   0.341   1.915  0.00  0.00    +0.076 A 
ATOM      5  C   UNL     1       5.446  -0.746   2.745  0.00  0.00    +0.168 A 
ATOM      6  C   UNL     1       5.001  -0.718   4.064  0.00  0.00    +0.168 A 
ATOM      7  C   UNL     1       4.334   0.397   4.546  0.00  0.00    +0.074 A 
ATOM      8  C   UNL     1       4.114   1.488   3.718  0.00  0.00    +0.051 A 
ATOM      9  O   UNL     1       5.342  -1.896   4.665  0.00  0.00    -0.453 OA
ATOM     10  C   UNL     1       5.636  -2.806   3.588  0.00  0.00    +0.466 C 
ATOM     11  O   UNL     1       6.066  -1.942   2.519  0.00  0.00    -0.453 OA
BRANCH   8  12
ATOM     12  N   UNL     1       3.444   2.618   4.209  0.00  0.00    -0.356 N 
ATOM     13  H   UNL     1       3.287   3.379   3.628  0.00  0.00    +0.142 HD
ATOM     14  H   UNL     1       3.138   2.639   5.129  0.00  0.00    +0.142 HD
ENDBRANCH   8  12
ENDBRANCH   1   3
BRANCH   1  15
ATOM     15  S   UNL     1       4.006   2.317  -0.051  0.00  0.00    +0.072 S 
ATOM     16  O   UNL     1       5.056   1.506  -0.559  0.00  0.00    -0.150 OA
ATOM     17  O   UNL     1       3.695   3.592  -0.598  0.00  0.00    -0.150 OA
BRANCH  15  20
ATOM     18  C   UNL     1       0.146   1.224  -0.286  0.00  0.00    +0.003 A 
ATOM     19  C   UNL     1       1.302   1.979  -0.208  0.00  0.00    +0.029 A 
ATOM     20  C   UNL     1       2.533   1.355  -0.151  0.00  0.00    +0.110 A 
ATOM     21  C   UNL     1       2.610  -0.026  -0.172  0.00  0.00    +0.044 A 
ATOM     22  C   UNL     1       1.454  -0.781  -0.249  0.00  0.00    +0.020 A 
ATOM     23  C   UNL     1       0.222  -0.155  -0.306  0.00  0.00    +0.015 A 
ATOM     24 BR   UNL     1       1.558  -2.669  -0.279  0.00  0.00    -0.050 Br
ENDBRANCH  15  20
ENDBRANCH   1  15
TORSDOF 4
