REMARK  Name = ZINC55217705
REMARK  12 active torsions:
REMARK  status: ('A' for Active; 'I' for Inactive)
REMARK    1  A    between atoms: C_1  and  C_2
REMARK    2  A    between atoms: N_4  and  C_5
REMARK    3  A    between atoms: C_8  and  O_27
REMARK    4  A    between atoms: C_9  and  C_11
REMARK    5  A    between atoms: N_13  and  C_14
REMARK    6  A    between atoms: C_14  and  C_15
REMARK    7  A    between atoms: C_18  and  O_25
REMARK    8  A    between atoms: C_19  and  O_23
REMARK    9  A    between atoms: C_20  and  O_21
REMARK   10  A    between atoms: O_21  and  C_22
REMARK   11  A    between atoms: O_23  and  C_24
REMARK   12  A    between atoms: O_25  and  C_26
REMARK                            x       y       z     vdW  Elec       q    Type
REMARK                         _______ _______ _______ _____ _____    ______ ____
ROOT
ATOM      1  C   UNL     1      -3.736  -4.842  -0.376  0.00  0.00    +0.248 C 
ATOM      2  O   UNL     1      -3.763  -6.055  -0.461  0.00  0.00    -0.270 OA
ATOM      3  N   UNL     1      -4.887  -4.141  -0.373  0.00  0.00    -0.307 N 
ATOM      4  H   UNL     1      -4.866  -3.174  -0.306  0.00  0.00    +0.149 HD
ENDROOT
BRANCH   1   9
ATOM      5  C   UNL     1      -1.193  -2.091  -0.088  0.00  0.00    +0.034 A 
ATOM      6  C   UNL     1      -0.006  -2.818  -0.091  0.00  0.00    +0.027 A 
ATOM      7  C   UNL     1      -0.033  -4.194  -0.187  0.00  0.00    +0.048 A 
ATOM      8  C   UNL     1      -1.245  -4.863  -0.281  0.00  0.00    +0.129 A 
ATOM      9  C   UNL     1      -2.443  -4.138  -0.277  0.00  0.00    +0.080 A 
ATOM     10  C   UNL     1      -2.409  -2.745  -0.175  0.00  0.00    +0.040 A 
BRANCH   5  14
ATOM     11  C   UNL     1      -0.177   1.504  -0.566  0.00  0.00    +0.109 C 
ATOM     12  C   UNL     1      -0.161  -0.003  -0.582  0.00  0.00    +0.214 C 
ATOM     13  O   UNL     1       0.748  -0.594  -1.126  0.00  0.00    -0.276 OA
ATOM     14  N   UNL     1      -1.156  -0.694   0.009  0.00  0.00    -0.286 N 
ATOM     15  H   UNL     1      -1.847  -0.224   0.502  0.00  0.00    +0.155 HD
ENDBRANCH   5  14
BRANCH   8  16
ATOM     16  O   UNL     1      -1.269  -6.217  -0.375  0.00  0.00    -0.506 OA
ATOM     17  H   UNL     1      -1.310  -6.670   0.478  0.00  0.00    +0.292 HD
ENDBRANCH   8  16
ENDBRANCH   1   9
BRANCH   3  18
ATOM     18  C   UNL     1      -6.171  -4.841  -0.471  0.00  0.00    +0.143 C 
BRANCH  18  19
ATOM     19  C   UNL     1      -7.294  -3.836  -0.446  0.00  0.00    +0.015 A 
ATOM     20  C   UNL     1      -7.989  -3.607   0.727  0.00  0.00    +0.012 A 
ATOM     21  C   UNL     1      -9.019  -2.686   0.756  0.00  0.00    +0.050 A 
ATOM     22  C   UNL     1      -9.360  -1.988  -0.393  0.00  0.00    +0.165 A 
ATOM     23  C   UNL     1      -8.664  -2.216  -1.574  0.00  0.00    +0.204 A 
ATOM     24  C   UNL     1      -7.625  -3.138  -1.597  0.00  0.00    +0.170 A 
BRANCH  24  25
ATOM     25  O   UNL     1      -6.937  -3.361  -2.749  0.00  0.00    -0.491 OA
ATOM     26  C   UNL     1      -7.435  -4.382  -3.616  0.00  0.00    +0.277 C 
ENDBRANCH  24  25
BRANCH  23  27
ATOM     27  O   UNL     1      -8.995  -1.533  -2.704  0.00  0.00    -0.488 OA
ATOM     28  C   UNL     1      -8.327  -0.291  -2.931  0.00  0.00    +0.277 C 
ENDBRANCH  23  27
BRANCH  22  29
ATOM     29  O   UNL     1     -10.375  -1.084  -0.364  0.00  0.00    -0.491 OA
ATOM     30  C   UNL     1     -11.047  -0.902   0.884  0.00  0.00    +0.277 C 
ENDBRANCH  22  29
ENDBRANCH  18  19
ENDBRANCH   3  18
TORSDOF 8
