REMARK  Name = ZINC61888097
REMARK  5 active torsions:
REMARK  status: ('A' for Active; 'I' for Inactive)
REMARK    1  A    between atoms: C_4  and  S_8
REMARK    2  A    between atoms: S_8  and  N_11
REMARK    3  A    between atoms: N_11  and  C_12
REMARK    4  A    between atoms: C_17  and  C_19
REMARK    5  A    between atoms: N_20  and  O_21
REMARK                            x       y       z     vdW  Elec       q    Type
REMARK                         _______ _______ _______ _____ _____    ______ ____
ROOT
ATOM      1  N   UNL     1       4.583  -0.243  -1.391  0.00  0.00    -0.186 NA
ATOM      2  H   UNL     1       4.609  -0.901  -2.103  0.00  0.00    +0.148 HD
ENDROOT
BRANCH   1   3
ATOM      3  C   UNL     1       5.057   1.121  -1.636  0.00  0.00    +0.087 C 
ATOM      4  C   UNL     1       3.950   1.950  -2.311  0.00  0.00    +0.021 C 
ATOM      5  C   UNL     1       4.509   2.403  -3.676  0.00  0.00    +0.002 C 
ATOM      6  C   UNL     1       6.046   2.360  -3.490  0.00  0.00    +0.013 C 
ATOM      7  C   UNL     1       6.250   1.099  -2.613  0.00  0.00    +0.074 C 
BRANCH   7   8
ATOM      8  C   UNL     1       7.552   1.185  -1.858  0.00  0.00    +0.136 C 
ATOM      9  N   UNL     1       8.582   0.524  -2.270  0.00  0.00    -0.076 NA
ATOM     10  N   UNL     1       7.643   1.970  -0.730  0.00  0.00    -0.344 N 
ATOM     11  H   UNL     1       6.869   2.466  -0.421  0.00  0.00    +0.144 HD
ATOM     12  H   UNL     1       8.480   2.025  -0.244  0.00  0.00    +0.144 HD
BRANCH   9  13
ATOM     13  O   UNL     1       8.522  -0.194  -3.489  0.00  0.00    -0.408 OA
ATOM     14  H   UNL     1       9.341  -0.657  -3.713  0.00  0.00    +0.328 HD
ENDBRANCH   9  13
ENDBRANCH   7   8
ENDBRANCH   1   3
BRANCH   1  15
ATOM     15  S   UNL     1       4.004  -0.663   0.103  0.00  0.00    +0.060 S 
ATOM     16  O   UNL     1       3.696  -2.049   0.044  0.00  0.00    -0.153 OA
ATOM     17  O   UNL     1       3.039   0.318   0.454  0.00  0.00    -0.153 OA
BRANCH  15  21
ATOM     18  C   UNL     1       7.426  -0.223   3.035  0.00  0.00    +0.016 A 
ATOM     19  C   UNL     1       7.501  -1.159   2.022  0.00  0.00    +0.018 A 
ATOM     20  C   UNL     1       6.456  -1.294   1.126  0.00  0.00    +0.044 A 
ATOM     21  C   UNL     1       5.335  -0.492   1.245  0.00  0.00    +0.120 A 
ATOM     22  C   UNL     1       5.260   0.444   2.258  0.00  0.00    +0.045 A 
ATOM     23  C   UNL     1       6.306   0.580   3.154  0.00  0.00    +0.020 A 
ATOM     24 BR   UNL     1       6.203   1.861   4.541  0.00  0.00    -0.050 Br
ATOM     25 BR   UNL     1       6.559  -2.576  -0.261  0.00  0.00    -0.048 Br
ENDBRANCH  15  21
ENDBRANCH   1  15
TORSDOF 5
