REMARK  Name = ZINC54419959
REMARK  3 active torsions:
REMARK  status: ('A' for Active; 'I' for Inactive)
REMARK    1  A    between atoms: C_1  and  C_2
REMARK    2  A    between atoms: C_5  and  N_9
REMARK    3  A    between atoms: C_10  and  C_12
REMARK                            x       y       z     vdW  Elec       q    Type
REMARK                         _______ _______ _______ _____ _____    ______ ____
ROOT
ATOM      1  N   UNL     1       0.059  -4.171  -0.021  0.00  0.00    -0.278 N 
ATOM      2  C   UNL     1       0.265  -4.836  -1.175  0.00  0.00    +0.273 C 
ATOM      3  O   UNL     1       0.525  -4.222  -2.192  0.00  0.00    -0.268 OA
ATOM      4  H   UNL     1      -0.076  -4.662   0.804  0.00  0.00    +0.155 HD
ENDROOT
BRANCH   1   9
ATOM      5  C   UNL     1      -0.016   1.503   0.011  0.00  0.00    +0.044 C 
ATOM      6  C   UNL     1       0.004  -0.004   0.003  0.00  0.00    -0.048 A 
ATOM      7  C   UNL     1      -1.164  -0.708  -0.226  0.00  0.00    +0.020 A 
ATOM      8  C   UNL     1      -1.149  -2.090  -0.235  0.00  0.00    +0.040 A 
ATOM      9  C   UNL     1       0.041  -2.772  -0.013  0.00  0.00    +0.062 A 
ATOM     10  C   UNL     1       1.212  -2.061   0.217  0.00  0.00    +0.040 A 
ATOM     11  C   UNL     1       1.191  -0.679   0.219  0.00  0.00    +0.020 A 
ATOM     12 BR   UNL     1       2.835  -2.983   0.520  0.00  0.00    -0.048 Br
ATOM     13 BR   UNL     1      -2.747  -3.052  -0.548  0.00  0.00    -0.048 Br
ENDBRANCH   1   9
BRANCH   2  14
ATOM     14  C   UNL     1       0.176  -6.313  -1.204  0.00  0.00    +0.210 A 
ATOM     15  C   UNL     1       0.381  -7.164  -2.382  0.00  0.00    +0.192 A 
ATOM     16  N   UNL     1       0.220  -8.408  -2.023  0.00  0.00    -0.033 NA
ATOM     17  O   UNL     1      -0.087  -8.426  -0.640  0.00  0.00    -0.240 OA
ATOM     18  N   UNL     1      -0.094  -7.085  -0.184  0.00  0.00    -0.042 NA
ATOM     19  N   UNL     1       0.691  -6.721  -3.661  0.00  0.00    -0.339 N 
ATOM     20  H   UNL     1       0.791  -5.772  -3.834  0.00  0.00    +0.144 HD
ATOM     21  H   UNL     1       0.809  -7.361  -4.380  0.00  0.00    +0.144 HD
ENDBRANCH   2  14
TORSDOF 2
