REMARK  Name = ZINC32858336
REMARK  12 active torsions:
REMARK  status: ('A' for Active; 'I' for Inactive)
REMARK    1  A    between atoms: C_1  and  C_2
REMARK    2  A    between atoms: C_3  and  C_28
REMARK    3  A    between atoms: C_4  and  C_25
REMARK    4  A    between atoms: C_5  and  S_9
REMARK    5  A    between atoms: C_7  and  C_8
REMARK    6  A    between atoms: S_9  and  C_10
REMARK    7  A    between atoms: C_10  and  C_11
REMARK    8  A    between atoms: N_13  and  C_14
REMARK    9  A    between atoms: C_16  and  O_23
REMARK   10  A    between atoms: C_19  and  O_20
REMARK   11  A    between atoms: O_20  and  C_21
REMARK   12  A    between atoms: O_23  and  C_24
REMARK                            x       y       z     vdW  Elec       q    Type
REMARK                         _______ _______ _______ _____ _____    ______ ____
ROOT
ATOM      1  C   UNL     1       2.017   2.023   4.264  0.00  0.00    +0.171 C 
ENDROOT
BRANCH   1   2
ATOM      2  C   UNL     1       3.049   2.197   5.348  0.00  0.00    +0.228 C 
ATOM      3  O   UNL     1       2.715   2.586   6.447  0.00  0.00    -0.275 OA
ATOM      4  N   UNL     1       4.344   1.921   5.096  0.00  0.00    -0.282 N 
ATOM      5  H   UNL     1       4.637   1.500   4.123  0.00  0.00    +0.155 HD
BRANCH   4   6
ATOM      6  C   UNL     1       5.317   2.172   6.073  0.00  0.00    +0.079 A 
ATOM      7  C   UNL     1       5.014   2.001   7.415  0.00  0.00    +0.074 A 
ATOM      8  C   UNL     1       5.978   2.249   8.380  0.00  0.00    +0.140 A 
ATOM      9  C   UNL     1       7.246   2.668   8.002  0.00  0.00    +0.086 A 
ATOM     10  C   UNL     1       7.551   2.839   6.664  0.00  0.00    +0.071 A 
ATOM     11  C   UNL     1       6.592   2.587   5.697  0.00  0.00    +0.143 A 
ATOM     12 CL   UNL     1       8.452   2.977   9.212  0.00  0.00    -0.080 Cl
BRANCH  11  13
ATOM     13  O   UNL     1       6.894   2.751   4.380  0.00  0.00    -0.493 OA
ATOM     14  C   UNL     1       8.221   3.179   4.067  0.00  0.00    +0.277 C 
ENDBRANCH  11  13
BRANCH   8  15
ATOM     15  O   UNL     1       5.681   2.082   9.696  0.00  0.00    -0.494 OA
ATOM     16  C   UNL     1       4.356   1.649  10.013  0.00  0.00    +0.277 C 
ENDBRANCH   8  15
ENDBRANCH   4   6
ENDBRANCH   1   2
BRANCH   1  17
ATOM     17  S   UNL     1       0.385   2.470   4.908  0.00  0.00    -0.096 S 
BRANCH  17  22
ATOM     18  C   UNL     1      -2.872   1.465  -0.032  0.00  0.00    +0.046 C 
ATOM     19  C   UNL     1      -2.095   1.728   1.232  0.00  0.00    -0.026 A 
ATOM     20  C   UNL     1      -2.746   2.171   2.370  0.00  0.00    -0.031 A 
ATOM     21  C   UNL     1      -1.986   2.408   3.521  0.00  0.00    +0.071 A 
ATOM     22  C   UNL     1      -0.599   2.181   3.475  0.00  0.00    +0.110 A 
ATOM     23  N   UNL     1      -0.028   1.752   2.359  0.00  0.00    -0.245 NA
ATOM     24  C   UNL     1      -0.728   1.523   1.265  0.00  0.00    +0.043 A 
ATOM     25  C   UNL     1      -0.023   1.035   0.025  0.00  0.00    +0.066 C 
ATOM     26  C   UNL     1      -4.236   2.398   2.369  0.00  0.00    +0.045 C 
BRANCH  21  27
ATOM     27  C   UNL     1      -2.627   2.886   4.759  0.00  0.00    +0.244 C 
ATOM     28  O   UNL     1      -2.740   4.079   4.964  0.00  0.00    -0.270 OA
ATOM     29  N   UNL     1      -3.089   2.000   5.664  0.00  0.00    -0.325 N 
ATOM     30  H   UNL     1      -3.568   2.357   6.588  0.00  0.00    +0.145 HD
ATOM     31  H   UNL     1      -2.988   0.920   5.479  0.00  0.00    +0.145 HD
ENDBRANCH  21  27
ENDBRANCH  17  22
ENDBRANCH   1  17
TORSDOF 7
