REMARK  Name = ZINC53068010
REMARK  6 active torsions:
REMARK  status: ('A' for Active; 'I' for Inactive)
REMARK    1  A    between atoms: C_1  and  S_2
REMARK    2  A    between atoms: S_2  and  N_5
REMARK    3  A    between atoms: C_9  and  C_11
REMARK    4  A    between atoms: N_13  and  C_14
REMARK    5  A    between atoms: C_14  and  C_19
REMARK    6  A    between atoms: C_19  and  O_20
REMARK                            x       y       z     vdW  Elec       q    Type
REMARK                         _______ _______ _______ _____ _____    ______ ____
ROOT
ATOM      1  C   UNL     1       3.227   0.356  -0.754  0.00  0.00    +0.232 C 
ATOM      2  O   UNL     1       2.517   1.246  -0.337  0.00  0.00    -0.274 OA
ATOM      3  N   UNL     1       4.562   0.530  -0.810  0.00  0.00    -0.306 N 
ATOM      4  H   UNL     1       5.137  -0.207  -1.072  0.00  0.00    +0.149 HD
ENDROOT
BRANCH   1   9
ATOM      5  N   UNL     1       1.277  -1.100  -0.625  0.00  0.00    -0.170 NA
ATOM      6  C   UNL     1       0.293  -1.208  -1.718  0.00  0.00    +0.110 C 
ATOM      7  C   UNL     1       0.968  -0.515  -2.928  0.00  0.00    +0.019 C 
ATOM      8  C   UNL     1       2.449  -0.939  -2.744  0.00  0.00    +0.031 C 
ATOM      9  C   UNL     1       2.617  -0.944  -1.210  0.00  0.00    +0.165 C 
BRANCH   5  11
ATOM     10  C   UNL     1       0.877  -2.904   1.416  0.00  0.00    +0.215 C 
ATOM     11  S   UNL     1       0.929  -1.140   0.994  0.00  0.00    +0.030 S 
ATOM     12  O   UNL     1      -0.369  -0.573   1.100  0.00  0.00    -0.158 OA
ATOM     13  O   UNL     1       2.044  -0.520   1.619  0.00  0.00    -0.158 OA
ENDBRANCH   5  11
ENDBRANCH   1   9
BRANCH   3  14
ATOM     14  C   UNL     1       5.146   1.831  -0.475  0.00  0.00    +0.058 C 
ATOM     15  C   UNL     1       6.657   1.828  -0.786  0.00  0.00    +0.028 C 
ATOM     16  C   UNL     1       6.755   2.452  -2.200  0.00  0.00    +0.002 C 
ATOM     17  C   UNL     1       5.671   3.558  -2.161  0.00  0.00    +0.002 C 
ATOM     18  C   UNL     1       4.520   2.931  -1.349  0.00  0.00    +0.028 C 
BRANCH  14  19
ATOM     19  C   UNL     1       4.916   2.143   1.005  0.00  0.00    +0.181 C 
BRANCH  19  20
ATOM     20  O   UNL     1       5.494   1.109   1.805  0.00  0.00    -0.393 OA
ATOM     21  H   UNL     1       5.385   1.242   2.757  0.00  0.00    +0.209 HD
ENDBRANCH  19  20
ENDBRANCH  14  19
ENDBRANCH   3  14
TORSDOF 5
