REMARK  Name = ZINC46972613
REMARK  5 active torsions:
REMARK  status: ('A' for Active; 'I' for Inactive)
REMARK    1  A    between atoms: C_1  and  C_2
REMARK    2  A    between atoms: C_2  and  C_4
REMARK    3  A    between atoms: C_2  and  N_10
REMARK    4  A    between atoms: N_16  and  C_19
REMARK    5  A    between atoms: C_24  and  O_25
REMARK                            x       y       z     vdW  Elec       q    Type
REMARK                         _______ _______ _______ _____ _____    ______ ____
ROOT
ATOM      1  N   UNL     1      -1.370  -0.515   0.012  0.00  0.00    -0.294 N 
ATOM      2  C   UNL     1      -2.051  -0.643  -1.145  0.00  0.00    +0.303 C 
ATOM      3  O   UNL     1      -1.559  -0.253  -2.186  0.00  0.00    -0.253 OA
ATOM      4  N   UNL     1      -3.277  -1.203  -1.147  0.00  0.00    -0.283 N 
ATOM      5  C   UNL     1      -3.934  -1.569   0.115  0.00  0.00    +0.128 C 
ATOM      6  C   UNL     1      -5.305  -0.884   0.170  0.00  0.00    +0.124 C 
ATOM      7  N   UNL     1      -6.009  -1.139  -1.095  0.00  0.00    -0.324 N 
ATOM      8  C   UNL     1      -5.351  -0.773  -2.357  0.00  0.00    +0.124 C 
ATOM      9  C   UNL     1      -3.982  -1.453  -2.412  0.00  0.00    +0.128 C 
ATOM     10  H   UNL     1      -1.791  -0.760   0.851  0.00  0.00    +0.151 HD
ENDROOT
BRANCH   7  11
ATOM     11  C   UNL     1      -7.282  -1.720  -1.097  0.00  0.00    +0.072 A 
ATOM     12  C   UNL     1      -8.413  -0.919  -1.047  0.00  0.00    +0.027 A 
ATOM     13  C   UNL     1      -9.669  -1.495  -1.050  0.00  0.00    +0.002 A 
ATOM     14  C   UNL     1      -9.802  -2.870  -1.103  0.00  0.00    +0.004 A 
ATOM     15  C   UNL     1      -8.679  -3.676  -1.153  0.00  0.00    +0.047 A 
ATOM     16  C   UNL     1      -7.417  -3.106  -1.156  0.00  0.00    +0.138 A 
BRANCH  16  17
ATOM     17  O   UNL     1      -6.312  -3.897  -1.210  0.00  0.00    -0.505 OA
ATOM     18  H   UNL     1      -5.976  -4.164  -0.344  0.00  0.00    +0.292 HD
ENDBRANCH  16  17
ENDBRANCH   7  11
BRANCH   1  20
ATOM     19  C   UNL     1      -0.017   1.522   0.015  0.00  0.00    +0.030 C 
ATOM     20  C   UNL     1       0.004  -0.008   0.001  0.00  0.00    +0.100 C 
BRANCH  20  21
ATOM     21  C   UNL     1       0.746  -0.519   1.237  0.00  0.00    +0.138 C 
ATOM     22  C   UNL     1       2.228  -0.068   1.200  0.00  0.00    +0.035 C 
ATOM     23  C   UNL     1       2.583  -0.094   2.711  0.00  0.00    +0.031 C 
ATOM     24  C   UNL     1       1.252   0.335   3.367  0.00  0.00    +0.160 C 
ATOM     25  O   UNL     1       0.202   0.075   2.427  0.00  0.00    -0.375 OA
ENDBRANCH  20  21
ENDBRANCH   1  20
TORSDOF 4
