REMARK  Name = ZINC06242586
REMARK  8 active torsions:
REMARK  status: ('A' for Active; 'I' for Inactive)
REMARK    1  A    between atoms: C_3  and  S_26
REMARK    2  A    between atoms: C_6  and  C_7
REMARK    3  A    between atoms: C_10  and  C_12
REMARK    4  A    between atoms: C_13  and  C_14
REMARK    5  A    between atoms: C_13  and  C_16
REMARK    6  A    between atoms: N_18  and  C_19
REMARK    7  A    between atoms: C_19  and  C_20
REMARK    8  A    between atoms: S_26  and  N_29
REMARK                            x       y       z     vdW  Elec       q    Type
REMARK                         _______ _______ _______ _____ _____    ______ ____
ROOT
ATOM      1  C   UNL     1      -6.534   4.460   5.188  0.00  0.00    +0.136 A 
ATOM      2  C   UNL     1      -6.769   4.389   6.545  0.00  0.00    +0.050 A 
ATOM      3  C   UNL     1      -5.527   4.436   7.177  0.00  0.00    +0.050 A 
ATOM      4  C   UNL     1      -4.571   4.535   6.176  0.00  0.00    +0.130 A 
ATOM      5  O   UNL     1      -5.209   4.553   4.986  0.00  0.00    -0.455 OA
ENDROOT
BRANCH   1  11
ATOM      6  C   UNL     1      -8.918   4.344   4.476  0.00  0.00    +0.013 A 
ATOM      7  C   UNL     1      -9.878   4.334   3.486  0.00  0.00    +0.029 A 
ATOM      8  C   UNL     1      -9.505   4.412   2.156  0.00  0.00    +0.105 A 
ATOM      9  C   UNL     1      -8.169   4.507   1.809  0.00  0.00    +0.029 A 
ATOM     10  C   UNL     1      -7.198   4.523   2.788  0.00  0.00    +0.013 A 
ATOM     11  C   UNL     1      -7.567   4.444   4.134  0.00  0.00    +0.017 A 
BRANCH   8  12
ATOM     12  S   UNL     1     -10.738   4.391   0.897  0.00  0.00    +0.056 S 
ATOM     13  O   UNL     1     -11.942   4.847   1.500  0.00  0.00    -0.153 OA
ATOM     14  O   UNL     1     -10.169   5.025  -0.240  0.00  0.00    -0.153 OA
BRANCH  12  15
ATOM     15  N   UNL     1     -10.987   2.808   0.482  0.00  0.00    -0.204 NA
ATOM     16  H   UNL     1     -11.858   2.520   0.166  0.00  0.00    +0.144 HD
ATOM     17  H   UNL     1     -10.261   2.168   0.554  0.00  0.00    +0.144 HD
ENDBRANCH  12  15
ENDBRANCH   8  12
ENDBRANCH   1  11
BRANCH   4  18
ATOM     18  C   UNL     1      -3.182   4.609   6.367  0.00  0.00    +0.070 C 
ATOM     19  C   UNL     1      -2.326   3.929   5.512  0.00  0.00    +0.117 C 
BRANCH  19  20
ATOM     20  C   UNL     1      -2.867   2.961   4.550  0.00  0.00    +0.255 C 
ATOM     21  O   UNL     1      -4.047   2.667   4.580  0.00  0.00    -0.269 OA
ATOM     22  N   UNL     1      -2.056   2.399   3.631  0.00  0.00    -0.308 N 
ATOM     23  H   UNL     1      -1.115   2.634   3.607  0.00  0.00    +0.149 HD
BRANCH  22  24
ATOM     24  C   UNL     1      -2.596   1.434   2.671  0.00  0.00    +0.136 C 
BRANCH  24  25
ATOM     25  C   UNL     1      -1.474   0.952   1.748  0.00  0.00    +0.135 C 
ATOM     26  C   UNL     1      -2.039   0.025   0.641  0.00  0.00    +0.035 C 
ATOM     27  C   UNL     1      -0.799  -0.820   0.262  0.00  0.00    +0.031 C 
ATOM     28  C   UNL     1       0.131  -0.696   1.485  0.00  0.00    +0.160 C 
ATOM     29  O   UNL     1      -0.553   0.101   2.466  0.00  0.00    -0.375 OA
ENDBRANCH  24  25
ENDBRANCH  22  24
ENDBRANCH  19  20
BRANCH  19  30
ATOM     30  C   UNL     1      -0.916   4.170   5.569  0.00  0.00    +0.104 C 
ATOM     31  N   UNL     1       0.203   4.362   5.615  0.00  0.00    -0.191 NA
ENDBRANCH  19  30
ENDBRANCH   4  18
TORSDOF 8
