REMARK  Name = ZINC37055662
REMARK  8 active torsions:
REMARK  status: ('A' for Active; 'I' for Inactive)
REMARK    1  A    between atoms: C_1  and  C_2
REMARK    2  A    between atoms: C_2  and  C_3
REMARK    3  A    between atoms: C_6  and  S_10
REMARK    4  A    between atoms: C_8  and  N_9
REMARK    5  A    between atoms: S_10  and  N_13
REMARK    6  A    between atoms: N_13  and  C_14
REMARK    7  A    between atoms: C_17  and  C_21
REMARK    8  A    between atoms: C_19  and  C_20
REMARK                            x       y       z     vdW  Elec       q    Type
REMARK                         _______ _______ _______ _____ _____    ______ ____
ROOT
ATOM      1  S   UNL     1      -5.744  -2.148  -0.002  0.00  0.00    +0.072 S 
ATOM      2  O   UNL     1      -6.079  -2.679  -1.277  0.00  0.00    -0.150 OA
ATOM      3  O   UNL     1      -5.866  -2.905   1.194  0.00  0.00    -0.150 OA
ENDROOT
BRANCH   1   7
ATOM      4  C   UNL     1      -1.421  -0.811  -0.242  0.00  0.00    -0.027 A 
ATOM      5  C   UNL     1      -1.983  -1.124   0.980  0.00  0.00    +0.007 A 
ATOM      6  C   UNL     1      -3.302  -1.532   1.052  0.00  0.00    +0.029 A 
ATOM      7  C   UNL     1      -4.063  -1.627  -0.099  0.00  0.00    +0.110 A 
ATOM      8  C   UNL     1      -3.508  -1.315  -1.324  0.00  0.00    +0.051 A 
ATOM      9  C   UNL     1      -2.184  -0.900  -1.399  0.00  0.00    +0.030 A 
BRANCH   9  10
ATOM     10  N   UNL     1      -1.620  -0.579  -2.636  0.00  0.00    -0.358 N 
ATOM     11  H   UNL     1      -0.695  -0.293  -2.688  0.00  0.00    +0.142 HD
ATOM     12  H   UNL     1      -2.154  -0.641  -3.443  0.00  0.00    +0.142 HD
ENDBRANCH   9  10
BRANCH   4  14
ATOM     13  C   UNL     1       0.081   1.161  -0.303  0.00  0.00    +0.009 C 
ATOM     14  C   UNL     1       0.018  -0.367  -0.320  0.00  0.00    +0.033 C 
ENDBRANCH   4  14
ENDBRANCH   1   7
BRANCH   1  15
ATOM     15  N   UNL     1      -6.667  -0.788   0.202  0.00  0.00    -0.216 N 
ATOM     16  H   UNL     1      -7.216  -0.690   0.996  0.00  0.00    +0.174 HD
BRANCH  15  17
ATOM     17  C   UNL     1      -6.654   0.216  -0.768  0.00  0.00    +0.051 A 
ATOM     18  C   UNL     1      -6.545  -0.116  -2.113  0.00  0.00    +0.025 A 
ATOM     19  C   UNL     1      -6.533   0.880  -3.069  0.00  0.00    +0.005 A 
ATOM     20  C   UNL     1      -6.629   2.207  -2.690  0.00  0.00    -0.050 A 
ATOM     21  C   UNL     1      -6.737   2.541  -1.353  0.00  0.00    +0.008 A 
ATOM     22  C   UNL     1      -6.756   1.549  -0.391  0.00  0.00    -0.028 A 
ATOM     23  C   UNL     1      -6.880   1.914   1.066  0.00  0.00    +0.046 C 
ATOM     24  C   UNL     1      -6.616   3.291  -3.737  0.00  0.00    +0.044 C 
ENDBRANCH  15  17
ENDBRANCH   1  15
TORSDOF 5
