REMARK  Name = ZINC16693870
REMARK  7 active torsions:
REMARK  status: ('A' for Active; 'I' for Inactive)
REMARK    1  A    between atoms: C_1  and  C_2
REMARK    2  A    between atoms: C_3  and  C_34
REMARK    3  A    between atoms: N_6  and  C_27
REMARK    4  A    between atoms: C_10  and  N_11
REMARK    5  A    between atoms: N_11  and  C_12
REMARK    6  A    between atoms: C_17  and  N_18
REMARK    7  A    between atoms: C_27  and  C_28
REMARK                            x       y       z     vdW  Elec       q    Type
REMARK                         _______ _______ _______ _____ _____    ______ ____
ROOT
ATOM      1  C   UNL     1       0.214   1.528   0.033  0.00  0.00    +0.046 C 
ATOM      2  C   UNL     1       0.266   0.022   0.019  0.00  0.00    -0.015 C 
ATOM      3  C   UNL     1       0.327  -0.672  -1.181  0.00  0.00    +0.118 C 
ATOM      4  C   UNL     1       0.378  -2.135  -1.167  0.00  0.00    +0.264 C 
ATOM      5  O   UNL     1       0.431  -2.745  -2.219  0.00  0.00    -0.269 OA
ATOM      6  N   UNL     1       0.366  -2.814  -0.006  0.00  0.00    -0.229 N 
ATOM      7  C   UNL     1       0.308  -2.176   1.177  0.00  0.00    +0.255 C 
ATOM      8  O   UNL     1       0.299  -2.818   2.211  0.00  0.00    -0.269 OA
ATOM      9  C   UNL     1       0.260  -0.709   1.228  0.00  0.00    +0.055 C 
ATOM     10  C   UNL     1       0.205  -0.048   2.451  0.00  0.00    +0.085 C 
ENDROOT
BRANCH  10  11
ATOM     11  N   UNL     1       0.063  -0.750   3.590  0.00  0.00    -0.318 N 
ATOM     12  H   UNL     1       0.073  -1.720   3.566  0.00  0.00    +0.152 HD
BRANCH  11  13
ATOM     13  C   UNL     1      -0.100  -0.082   4.807  0.00  0.00    +0.064 A 
ATOM     14  C   UNL     1      -0.229   1.300   4.828  0.00  0.00    +0.053 A 
ATOM     15  C   UNL     1      -0.390   1.958   6.036  0.00  0.00    +0.069 A 
ATOM     16  C   UNL     1      -0.422   1.230   7.228  0.00  0.00    +0.069 A 
ATOM     17  C   UNL     1      -0.293  -0.150   7.201  0.00  0.00    +0.062 A 
ATOM     18  C   UNL     1      -0.138  -0.804   5.995  0.00  0.00    +0.149 A 
ATOM     19  N   UNL     1      -0.593   2.154   8.258  0.00  0.00    -0.306 N 
ATOM     20  H   UNL     1      -0.652   1.945   9.204  0.00  0.00    +0.170 HD
ATOM     21  C   UNL     1      -0.661   3.385   7.718  0.00  0.00    +0.325 A 
ATOM     22  O   UNL     1      -0.808   4.418   8.344  0.00  0.00    -0.247 OA
ATOM     23  N   UNL     1      -0.542   3.300   6.379  0.00  0.00    -0.306 N 
ATOM     24  H   UNL     1      -0.559   4.046   5.760  0.00  0.00    +0.170 HD
BRANCH  18  25
ATOM     25  N   UNL     1      -0.007  -2.278   5.967  0.00  0.00    +0.058 N 
ATOM     26  O   UNL     1      -0.526  -2.915   5.080  0.00  0.00    -0.126 OA
ATOM     27  O   UNL     1       0.620  -2.846   6.831  0.00  0.00    -0.126 OA
ENDBRANCH  18  25
ENDBRANCH  11  13
ENDBRANCH  10  11
BRANCH   3  28
ATOM     28  C   UNL     1       0.340   0.037  -2.424  0.00  0.00    +0.105 C 
ATOM     29  N   UNL     1       0.350   0.600  -3.411  0.00  0.00    -0.191 NA
ENDBRANCH   3  28
BRANCH   6  30
ATOM     30  C   UNL     1       0.418  -4.278  -0.030  0.00  0.00    +0.152 C 
BRANCH  30  31
ATOM     31  C   UNL     1       1.855  -4.730   0.005  0.00  0.00    -0.030 A 
ATOM     32  C   UNL     1       2.551  -4.911  -1.176  0.00  0.00    +0.005 A 
ATOM     33  C   UNL     1       3.870  -5.326  -1.144  0.00  0.00    +0.000 A 
ATOM     34  C   UNL     1       4.492  -5.560   0.068  0.00  0.00    +0.000 A 
ATOM     35  C   UNL     1       3.796  -5.378   1.249  0.00  0.00    +0.000 A 
ATOM     36  C   UNL     1       2.479  -4.958   1.217  0.00  0.00    +0.005 A 
ENDBRANCH  30  31
ENDBRANCH   6  30
TORSDOF 6
