REMARK  Name = ZINC59385429
REMARK  5 active torsions:
REMARK  status: ('A' for Active; 'I' for Inactive)
REMARK    1  A    between atoms: C_1  and  C_2
REMARK    2  A    between atoms: C_3  and  C_16
REMARK    3  A    between atoms: C_4  and  C_10
REMARK    4  A    between atoms: N_18  and  N_19
REMARK    5  A    between atoms: C_20  and  C_21
REMARK                            x       y       z     vdW  Elec       q    Type
REMARK                         _______ _______ _______ _____ _____    ______ ____
ROOT
ATOM      1  C   UNL     1       0.654   1.352   0.048  0.00  0.00    +0.061 C 
ATOM      2  C   UNL     1       0.363  -0.126   0.026  0.00  0.00    +0.019 C 
ATOM      3  C   UNL     1      -0.916  -0.550  -0.037  0.00  0.00    +0.057 C 
ATOM      4  C   UNL     1      -1.165  -2.045  -0.058  0.00  0.00    +0.142 C 
ATOM      5  N   UNL     1       0.019  -2.918  -0.006  0.00  0.00    -0.288 N 
ATOM      6  C   UNL     1       1.238  -2.345   0.055  0.00  0.00    +0.304 C 
ATOM      7  O   UNL     1       2.221  -3.058   0.098  0.00  0.00    -0.252 OA
ATOM      8  N   UNL     1       1.400  -1.016   0.065  0.00  0.00    -0.273 N 
ATOM      9  H   UNL     1      -0.075  -3.884  -0.016  0.00  0.00    +0.151 HD
ATOM     10  H   UNL     1       2.303  -0.665   0.105  0.00  0.00    +0.156 HD
ENDROOT
BRANCH   4  11
ATOM     11  C   UNL     1      -1.928  -2.372  -1.315  0.00  0.00    -0.023 A 
ATOM     12  C   UNL     1      -1.283  -2.362  -2.538  0.00  0.00    +0.006 A 
ATOM     13  C   UNL     1      -1.983  -2.663  -3.691  0.00  0.00    +0.000 A 
ATOM     14  C   UNL     1      -3.329  -2.972  -3.622  0.00  0.00    +0.000 A 
ATOM     15  C   UNL     1      -3.974  -2.982  -2.399  0.00  0.00    +0.000 A 
ATOM     16  C   UNL     1      -3.272  -2.686  -1.245  0.00  0.00    +0.006 A 
ENDBRANCH   4  11
BRANCH   3  17
ATOM     17  C   UNL     1      -1.991   0.371  -0.083  0.00  0.00    +0.263 C 
ATOM     18  O   UNL     1      -2.655   0.582   0.916  0.00  0.00    -0.269 OA
ATOM     19  N   UNL     1      -2.279   1.015  -1.232  0.00  0.00    -0.203 N 
ATOM     20  H   UNL     1      -1.799   0.793  -2.045  0.00  0.00    +0.178 HD
BRANCH  19  21
ATOM     21  N   UNL     1      -3.271   2.004  -1.251  0.00  0.00    -0.187 NA
ATOM     22  C   UNL     1      -3.548   2.624  -2.357  0.00  0.00    +0.139 C 
BRANCH  22  23
ATOM     23  C   UNL     1      -4.593   3.664  -2.378  0.00  0.00    +0.013 A 
ATOM     24  C   UNL     1      -4.897   4.329  -3.568  0.00  0.00    +0.012 A 
ATOM     25  C   UNL     1      -5.875   5.302  -3.580  0.00  0.00    +0.021 A 
ATOM     26  C   UNL     1      -6.554   5.621  -2.416  0.00  0.00    +0.042 A 
ATOM     27  C   UNL     1      -6.258   4.966  -1.233  0.00  0.00    +0.040 A 
ATOM     28  C   UNL     1      -5.286   3.986  -1.207  0.00  0.00    +0.051 A 
ATOM     29 CL   UNL     1      -4.920   3.162   0.276  0.00  0.00    -0.083 Cl
ATOM     30 CL   UNL     1      -7.783   6.847  -2.441  0.00  0.00    -0.083 Cl
ENDBRANCH  22  23
ENDBRANCH  19  21
ENDBRANCH   3  17
TORSDOF 4
