REMARK  Name = ZINC07875678
REMARK  7 active torsions:
REMARK  status: ('A' for Active; 'I' for Inactive)
REMARK    1  A    between atoms: C_1  and  C_2
REMARK    2  A    between atoms: C_2  and  C_4
REMARK    3  A    between atoms: C_2  and  N_11
REMARK    4  A    between atoms: C_12  and  C_14
REMARK    5  A    between atoms: C_14  and  N_15
REMARK    6  A    between atoms: C_17  and  C_20
REMARK    7  A    between atoms: C_23  and  C_26
REMARK                            x       y       z     vdW  Elec       q    Type
REMARK                         _______ _______ _______ _____ _____    ______ ____
ROOT
ATOM      1  N   UNL     1       4.223  -1.127   2.126  0.00  0.00    -0.154 N 
ATOM      2  N   UNL     1       4.869  -2.127   1.632  0.00  0.00    -0.130 NA
ATOM      3  C   UNL     1       6.138  -1.779   1.537  0.00  0.00    +0.205 A 
ATOM      4  N   UNL     1       6.227  -0.522   1.996  0.00  0.00    -0.108 NA
ATOM      5  N   UNL     1       5.039  -0.156   2.342  0.00  0.00    -0.045 NA
ENDROOT
BRANCH   3   6
ATOM      6  C   UNL     1       7.249  -2.615   1.022  0.00  0.00    +0.023 A 
ATOM      7  C   UNL     1       6.996  -3.911   0.571  0.00  0.00    +0.012 A 
ATOM      8  C   UNL     1       8.027  -4.688   0.093  0.00  0.00    +0.014 A 
ATOM      9  C   UNL     1       9.327  -4.178   0.059  0.00  0.00    +0.037 A 
ATOM     10  C   UNL     1       9.580  -2.881   0.510  0.00  0.00    +0.014 A 
ATOM     11  C   UNL     1       8.546  -2.104   0.983  0.00  0.00    +0.012 A 
BRANCH   9  12
ATOM     12  C   UNL     1      10.434  -5.011  -0.454  0.00  0.00    +0.242 C 
ATOM     13  O   UNL     1      10.214  -6.141  -0.846  0.00  0.00    -0.270 OA
ATOM     14  N   UNL     1      11.689  -4.519  -0.486  0.00  0.00    -0.325 N 
ATOM     15  H   UNL     1      11.864  -3.618  -0.173  0.00  0.00    +0.145 HD
ATOM     16  H   UNL     1      12.416  -5.066  -0.823  0.00  0.00    +0.145 HD
ENDBRANCH   9  12
ENDBRANCH   3   6
BRANCH   1  17
ATOM     17  C   UNL     1       2.783  -1.099   2.395  0.00  0.00    +0.263 C 
BRANCH  17  19
ATOM     18  N   UNL     1       0.711  -0.489   1.189  0.00  0.00    -0.307 N 
ATOM     19  C   UNL     1       2.054  -0.600   1.174  0.00  0.00    +0.237 C 
ATOM     20  O   UNL     1       2.676  -0.297   0.177  0.00  0.00    -0.274 OA
ATOM     21  H   UNL     1       0.213  -0.731   1.986  0.00  0.00    +0.149 HD
BRANCH  18  23
ATOM     22  C   UNL     1      -0.019   1.526   0.010  0.00  0.00    +0.033 C 
ATOM     23  C   UNL     1       0.002  -0.004   0.002  0.00  0.00    +0.102 C 
BRANCH  23  24
ATOM     24  C   UNL     1      -1.412  -0.526   0.013  0.00  0.00    -0.009 A 
ATOM     25  C   UNL     1      -2.015  -0.864   1.210  0.00  0.00    +0.007 A 
ATOM     26  C   UNL     1      -3.312  -1.342   1.220  0.00  0.00    +0.000 A 
ATOM     27  C   UNL     1      -4.006  -1.483   0.033  0.00  0.00    +0.001 A 
ATOM     28  C   UNL     1      -3.404  -1.145  -1.165  0.00  0.00    +0.020 A 
ATOM     29  C   UNL     1      -2.108  -0.661  -1.175  0.00  0.00    +0.046 A 
ATOM     30 CL   UNL     1      -1.354  -0.230  -2.678  0.00  0.00    -0.083 Cl
ENDBRANCH  23  24
ENDBRANCH  18  23
ENDBRANCH  17  19
ENDBRANCH   1  17
TORSDOF 6
