REMARK  Name = ZINC22064257
REMARK  4 active torsions:
REMARK  status: ('A' for Active; 'I' for Inactive)
REMARK    1  A    between atoms: C_3  and  C_6
REMARK    2  A    between atoms: N_15  and  C_16
REMARK    3  A    between atoms: C_16  and  C_17
REMARK    4  A    between atoms: N_19  and  C_20
REMARK                            x       y       z     vdW  Elec       q    Type
REMARK                         _______ _______ _______ _____ _____    ______ ____
ROOT
ATOM      1  C   UNL     1      -4.838   1.569   6.117  0.00  0.00    +0.020 C 
ENDROOT
BRANCH   1  10
ATOM      2  C   UNL     1      -4.557   1.938   8.493  0.00  0.00    +0.002 C 
ATOM      3  C   UNL     1      -3.507   2.053   9.595  0.00  0.00    -0.046 A 
ATOM      4  C   UNL     1      -3.749   2.626  10.841  0.00  0.00    +0.010 A 
ATOM      5  C   UNL     1      -2.758   2.688  11.761  0.00  0.00    +0.045 A 
ATOM      6  S   UNL     1      -1.399   1.920  10.892  0.00  0.00    -0.101 S 
ATOM      7  C   UNL     1      -2.250   1.576   9.378  0.00  0.00    -0.010 A 
ATOM      8  C   UNL     1      -1.747   0.919   8.134  0.00  0.00    +0.024 C 
ATOM      9  C   UNL     1      -2.967   0.553   7.272  0.00  0.00    -0.072 C 
ATOM     10  N   UNL     1      -3.872   1.710   7.215  0.00  0.00    +0.393 N 
ATOM     11  H   UNL     1      -3.252   2.597   7.017  0.00  0.00    -0.080 HD
BRANCH   2  14
ATOM     12  C   UNL     1      -7.137   4.731   8.721  0.00  0.00    +0.008 A 
ATOM     13  C   UNL     1      -6.593   3.475   8.911  0.00  0.00    +0.010 A 
ATOM     14  C   UNL     1      -5.357   3.212   8.418  0.00  0.00    -0.019 A 
ATOM     15  S   UNL     1      -4.922   4.771   7.663  0.00  0.00    -0.103 S 
ATOM     16  C   UNL     1      -6.420   5.664   8.047  0.00  0.00    +0.045 A 
ENDBRANCH   2  14
ENDBRANCH   1  10
BRANCH   1  17
ATOM     17  C   UNL     1      -4.107   1.583   4.800  0.00  0.00    +0.201 C 
ATOM     18  O   UNL     1      -2.900   1.699   4.777  0.00  0.00    -0.278 OA
ATOM     19  N   UNL     1      -4.795   1.467   3.646  0.00  0.00    -0.286 N 
ATOM     20  H   UNL     1      -5.894   1.436   3.662  0.00  0.00    +0.155 HD
BRANCH  19  21
ATOM     21  C   UNL     1      -4.109   1.385   2.427  0.00  0.00    +0.051 A 
ATOM     22  C   UNL     1      -2.928   2.091   2.246  0.00  0.00    +0.073 A 
ATOM     23  C   UNL     1      -2.250   2.010   1.040  0.00  0.00    +0.164 A 
ATOM     24  C   UNL     1      -2.753   1.219   0.013  0.00  0.00    +0.163 A 
ATOM     25  C   UNL     1      -3.933   0.515   0.197  0.00  0.00    +0.066 A 
ATOM     26  C   UNL     1      -4.611   0.597   1.399  0.00  0.00    +0.043 A 
ATOM     27 BR   UNL     1      -6.220  -0.365   1.645  0.00  0.00    -0.048 Br
ATOM     28  O   UNL     1      -2.098   1.123  -1.177  0.00  0.00    -0.485 OA
ATOM     29  C   UNL     1      -1.123   2.134  -1.458  0.00  0.00    +0.270 C 
ATOM     30  C   UNL     1      -0.250   2.319  -0.210  0.00  0.00    +0.270 C 
ATOM     31  O   UNL     1      -1.096   2.715   0.875  0.00  0.00    -0.485 OA
ENDBRANCH  19  21
ENDBRANCH   1  17
TORSDOF 4
