REMARK  Name = ZINC36818371
REMARK  4 active torsions:
REMARK  status: ('A' for Active; 'I' for Inactive)
REMARK    1  A    between atoms: C_3  and  N_8
REMARK    2  A    between atoms: C_9  and  C_11
REMARK    3  A    between atoms: C_11  and  S_12
REMARK    4  A    between atoms: S_12  and  C_13
REMARK                            x       y       z     vdW  Elec       q    Type
REMARK                         _______ _______ _______ _____ _____    ______ ____
ROOT
ATOM      1  C   UNL     1       6.359   6.510  -0.827  0.00  0.00    +0.191 A 
ATOM      2  N   UNL     1       7.400   5.686  -0.822  0.00  0.00    -0.207 NA
ATOM      3  C   UNL     1       8.632   6.110  -0.594  0.00  0.00    +0.129 A 
ATOM      4  C   UNL     1       8.856   7.493  -0.344  0.00  0.00    +0.051 A 
ATOM      5  C   UNL     1      10.120   8.180  -0.068  0.00  0.00    -0.025 A 
ATOM      6  C   UNL     1      10.061   9.511   0.136  0.00  0.00    -0.004 A 
ATOM      7  S   UNL     1       8.345   9.928  -0.025  0.00  0.00    -0.073 S 
ATOM      8  C   UNL     1       7.707   8.308  -0.365  0.00  0.00    +0.115 A 
ATOM      9  N   UNL     1       6.510   7.809  -0.606  0.00  0.00    -0.214 NA
ATOM     10  C   UNL     1      11.202  10.435   0.435  0.00  0.00    +0.043 C 
ATOM     11  C   UNL     1      12.416   9.590   0.845  0.00  0.00    +0.005 C 
ATOM     12  C   UNL     1      12.588   8.454  -0.168  0.00  0.00    +0.005 C 
ATOM     13  C   UNL     1      11.454   7.441  -0.009  0.00  0.00    +0.037 C 
ATOM     14  N   UNL     1       9.690   5.220  -0.598  0.00  0.00    -0.343 N 
ATOM     15  H   UNL     1       9.592   4.352  -1.020  0.00  0.00    +0.144 HD
ATOM     16  H   UNL     1      10.530   5.463  -0.179  0.00  0.00    +0.144 HD
ENDROOT
BRANCH   1  17
ATOM     17  S   UNL     1       4.749   5.867  -1.139  0.00  0.00    -0.077 S 
BRANCH  17  18
ATOM     18  C   UNL     1       5.024   4.090  -1.377  0.00  0.00    +0.173 C 
BRANCH  18  20
ATOM     19  N   UNL     1       3.668   2.081  -1.867  0.00  0.00    -0.282 N 
ATOM     20  C   UNL     1       3.708   3.411  -1.656  0.00  0.00    +0.228 C 
ATOM     21  O   UNL     1       2.685   4.062  -1.690  0.00  0.00    -0.275 OA
ATOM     22  H   UNL     1       4.472   1.548  -1.760  0.00  0.00    +0.155 HD
BRANCH  19  25
ATOM     23  C   UNL     1       0.251   1.570  -3.120  0.00  0.00    +0.022 A 
ATOM     24  C   UNL     1       1.421   2.222  -2.764  0.00  0.00    +0.028 A 
ATOM     25  C   UNL     1       2.467   1.467  -2.242  0.00  0.00    +0.071 A 
ATOM     26  C   UNL     1       2.301   0.094  -2.098  0.00  0.00    +0.150 A 
ATOM     27  N   UNL     1       1.170  -0.487  -2.450  0.00  0.00    -0.242 NA
ATOM     28  C   UNL     1       0.161   0.202  -2.948  0.00  0.00    +0.112 A 
ATOM     29 CL   UNL     1       3.594  -0.865  -1.448  0.00  0.00    -0.060 Cl
ENDBRANCH  19  25
ENDBRANCH  18  20
ENDBRANCH  17  18
ENDBRANCH   1  17
TORSDOF 4
