REMARK  Name = ZINC43618829
REMARK  13 active torsions:
REMARK  status: ('A' for Active; 'I' for Inactive)
REMARK    1  A    between atoms: CD1_1  and  CG1_2
REMARK    2  A    between atoms: CG1_2  and  CB_3
REMARK    3  A    between atoms: CB_3  and  CG2_5
REMARK    4  A    between atoms: CB_3  and  CA_6
REMARK    5  A    between atoms: CA_6  and  C_8
REMARK    6  A    between atoms: CA_6  and  N_10
REMARK    7  A    between atoms: C_8  and  O_9
REMARK    8  A    between atoms: C_11  and  CA_13
REMARK    9  A    between atoms: CA_13  and  CB_15
REMARK   10  A    between atoms: CA_13  and  N_16
REMARK   11  A    between atoms: C_17  and  C_19
REMARK   12  A    between atoms: C_21  and  C_34
REMARK   13  A    between atoms: C_21  and  C_35
REMARK                            x       y       z     vdW  Elec       q    Type
REMARK                         _______ _______ _______ _____ _____    ______ ____
ROOT
ATOM      1  N   ALA A   1      -4.471  -5.732  -0.732  0.00  0.00    -0.303 N 
ATOM      2  C   UNK A   0      -5.590  -6.243  -1.284  0.00  0.00    +0.236 C 
ATOM      3  O   UNK A   0      -6.585  -5.557  -1.384  0.00  0.00    -0.274 OA
ATOM      4  H   ALA A   1      -3.675  -6.281  -0.652  0.00  0.00    +0.149 HD
ENDROOT
BRANCH   2   5
ATOM      5  C   UNK A   0      -5.603  -7.667  -1.778  0.00  0.00    +0.179 C 
ATOM      6  C   UNK A   0      -5.737  -8.612  -0.560  0.00  0.00    +0.040 C 
ATOM      7  S   UNK A   0      -7.154  -9.678  -1.073  0.00  0.00    -0.125 S 
ATOM      8  C   UNK A   0      -7.127  -9.236  -2.862  0.00  0.00    +0.167 C 
ATOM      9  N   UNK A   0      -6.686  -7.815  -2.751  0.00  0.00    -0.269 N 
ATOM     10  C   UNK A   0      -7.473  -7.119  -3.600  0.00  0.00    +0.249 C 
ATOM     11  O   UNK A   0      -7.199  -6.037  -4.080  0.00  0.00    -0.270 OA
ATOM     12  C   UNK A   0      -8.716  -7.872  -3.855  0.00  0.00    +0.043 A 
ATOM     13  C   UNK A   0      -8.525  -9.199  -3.410  0.00  0.00    -0.005 A 
ATOM     14  C   UNK A   0      -9.528 -10.133  -3.519  0.00  0.00    +0.007 A 
ATOM     15  C   UNK A   0     -10.736  -9.789  -4.103  0.00  0.00    +0.000 A 
ATOM     16  C   UNK A   0     -10.937  -8.506  -4.580  0.00  0.00    +0.001 A 
ATOM     17  C   UNK A   0      -9.928  -7.522  -4.449  0.00  0.00    +0.013 A 
ATOM     18  C   UNK A   0      -4.466  -9.442  -0.369  0.00  0.00    +0.025 C 
ATOM     19  C   UNK A   0      -6.073  -7.827   0.709  0.00  0.00    +0.025 C 
ENDBRANCH   2   5
BRANCH   1  20
ATOM     20  CA  ALA A   1      -4.458  -4.348  -0.252  0.00  0.00    +0.156 C 
ATOM     21  CB  ALA A   1      -5.010  -4.297   1.174  0.00  0.00    +0.038 C 
BRANCH  20  23
ATOM     22  N   ALA A   1      -2.788  -2.566   0.141  0.00  0.00    -0.308 N 
ATOM     23  C   ALA A   1      -3.044  -3.826  -0.263  0.00  0.00    +0.233 C 
ATOM     24  O   ALA A   1      -2.137  -4.540  -0.635  0.00  0.00    -0.274 OA
ATOM     25  H   ALA A   1      -3.513  -1.995   0.438  0.00  0.00    +0.149 HD
BRANCH  22  26
ATOM     26  CA  ALA A   1      -1.413  -2.059   0.130  0.00  0.00    +0.101 C 
BRANCH  26  27
ATOM     27  CB  ALA A   1      -1.433  -0.534   0.013  0.00  0.00    +0.008 C 
ATOM     28  CG2 ALA A   1      -2.135  -0.131  -1.286  0.00  0.00    +0.009 C 
BRANCH  27  30
ATOM     29  CD1 ALA A   1      -0.019   1.526   0.010  0.00  0.00    +0.004 C 
ATOM     30  CG1 ALA A   1       0.002  -0.004   0.002  0.00  0.00    +0.002 C 
ENDBRANCH  27  30
ENDBRANCH  26  27
BRANCH  26  31
ATOM     31  C   ALA A   1      -0.711  -2.461   1.429  0.00  0.00    +0.178 C 
BRANCH  31  32
ATOM     32  O   ALA A   1      -1.345  -1.813   2.533  0.00  0.00    -0.393 OA
ATOM     33  H   ALA A   1      -0.951  -2.023   3.391  0.00  0.00    +0.209 HD
ENDBRANCH  31  32
ENDBRANCH  26  31
ENDBRANCH  22  26
ENDBRANCH  20  23
ENDBRANCH   1  20
TORSDOF 8
