REMARK  Name = ZINC00853682
REMARK  10 active torsions:
REMARK  status: ('A' for Active; 'I' for Inactive)
REMARK    1  A    between atoms: C_1  and  C_2
REMARK    2  A    between atoms: C_5  and  S_8
REMARK    3  A    between atoms: S_8  and  N_11
REMARK    4  A    between atoms: N_11  and  N_12
REMARK    5  A    between atoms: C_13  and  C_15
REMARK    6  A    between atoms: C_15  and  C_16
REMARK    7  A    between atoms: C_15  and  C_23
REMARK    8  A    between atoms: C_15  and  O_30
REMARK    9  A    between atoms: C_21  and  C_22
REMARK   10  A    between atoms: C_28  and  C_29
REMARK                            x       y       z     vdW  Elec       q    Type
REMARK                         _______ _______ _______ _____ _____    ______ ____
ROOT
ATOM      1  C   UNL     1       4.059  -5.040   2.533  0.00  0.00    +0.194 C 
ENDROOT
BRANCH   1   2
ATOM      2  C   UNL     1       4.101  -6.133   3.570  0.00  0.00    +0.000 A 
ATOM      3  C   UNL     1       5.314  -6.539   4.096  0.00  0.00    +0.007 A 
ATOM      4  C   UNL     1       5.353  -7.542   5.046  0.00  0.00    +0.000 A 
ATOM      5  C   UNL     1       4.180  -8.138   5.471  0.00  0.00    +0.000 A 
ATOM      6  C   UNL     1       2.968  -7.731   4.946  0.00  0.00    +0.004 A 
ATOM      7  C   UNL     1       2.929  -6.725   3.998  0.00  0.00    -0.044 A 
ATOM      8  C   UNL     1       1.607  -6.278   3.429  0.00  0.00    +0.044 C 
ENDBRANCH   1   2
BRANCH   1   9
ATOM      9  C   UNL     1       5.462  -4.707   2.095  0.00  0.00    +0.000 A 
ATOM     10  C   UNL     1       5.999  -3.466   2.382  0.00  0.00    +0.007 A 
ATOM     11  C   UNL     1       7.286  -3.161   1.980  0.00  0.00    +0.000 A 
ATOM     12  C   UNL     1       8.036  -4.097   1.292  0.00  0.00    +0.000 A 
ATOM     13  C   UNL     1       7.499  -5.338   1.007  0.00  0.00    +0.004 A 
ATOM     14  C   UNL     1       6.213  -5.645   1.413  0.00  0.00    -0.044 A 
ATOM     15  C   UNL     1       5.629  -7.000   1.106  0.00  0.00    +0.044 C 
ENDBRANCH   1   9
BRANCH   1  17
ATOM     16  N   UNL     1       2.717  -4.604   0.501  0.00  0.00    -0.229 N 
ATOM     17  C   UNL     1       3.258  -5.505   1.344  0.00  0.00    +0.269 C 
ATOM     18  O   UNL     1       3.101  -6.692   1.146  0.00  0.00    -0.271 OA
ATOM     19  H   UNL     1       2.843  -3.655   0.660  0.00  0.00    +0.171 HD
BRANCH  16  20
ATOM     20  N   UNL     1       1.973  -5.037  -0.604  0.00  0.00    -0.108 NA
ATOM     21  H   UNL     1       2.364  -5.657  -1.239  0.00  0.00    +0.172 HD
BRANCH  20  22
ATOM     22  S   UNL     1       0.426  -4.490  -0.827  0.00  0.00    +0.074 S 
ATOM     23  O   UNL     1      -0.278  -4.761   0.377  0.00  0.00    -0.152 OA
ATOM     24  O   UNL     1      -0.002  -4.986  -2.088  0.00  0.00    -0.152 OA
BRANCH  22  29
ATOM     25  C   UNL     1       0.711   1.515  -1.341  0.00  0.00    +0.044 C 
ATOM     26  C   UNL     1       0.640   0.015  -1.213  0.00  0.00    -0.050 A 
ATOM     27  C   UNL     1       0.741  -0.781  -2.339  0.00  0.00    +0.005 A 
ATOM     28  C   UNL     1       0.676  -2.156  -2.221  0.00  0.00    +0.029 A 
ATOM     29  C   UNL     1       0.510  -2.736  -0.977  0.00  0.00    +0.107 A 
ATOM     30  C   UNL     1       0.410  -1.941   0.149  0.00  0.00    +0.029 A 
ATOM     31  C   UNL     1       0.479  -0.565   0.032  0.00  0.00    +0.005 A 
ENDBRANCH  22  29
ENDBRANCH  20  22
ENDBRANCH  16  20
ENDBRANCH   1  17
BRANCH   1  32
ATOM     32  O   UNL     1       3.446  -3.876   3.093  0.00  0.00    -0.371 OA
ATOM     33  H   UNL     1       2.519  -3.999   3.339  0.00  0.00    +0.212 HD
ENDBRANCH   1  32
TORSDOF 7
