REMARK  Name = ZINC16420521
REMARK  4 active torsions:
REMARK  status: ('A' for Active; 'I' for Inactive)
REMARK    1  A    between atoms: C_1  and  C_2
REMARK    2  A    between atoms: C_2  and  C_3
REMARK    3  A    between atoms: N_12  and  C_13
REMARK    4  A    between atoms: C_13  and  C_14
REMARK                            x       y       z     vdW  Elec       q    Type
REMARK                         _______ _______ _______ _____ _____    ______ ____
ROOT
ATOM      1  C   UNL     1       0.655  -0.598   1.221  0.00  0.00    +0.088 C 
ATOM      2  C   UNL     1       0.577  -2.121   1.164  0.00  0.00    -0.020 A 
ATOM      3  C   UNL     1      -0.537  -2.825   0.713  0.00  0.00    +0.013 A 
ATOM      4  C   UNL     1      -0.520  -4.179   0.695  0.00  0.00    +0.046 A 
ATOM      5  S   UNL     1       1.113  -4.536   1.328  0.00  0.00    -0.101 S 
ATOM      6  C   UNL     1       1.644  -2.864   1.570  0.00  0.00    -0.004 A 
ATOM      7  C   UNL     1       2.944  -2.347   2.093  0.00  0.00    +0.058 C 
ATOM      8  C   UNL     1       2.755  -0.858   2.430  0.00  0.00    +0.090 C 
ATOM      9  N   UNL     1       2.065  -0.200   1.310  0.00  0.00    -0.287 NA
ENDROOT
BRANCH   1  11
ATOM     10  C   UNL     1       0.835  -0.453  -1.267  0.00  0.00    +0.006 C 
ATOM     11  C   UNL     1       0.032  -0.004  -0.044  0.00  0.00    +0.020 C 
ENDBRANCH   1  11
BRANCH   9  12
ATOM     12  C   UNL     1       2.196   1.261   1.392  0.00  0.00    +0.181 C 
BRANCH  12  13
ATOM     13  C   UNL     1       3.616   1.657   1.082  0.00  0.00    +0.234 C 
ATOM     14  O   UNL     1       4.439   0.806   0.819  0.00  0.00    -0.274 OA
ATOM     15  N   UNL     1       3.972   2.957   1.098  0.00  0.00    -0.239 N 
ATOM     16  C   UNL     1       5.243   3.311   0.821  0.00  0.00    +0.303 C 
ATOM     17  O   UNL     1       6.067   2.458   0.556  0.00  0.00    -0.253 OA
ATOM     18  N   UNL     1       5.599   4.611   0.836  0.00  0.00    -0.313 N 
ATOM     19  H   UNL     1       3.314   3.637   1.309  0.00  0.00    +0.159 HD
ATOM     20  H   UNL     1       4.941   5.291   1.047  0.00  0.00    +0.146 HD
ATOM     21  H   UNL     1       6.513   4.865   0.637  0.00  0.00    +0.146 HD
ENDBRANCH  12  13
ENDBRANCH   9  12
TORSDOF 3
