REMARK  Name = ZINC66884661
REMARK  4 active torsions:
REMARK  status: ('A' for Active; 'I' for Inactive)
REMARK    1  A    between atoms: C_11  and  C_13
REMARK    2  A    between atoms: C_13  and  N_14
REMARK    3  A    between atoms: N_17  and  C_20
REMARK    4  A    between atoms: C_20  and  C_21
REMARK                            x       y       z     vdW  Elec       q    Type
REMARK                         _______ _______ _______ _____ _____    ______ ____
ROOT
ATOM      1  N   UNL     1       6.044   1.947  -1.105  0.00  0.00    -0.298 NA
ATOM      2  C   UNL     1       6.522   1.270  -2.318  0.00  0.00    +0.066 C 
ATOM      3  C   UNL     1       7.944   1.737  -2.634  0.00  0.00    -0.063 C 
ATOM      4  N   UNL     1       7.949   3.193  -2.830  0.00  0.00    +0.386 N 
ATOM      5  C   UNL     1       7.494   3.856  -1.602  0.00  0.00    -0.063 C 
ATOM      6  C   UNL     1       6.067   3.407  -1.278  0.00  0.00    +0.066 C 
ATOM      7  H   UNL     1       7.331   3.431  -3.591  0.00  0.00    -0.081 HD
ENDROOT
BRANCH   1   8
ATOM      8  C   UNL     1       4.700   1.482  -0.737  0.00  0.00    +0.180 C 
BRANCH   8  19
ATOM      9  C   UNL     1       3.780  -4.741   0.684  0.00  0.00    +0.000 A 
ATOM     10  C   UNL     1       4.875  -4.093   0.141  0.00  0.00    +0.002 A 
ATOM     11  C   UNL     1       4.819  -2.736  -0.107  0.00  0.00    +0.024 A 
ATOM     12  C   UNL     1       3.664  -2.022   0.188  0.00  0.00    +0.039 A 
ATOM     13  C   UNL     1       2.566  -2.672   0.729  0.00  0.00    -0.026 A 
ATOM     14  C   UNL     1       2.631  -4.033   0.977  0.00  0.00    +0.005 A 
ATOM     15  C   UNL     1       1.294  -1.933   1.051  0.00  0.00    +0.038 C 
ATOM     16  C   UNL     1       1.566  -0.436   1.195  0.00  0.00    +0.024 C 
ATOM     17  C   UNL     1       2.334   0.050  -0.041  0.00  0.00    +0.114 C 
ATOM     18  N   UNL     1       3.629  -0.644  -0.066  0.00  0.00    -0.270 N 
ATOM     19  C   UNL     1       4.764   0.033  -0.330  0.00  0.00    +0.234 C 
ATOM     20  O   UNL     1       5.838  -0.525  -0.239  0.00  0.00    -0.274 OA
ENDBRANCH   8  19
ENDBRANCH   1   8
BRANCH   4  21
ATOM     21  C   UNL     1       9.312   3.638  -3.151  0.00  0.00    -0.001 C 
BRANCH  21  22
ATOM     22  C   UNL     1       9.296   5.110  -3.473  0.00  0.00    +0.120 A 
ATOM     23  N   UNL     1       9.104   5.510  -4.718  0.00  0.00    -0.202 NA
ATOM     24  C   UNL     1       9.089   6.810  -5.006  0.00  0.00    +0.217 A 
ATOM     25  N   UNL     1       9.268   7.705  -4.041  0.00  0.00    -0.181 NA
ATOM     26  C   UNL     1       9.461   7.299  -2.791  0.00  0.00    +0.217 A 
ATOM     27  N   UNL     1       9.470   5.998  -2.509  0.00  0.00    -0.202 NA
ATOM     28  N   UNL     1       9.647   8.225  -1.785  0.00  0.00    -0.327 N 
ATOM     29  N   UNL     1       8.889   7.226  -6.306  0.00  0.00    -0.327 N 
ATOM     30  H   UNL     1       9.637   9.173  -1.990  0.00  0.00    +0.145 HD
ATOM     31  H   UNL     1       9.788   7.928  -0.872  0.00  0.00    +0.145 HD
ATOM     32  H   UNL     1       8.759   6.572  -7.011  0.00  0.00    +0.145 HD
ATOM     33  H   UNL     1       8.878   8.174  -6.516  0.00  0.00    +0.145 HD
ENDBRANCH  21  22
ENDBRANCH   4  21
TORSDOF 4
