REMARK  Name = ZINC15015428
REMARK  3 active torsions:
REMARK  status: ('A' for Active; 'I' for Inactive)
REMARK    1  A    between atoms: N_15  and  N_16
REMARK    2  A    between atoms: C_17  and  C_18
REMARK    3  A    between atoms: C_21  and  O_25
REMARK                            x       y       z     vdW  Elec       q    Type
REMARK                         _______ _______ _______ _____ _____    ______ ____
ROOT
ATOM      1  C   UNL     1      -2.354 -10.640  -0.028  0.00  0.00    +0.001 A 
ATOM      2  C   UNL     1      -3.734 -10.770  -0.014  0.00  0.00    +0.002 A 
ATOM      3  C   UNL     1      -4.543  -9.654  -0.001  0.00  0.00    +0.026 A 
ATOM      4  C   UNL     1      -3.977  -8.383  -0.001  0.00  0.00    +0.050 A 
ATOM      5  C   UNL     1      -2.580  -8.253  -0.015  0.00  0.00    +0.029 A 
ATOM      6  C   UNL     1      -1.774  -9.390  -0.028  0.00  0.00    +0.012 A 
ATOM      7  C   UNL     1      -2.297  -6.808  -0.011  0.00  0.00    +0.137 A 
ATOM      8  C   UNL     1      -3.549  -6.159   0.005  0.00  0.00    +0.163 A 
ATOM      9  N   UNL     1      -4.534  -7.115   0.011  0.00  0.00    -0.338 N 
ATOM     10  H   UNL     1      -5.486  -6.928   0.022  0.00  0.00    +0.167 HD
ATOM     11  N   UNL     1      -3.571  -4.830   0.017  0.00  0.00    -0.192 NA
ATOM     12  C   UNL     1      -2.425  -4.162   0.004  0.00  0.00    +0.256 A 
ATOM     13  N   UNL     1      -1.257  -4.796  -0.011  0.00  0.00    -0.111 NA
ATOM     14  N   UNL     1      -1.188  -6.083  -0.018  0.00  0.00    -0.142 NA
ATOM     15  N   UNL     1      -2.446  -2.777   0.011  0.00  0.00    -0.204 N 
ATOM     16  H   UNL     1      -3.293  -2.305   0.022  0.00  0.00    +0.177 HD
ENDROOT
BRANCH  15  17
ATOM     17  N   UNL     1      -1.244  -2.058   0.003  0.00  0.00    -0.187 NA
ATOM     18  C   UNL     1      -1.263  -0.761   0.011  0.00  0.00    +0.138 C 
BRANCH  18  19
ATOM     19  C   UNL     1       0.002  -0.004   0.002  0.00  0.00    -0.003 A 
ATOM     20  C   UNL     1      -0.017   1.393   0.010  0.00  0.00    +0.028 A 
ATOM     21  C   UNL     1       1.169   2.097   0.002  0.00  0.00    +0.061 A 
ATOM     22  C   UNL     1       2.381   1.419  -0.013  0.00  0.00    +0.145 A 
ATOM     23  C   UNL     1       2.405   0.029  -0.021  0.00  0.00    +0.061 A 
ATOM     24  C   UNL     1       1.224  -0.682  -0.013  0.00  0.00    +0.028 A 
ATOM     25 BR   UNL     1       4.059  -0.887  -0.042  0.00  0.00    -0.046 Br
ATOM     26 BR   UNL     1       1.145   3.988   0.012  0.00  0.00    -0.046 Br
BRANCH  22  27
ATOM     27  O   UNL     1       3.548   2.116  -0.021  0.00  0.00    -0.505 OA
ATOM     28  H   UNL     1       3.877   2.322  -0.906  0.00  0.00    +0.292 HD
ENDBRANCH  22  27
ENDBRANCH  18  19
ENDBRANCH  15  17
TORSDOF 3
