REMARK  Name = ZINC40011483
REMARK  5 active torsions:
REMARK  status: ('A' for Active; 'I' for Inactive)
REMARK    1  A    between atoms: C_1  and  C_2
REMARK    2  A    between atoms: C_6  and  N_8
REMARK    3  A    between atoms: C_9  and  N_21
REMARK    4  A    between atoms: C_10  and  C_14
REMARK    5  A    between atoms: C_14  and  C_16
REMARK                            x       y       z     vdW  Elec       q    Type
REMARK                         _______ _______ _______ _____ _____    ______ ____
ROOT
ATOM      1  N   UNL     1       0.090  -2.795   2.401  0.00  0.00    -0.285 N 
ATOM      2  C   UNL     1       0.143  -4.145   2.393  0.00  0.00    +0.120 A 
ATOM      3  C   UNL     1       0.019  -4.766   3.626  0.00  0.00    +0.100 A 
ATOM      4  S   UNL     1      -0.166  -3.363   4.713  0.00  0.00    -0.056 S 
ATOM      5  C   UNL     1      -0.069  -2.138   3.566  0.00  0.00    +0.132 A 
ATOM      6  S   UNL     1      -0.157  -0.447   3.820  0.00  0.00    -0.024 S 
ENDROOT
BRANCH   1  12
ATOM      7  C   UNL     1      -1.915  -1.237  -1.811  0.00  0.00    +0.044 C 
ATOM      8  C   UNL     1      -0.749  -1.309  -0.858  0.00  0.00    -0.048 A 
ATOM      9  C   UNL     1       0.437  -0.669  -1.167  0.00  0.00    +0.003 A 
ATOM     10  C   UNL     1       1.508  -0.733  -0.296  0.00  0.00    +0.002 A 
ATOM     11  C   UNL     1       1.397  -1.437   0.888  0.00  0.00    +0.026 A 
ATOM     12  C   UNL     1       0.207  -2.080   1.202  0.00  0.00    +0.050 A 
ATOM     13  C   UNL     1      -0.869  -2.010   0.326  0.00  0.00    +0.029 A 
ENDBRANCH   1  12
BRANCH   2  14
ATOM     14  N   UNL     1       0.310  -4.862   1.230  0.00  0.00    -0.343 N 
ATOM     15  H   UNL     1       0.500  -4.400   0.398  0.00  0.00    +0.144 HD
ATOM     16  H   UNL     1       0.238  -5.829   1.241  0.00  0.00    +0.144 HD
ENDBRANCH   2  14
BRANCH   3  17
ATOM     17  C   UNL     1       0.034  -6.143   3.940  0.00  0.00    +0.210 C 
ATOM     18  O   UNL     1       0.068  -6.973   3.044  0.00  0.00    -0.285 OA
BRANCH  17  19
ATOM     19  C   UNL     1       0.009  -6.578   5.343  0.00  0.00    +0.060 A 
ATOM     20  C   UNL     1      -0.093  -7.860   5.858  0.00  0.00    +0.019 A 
ATOM     21  C   UNL     1      -0.089  -7.954   7.230  0.00  0.00    +0.008 A 
ATOM     22  C   UNL     1       0.011  -6.822   7.968  0.00  0.00    +0.046 A 
ATOM     23  S   UNL     1       0.110  -5.594   6.826  0.00  0.00    -0.093 S 
ENDBRANCH  17  19
ENDBRANCH   3  17
TORSDOF 4
