REMARK  Name = ZINC21046781
REMARK  7 active torsions:
REMARK  status: ('A' for Active; 'I' for Inactive)
REMARK    1  A    between atoms: C_1  and  C_2
REMARK    2  A    between atoms: C_2  and  C_3
REMARK    3  A    between atoms: C_3  and  C_5
REMARK    4  A    between atoms: C_3  and  C_6
REMARK    5  A    between atoms: C_6  and  C_8
REMARK    6  A    between atoms: C_6  and  N_25
REMARK    7  A    between atoms: N_10  and  C_11
REMARK                            x       y       z     vdW  Elec       q    Type
REMARK                         _______ _______ _______ _____ _____    ______ ____
ROOT
ATOM      1  C   UNL     1      -9.013   2.480   1.777  0.00  0.00    +0.238 C 
ATOM      2  O   UNL     1      -8.761   1.730   0.858  0.00  0.00    -0.273 OA
ATOM      3  N   UNL     1      -8.035   3.230   2.322  0.00  0.00    -0.284 N 
ATOM      4  H   UNL     1      -8.247   3.854   3.203  0.00  0.00    +0.155 HD
ENDROOT
BRANCH   3   5
ATOM      5  C   UNL     1      -6.749   3.216   1.766  0.00  0.00    +0.037 A 
ATOM      6  C   UNL     1      -5.982   4.373   1.762  0.00  0.00    +0.027 A 
ATOM      7  C   UNL     1      -4.714   4.361   1.213  0.00  0.00    +0.051 A 
ATOM      8  C   UNL     1      -4.205   3.195   0.666  0.00  0.00    +0.167 A 
ATOM      9  C   UNL     1      -4.971   2.032   0.670  0.00  0.00    +0.169 A 
ATOM     10  C   UNL     1      -6.242   2.045   1.220  0.00  0.00    +0.073 A 
ATOM     11  O   UNL     1      -4.251   1.031   0.081  0.00  0.00    -0.447 OA
ATOM     12  C   UNL     1      -2.893   1.493   0.073  0.00  0.00    +0.254 C 
ATOM     13  O   UNL     1      -3.003   2.924   0.072  0.00  0.00    -0.448 OA
ATOM     14  C   UNL     1      -2.176   1.015  -1.184  0.00  0.00    +0.093 C 
ATOM     15  C   UNL     1      -0.741   1.548  -1.188  0.00  0.00    +0.008 C 
ATOM     16  C   UNL     1      -0.008   1.049   0.059  0.00  0.00    +0.000 C 
ATOM     17  C   UNL     1      -0.728   1.553   1.311  0.00  0.00    +0.008 C 
ATOM     18  C   UNL     1      -2.162   1.018   1.325  0.00  0.00    +0.093 C 
ENDBRANCH   3   5
BRANCH   1  19
ATOM     19  C   UNL     1     -10.420   2.573   2.310  0.00  0.00    +0.163 C 
BRANCH  19  20
ATOM     20  N   UNL     1     -11.357   2.068   1.304  0.00  0.00    -0.288 N 
ATOM     21  C   UNL     1     -11.258   0.797   0.867  0.00  0.00    +0.298 C 
ATOM     22  O   UNL     1     -10.390   0.069   1.308  0.00  0.00    -0.253 OA
ATOM     23  N   UNL     1     -12.121   0.333  -0.059  0.00  0.00    -0.313 N 
ATOM     24  H   UNL     1     -12.143   2.727   0.904  0.00  0.00    +0.151 HD
ATOM     25  H   UNL     1     -12.040  -0.704  -0.415  0.00  0.00    +0.146 HD
ATOM     26  H   UNL     1     -12.906   0.992  -0.458  0.00  0.00    +0.146 HD
ENDBRANCH  19  20
BRANCH  19  27
ATOM     27  C   UNL     1     -10.539   1.734   3.584  0.00  0.00    +0.015 C 
ATOM     28  C   UNL     1      -9.559   2.261   4.635  0.00  0.00    +0.010 C 
BRANCH  27  30
ATOM     29  C   UNL     1     -12.120   0.893   5.326  0.00  0.00    +0.004 C 
ATOM     30  C   UNL     1     -11.967   1.828   4.125  0.00  0.00    +0.002 C 
ENDBRANCH  27  30
ENDBRANCH  19  27
ENDBRANCH   1  19
TORSDOF 5
