REMARK  Name = ZINC66939226
REMARK  8 active torsions:
REMARK  status: ('A' for Active; 'I' for Inactive)
REMARK    1  A    between atoms: C_1  and  C_2
REMARK    2  A    between atoms: C_2  and  C_3
REMARK    3  A    between atoms: C_2  and  C_4
REMARK    4  A    between atoms: C_2  and  N_18
REMARK    5  A    between atoms: C_4  and  N_5
REMARK    6  A    between atoms: N_5  and  C_6
REMARK    7  A    between atoms: C_6  and  C_8
REMARK    8  A    between atoms: C_6  and  C_15
REMARK                            x       y       z     vdW  Elec       q    Type
REMARK                         _______ _______ _______ _____ _____    ______ ____
ROOT
ATOM      1  C   UNL     1      -1.521  -0.115   0.089  0.00  0.00    +0.069 C 
ENDROOT
BRANCH   1   3
ATOM      2  C   UNL     1       0.404   1.472  -0.047  0.00  0.00    -0.009 C 
ATOM      3  C   UNL     1       0.002  -0.004   0.002  0.00  0.00    -0.058 C 
ATOM      4  C   UNL     1       0.632  -0.663   1.230  0.00  0.00    -0.009 C 
BRANCH   3   5
ATOM      5  N   UNL     1       0.474  -0.681  -1.213  0.00  0.00    +0.387 N 
ATOM      6  C   UNL     1       1.928  -0.502  -1.343  0.00  0.00    -0.073 C 
ATOM      7  C   UNL     1       2.442  -1.455  -2.423  0.00  0.00    +0.017 C 
ATOM      8  C   UNL     1       1.619  -1.298  -3.676  0.00  0.00    -0.048 A 
ATOM      9  C   UNL     1       2.117  -1.801  -4.867  0.00  0.00    +0.004 A 
ATOM     10  C   UNL     1       1.390  -1.678  -6.034  0.00  0.00    +0.000 A 
ATOM     11  C   UNL     1       0.158  -1.051  -6.014  0.00  0.00    +0.000 A 
ATOM     12  C   UNL     1      -0.339  -0.548  -4.828  0.00  0.00    +0.002 A 
ATOM     13  C   UNL     1       0.392  -0.669  -3.655  0.00  0.00    -0.061 A 
ATOM     14  C   UNL     1      -0.185  -0.099  -2.386  0.00  0.00    -0.042 C 
ATOM     15  H   UNL     1       0.257  -1.665  -1.158  0.00  0.00    -0.080 HD
ENDBRANCH   3   5
ENDBRANCH   1   3
BRANCH   1  16
ATOM     16  N   UNL     1      -1.907  -1.532   0.136  0.00  0.00    -0.303 NA
ATOM     17  H   UNL     1      -1.538  -2.034  -0.658  0.00  0.00    +0.123 HD
BRANCH  16  18
ATOM     18  C   UNL     1      -3.366  -1.678   0.220  0.00  0.00    +0.171 C 
BRANCH  18  19
ATOM     19  C   UNL     1      -3.703  -2.998   0.865  0.00  0.00    -0.021 A 
ATOM     20  C   UNL     1      -2.966  -4.126   0.555  0.00  0.00    +0.008 A 
ATOM     21  C   UNL     1      -3.273  -5.337   1.146  0.00  0.00    +0.038 A 
ATOM     22  C   UNL     1      -4.320  -5.420   2.048  0.00  0.00    +0.123 A 
ATOM     23  C   UNL     1      -5.058  -4.290   2.357  0.00  0.00    +0.038 A 
ATOM     24  C   UNL     1      -4.745  -3.079   1.769  0.00  0.00    +0.008 A 
ATOM     25  F   UNL     1      -4.622  -6.604   2.625  0.00  0.00    -0.205 F 
ENDBRANCH  18  19
BRANCH  18  26
ATOM     26  C   UNL     1      -3.956  -1.631  -1.166  0.00  0.00    +0.232 C 
ATOM     27  O   UNL     1      -3.232  -1.489  -2.128  0.00  0.00    -0.274 OA
ATOM     28  N   UNL     1      -5.288  -1.745  -1.335  0.00  0.00    -0.328 N 
ATOM     29  H   UNL     1      -5.867  -1.859  -0.565  0.00  0.00    +0.145 HD
ATOM     30  H   UNL     1      -5.668  -1.715  -2.227  0.00  0.00    +0.145 HD
ENDBRANCH  18  26
ENDBRANCH  16  18
ENDBRANCH   1  16
TORSDOF 6
