REMARK  Name = ZINC04681544
REMARK  13 active torsions:
REMARK  status: ('A' for Active; 'I' for Inactive)
REMARK    1  A    between atoms: C_1  and  C_2
REMARK    2  A    between atoms: C_2  and  O_3
REMARK    3  A    between atoms: C_2  and  C_4
REMARK    4  A    between atoms: C_2  and  C_28
REMARK    5  A    between atoms: C_5  and  C_6
REMARK    6  A    between atoms: C_7  and  C_12
REMARK    7  A    between atoms: N_13  and  N_14
REMARK    8  A    between atoms: C_15  and  C_16
REMARK    9  A    between atoms: C_17  and  C_22
REMARK   10  A    between atoms: C_23  and  C_24
REMARK   11  A    between atoms: C_24  and  O_25
REMARK   12  A    between atoms: C_24  and  C_26
REMARK   13  A    between atoms: C_24  and  C_27
REMARK                            x       y       z     vdW  Elec       q    Type
REMARK                         _______ _______ _______ _____ _____    ______ ____
ROOT
ATOM      1  C   UNL     1      -4.548   0.919  -0.562  0.00  0.00    +0.144 C 
ATOM      2  N   UNL     1      -3.590   1.423   0.174  0.00  0.00    -0.157 NA
ENDROOT
BRANCH   1   4
ATOM      3  C   UNL     1      -4.114  -1.358   0.366  0.00  0.00    +0.034 A 
ATOM      4  C   UNL     1      -4.812  -0.524  -0.535  0.00  0.00    +0.010 A 
ATOM      5  C   UNL     1      -5.756  -1.084  -1.401  0.00  0.00    +0.011 A 
ATOM      6  C   UNL     1      -5.999  -2.441  -1.370  0.00  0.00    +0.001 A 
ATOM      7  C   UNL     1      -5.314  -3.258  -0.485  0.00  0.00    +0.001 A 
ATOM      8  C   UNL     1      -4.373  -2.728   0.375  0.00  0.00    +0.017 A 
BRANCH   3  10
ATOM      9  C   UNL     1      -2.347  -0.346   1.992  0.00  0.00    -0.063 C 
ATOM     10  C   UNL     1      -3.143  -0.802   1.260  0.00  0.00    -0.063 C 
BRANCH   9  12
ATOM     11  C   UNL     1      -1.263   1.738   2.693  0.00  0.00    +0.055 C 
ATOM     12  C   UNL     1      -1.349   0.226   2.911  0.00  0.00    +0.121 C 
ATOM     13  C   UNL     1       0.017  -0.407   2.638  0.00  0.00    +0.055 C 
BRANCH  12  14
ATOM     14  O   UNL     1      -1.736  -0.040   4.260  0.00  0.00    -0.377 OA
ATOM     15  H   UNL     1      -1.811  -0.981   4.470  0.00  0.00    +0.211 HD
ENDBRANCH  12  14
ENDBRANCH   9  12
ENDBRANCH   3  10
ENDBRANCH   1   4
BRANCH   2  16
ATOM     16  N   UNL     1      -3.426   2.701   0.232  0.00  0.00    -0.157 NA
ATOM     17  C   UNL     1      -2.227   3.213   0.120  0.00  0.00    +0.144 C 
BRANCH  17  18
ATOM     18  C   UNL     1      -2.023   4.654   0.306  0.00  0.00    +0.010 A 
ATOM     19  C   UNL     1      -3.093   5.475   0.723  0.00  0.00    +0.034 A 
ATOM     20  C   UNL     1      -2.883   6.842   0.894  0.00  0.00    +0.017 A 
ATOM     21  C   UNL     1      -1.636   7.384   0.656  0.00  0.00    +0.001 A 
ATOM     22  C   UNL     1      -0.585   6.579   0.247  0.00  0.00    +0.001 A 
ATOM     23  C   UNL     1      -0.767   5.223   0.077  0.00  0.00    +0.011 A 
BRANCH  19  24
ATOM     24  C   UNL     1      -4.385   4.908   0.967  0.00  0.00    -0.063 C 
ATOM     25  C   UNL     1      -5.444   4.443   1.167  0.00  0.00    -0.063 C 
BRANCH  25  26
ATOM     26  C   UNL     1      -6.773   3.861   1.418  0.00  0.00    +0.121 C 
ATOM     27  C   UNL     1      -7.292   3.204   0.138  0.00  0.00    +0.055 C 
ATOM     28  C   UNL     1      -6.667   2.808   2.524  0.00  0.00    +0.055 C 
BRANCH  26  29
ATOM     29  O   UNL     1      -7.675   4.890   1.826  0.00  0.00    -0.377 OA
ATOM     30  H   UNL     1      -7.408   5.351   2.634  0.00  0.00    +0.211 HD
ENDBRANCH  26  29
ENDBRANCH  25  26
ENDBRANCH  19  24
ENDBRANCH  17  18
ENDBRANCH   2  16
TORSDOF 9
