REMARK  Name = ZINC49406483
REMARK  5 active torsions:
REMARK  status: ('A' for Active; 'I' for Inactive)
REMARK    1  A    between atoms: C_10  and  C_11
REMARK    2  A    between atoms: C_11  and  C_13
REMARK    3  A    between atoms: C_11  and  N_25
REMARK    4  A    between atoms: C_13  and  N_14
REMARK    5  A    between atoms: N_17  and  C_18
REMARK                            x       y       z     vdW  Elec       q    Type
REMARK                         _______ _______ _______ _____ _____    ______ ____
ROOT
ATOM      1  C   UNL     1       5.215   0.218   0.175  0.00  0.00    -0.020 C 
ENDROOT
BRANCH   1  11
ATOM      2  C   UNL     1       0.189   1.127   0.514  0.00  0.00    +0.001 A 
ATOM      3  C   UNL     1       1.337   1.907   0.639  0.00  0.00    +0.001 A 
ATOM      4  C   UNL     1       2.575   1.361   0.489  0.00  0.00    +0.009 A 
ATOM      5  C   UNL     1       2.701  -0.009   0.205  0.00  0.00    -0.016 A 
ATOM      6  C   UNL     1       1.534  -0.803   0.079  0.00  0.00    -0.018 A 
ATOM      7  C   UNL     1       0.273  -0.204   0.239  0.00  0.00    +0.008 A 
ATOM      8  C   UNL     1       1.660  -2.173  -0.205  0.00  0.00    +0.008 A 
ATOM      9  C   UNL     1       2.898  -2.719  -0.354  0.00  0.00    +0.001 A 
ATOM     10  C   UNL     1       4.046  -1.939  -0.229  0.00  0.00    +0.003 A 
ATOM     11  C   UNL     1       3.962  -0.608   0.045  0.00  0.00    -0.052 A 
ENDBRANCH   1  11
BRANCH   1  12
ATOM     12  N   UNL     1       6.359  -0.665   0.444  0.00  0.00    +0.385 N 
ATOM     13  C   UNL     1       7.609   0.131   0.536  0.00  0.00    -0.078 C 
ATOM     14  C   UNL     1       8.555  -0.789   1.348  0.00  0.00    -0.020 C 
ATOM     15  C   UNL     1       7.604  -1.441   2.378  0.00  0.00    -0.020 C 
ATOM     16  C   UNL     1       6.199  -1.319   1.760  0.00  0.00    -0.078 C 
ATOM     17  H   UNL     1       6.440  -1.360  -0.283  0.00  0.00    -0.081 HD
ENDBRANCH   1  12
BRANCH   1  18
ATOM     18  C   UNL     1       5.458   0.985  -1.127  0.00  0.00    +0.095 C 
BRANCH  18  19
ATOM     19  N   UNL     1       5.722   0.035  -2.211  0.00  0.00    -0.300 N 
ATOM     20  C   UNL     1       6.067   0.487  -3.433  0.00  0.00    +0.304 C 
ATOM     21  O   UNL     1       6.159   1.682  -3.636  0.00  0.00    -0.253 OA
ATOM     22  N   UNL     1       6.309  -0.386  -4.430  0.00  0.00    -0.267 N 
ATOM     23  H   UNL     1       5.648  -0.918  -2.049  0.00  0.00    +0.150 HD
ATOM     24  H   UNL     1       6.296  -1.340  -4.254  0.00  0.00    +0.156 HD
BRANCH  22  25
ATOM     25  C   UNL     1       6.580   0.083  -5.722  0.00  0.00    +0.070 A 
ATOM     26  C   UNL     1       7.164   1.329  -5.901  0.00  0.00    +0.026 A 
ATOM     27  C   UNL     1       7.429   1.790  -7.176  0.00  0.00    +0.002 A 
ATOM     28  C   UNL     1       7.114   1.011  -8.275  0.00  0.00    +0.003 A 
ATOM     29  C   UNL     1       6.532  -0.231  -8.102  0.00  0.00    +0.040 A 
ATOM     30  C   UNL     1       6.269  -0.701  -6.828  0.00  0.00    +0.145 A 
ATOM     31  F   UNL     1       5.705  -1.917  -6.658  0.00  0.00    -0.204 F 
ENDBRANCH  22  25
ENDBRANCH  18  19
ENDBRANCH   1  18
TORSDOF 5
