REMARK  Name = ZINC20745768
REMARK  5 active torsions:
REMARK  status: ('A' for Active; 'I' for Inactive)
REMARK    1  A    between atoms: C_1  and  C_2
REMARK    2  A    between atoms: C_2  and  C_3
REMARK    3  A    between atoms: C_2  and  C_4
REMARK    4  A    between atoms: C_4  and  N_5
REMARK    5  A    between atoms: N_23  and  C_24
REMARK                            x       y       z     vdW  Elec       q    Type
REMARK                         _______ _______ _______ _____ _____    ______ ____
ROOT
ATOM      1  N   UNL     1      -2.105  -0.148  -1.230  0.00  0.00    -0.270 N 
ATOM      2  C   UNL     1      -2.811   1.031  -1.395  0.00  0.00    +0.041 A 
ATOM      3  C   UNL     1      -3.036   2.063  -0.484  0.00  0.00    +0.024 A 
ATOM      4  C   UNL     1      -3.788   3.142  -0.921  0.00  0.00    +0.002 A 
ATOM      5  C   UNL     1      -4.299   3.206  -2.201  0.00  0.00    +0.000 A 
ATOM      6  C   UNL     1      -4.083   2.183  -3.119  0.00  0.00    +0.007 A 
ATOM      7  C   UNL     1      -3.335   1.107  -2.692  0.00  0.00    -0.006 A 
ATOM      8  C   UNL     1      -2.910  -0.145  -3.389  0.00  0.00    +0.112 C 
ATOM      9  C   UNL     1      -2.105  -0.899  -2.353  0.00  0.00    +0.235 C 
ATOM     10  O   UNL     1      -1.563  -1.974  -2.501  0.00  0.00    -0.274 OA
ATOM     11  C   UNL     1      -4.117  -0.971  -3.827  0.00  0.00    +0.122 C 
ATOM     12  C   UNL     1      -4.705  -0.440  -5.105  0.00  0.00    +0.220 C 
ATOM     13  O   UNL     1      -5.909  -0.453  -5.248  0.00  0.00    -0.275 OA
ATOM     14  N   UNL     1      -3.934   0.050  -6.100  0.00  0.00    -0.270 N 
ATOM     15  C   UNL     1      -2.577   0.246  -5.852  0.00  0.00    +0.133 A 
ATOM     16  C   UNL     1      -2.054   0.160  -4.586  0.00  0.00    +0.032 A 
ATOM     17  C   UNL     1      -0.690   0.399  -4.671  0.00  0.00    +0.141 A 
ATOM     18  N   UNL     1      -0.389   0.633  -5.927  0.00  0.00    -0.173 NA
ATOM     19  N   UNL     1      -1.565   0.550  -6.690  0.00  0.00    -0.218 N 
ATOM     20  H   UNL     1      -4.316   0.261  -6.966  0.00  0.00    +0.156 HD
ENDROOT
BRANCH  19  21
ATOM     21  C   UNL     1      -1.669   0.749  -8.074  0.00  0.00    +0.069 A 
ATOM     22  C   UNL     1      -2.578   0.006  -8.817  0.00  0.00    +0.028 A 
ATOM     23  C   UNL     1      -2.678   0.203 -10.180  0.00  0.00    +0.003 A 
ATOM     24  C   UNL     1      -1.876   1.139 -10.806  0.00  0.00    +0.020 A 
ATOM     25  C   UNL     1      -0.969   1.881 -10.069  0.00  0.00    +0.043 A 
ATOM     26  C   UNL     1      -0.869   1.692  -8.703  0.00  0.00    +0.047 A 
ATOM     27 CL   UNL     1       0.037   3.054 -10.859  0.00  0.00    -0.083 Cl
ENDBRANCH  19  21
BRANCH   1  28
ATOM     28  C   UNL     1      -1.433  -0.534   0.013  0.00  0.00    +0.116 C 
BRANCH  28  30
ATOM     29  C   UNL     1      -0.019   1.526   0.010  0.00  0.00    +0.009 C 
ATOM     30  C   UNL     1       0.002  -0.004   0.002  0.00  0.00    +0.001 C 
ATOM     31  C   UNL     1       0.742  -0.511   1.242  0.00  0.00    +0.009 C 
ENDBRANCH  28  30
ENDBRANCH   1  28
TORSDOF 3
