REMARK  Name = ZINC63294470
REMARK  2 active torsions:
REMARK  status: ('A' for Active; 'I' for Inactive)
REMARK    1  A    between atoms: C_11  and  C_13
REMARK    2  A    between atoms: C_13  and  N_14
REMARK                            x       y       z     vdW  Elec       q    Type
REMARK                         _______ _______ _______ _____ _____    ______ ____
ROOT
ATOM      1  N   UNL     1       6.251  -2.953   2.591  0.00  0.00    -0.291 N 
ATOM      2  C   UNL     1       7.306  -2.513   3.305  0.00  0.00    +0.303 C 
ATOM      3  O   UNL     1       7.697  -1.370   3.170  0.00  0.00    -0.253 OA
ATOM      4  N   UNL     1       7.928  -3.341   4.168  0.00  0.00    -0.283 N 
ATOM      5  C   UNL     1       7.529  -4.751   4.236  0.00  0.00    +0.114 C 
ATOM      6  C   UNL     1       8.751  -5.643   3.950  0.00  0.00    +0.052 C 
ATOM      7  C   UNL     1       9.894  -5.085   4.761  0.00  0.00    -0.035 C 
ATOM      8  C   UNL     1      10.730  -5.662   5.615  0.00  0.00    +0.001 A 
ATOM      9  C   UNL     1      10.918  -7.070   5.999  0.00  0.00    +0.030 A 
ATOM     10  C   UNL     1      11.871  -7.313   6.939  0.00  0.00    +0.042 A 
ATOM     11  C   UNL     1      12.646  -6.306   7.527  0.00  0.00    +0.022 A 
ATOM     12  C   UNL     1      12.545  -4.987   7.226  0.00  0.00    +0.027 A 
ATOM     13  C   UNL     1      11.582  -4.609   6.245  0.00  0.00    +0.043 A 
ATOM     14  N   UNL     1      11.295  -3.439   5.757  0.00  0.00    -0.376 N 
ATOM     15  C   UNL     1      10.276  -3.609   4.720  0.00  0.00    +0.124 C 
ATOM     16  C   UNL     1       9.004  -2.822   5.027  0.00  0.00    +0.138 C 
ATOM     17 CL   UNL     1      12.141  -8.955   7.434  0.00  0.00    -0.084 Cl
ATOM     18  H   UNL     1       5.984  -3.884   2.644  0.00  0.00    +0.151 HD
ATOM     19  H   UNL     1      11.688  -2.596   6.033  0.00  0.00    +0.160 HD
ENDROOT
BRANCH   1  20
ATOM     20  C   UNL     1       5.507  -2.025   1.736  0.00  0.00    +0.201 C 
BRANCH  20  31
ATOM     21  C   UNL     1      -0.014   1.389   0.021  0.00  0.00    +0.000 A 
ATOM     22  C   UNL     1       1.178   2.090   0.009  0.00  0.00    +0.000 A 
ATOM     23  C   UNL     1       2.374   1.403  -0.014  0.00  0.00    +0.005 A 
ATOM     24  C   UNL     1       2.390   0.015  -0.020  0.00  0.00    -0.027 A 
ATOM     25  C   UNL     1       1.204  -0.684   0.002  0.00  0.00    -0.041 A 
ATOM     26  C   UNL     1       0.000   0.011   0.017  0.00  0.00    +0.004 A 
ATOM     27  C   UNL     1       1.143  -2.188   0.027  0.00  0.00    +0.054 C 
ATOM     28  C   UNL     1       2.454  -2.795  -0.471  0.00  0.00    +0.113 C 
ATOM     29  N   UNL     1       3.561  -2.104   0.212  0.00  0.00    -0.296 N 
ATOM     30  C   UNL     1       3.732  -0.673  -0.060  0.00  0.00    +0.143 C 
ATOM     31  C   UNL     1       4.384  -2.761   1.053  0.00  0.00    +0.233 C 
ATOM     32  O   UNL     1       4.220  -3.945   1.260  0.00  0.00    -0.274 OA
ENDBRANCH  20  31
ENDBRANCH   1  20
TORSDOF 2
