REMARK  Name = ZINC44783348
REMARK  4 active torsions:
REMARK  status: ('A' for Active; 'I' for Inactive)
REMARK    1  A    between atoms: C_1  and  N_2
REMARK    2  A    between atoms: C_8  and  C_10
REMARK    3  A    between atoms: C_10  and  C_16
REMARK    4  A    between atoms: N_17  and  O_18
REMARK                            x       y       z     vdW  Elec       q    Type
REMARK                         _______ _______ _______ _____ _____    ______ ____
ROOT
ATOM      1  C   UNL     1       2.458  -4.278   1.111  0.00  0.00    +0.109 C 
ATOM      2  C   UNL     1       1.531  -5.140   1.974  0.00  0.00    +0.052 C 
ATOM      3  C   UNL     1       0.890  -6.221   1.100  0.00  0.00    +0.161 C 
ATOM      4  O   UNL     1       1.915  -7.004   0.486  0.00  0.00    -0.380 OA
ATOM      5  C   UNL     1       2.784  -6.260  -0.371  0.00  0.00    +0.161 C 
ATOM      6  C   UNL     1       3.501  -5.181   0.445  0.00  0.00    +0.052 C 
ENDROOT
BRANCH   1  14
ATOM      7  C   UNL     1       4.414  -1.844  -4.285  0.00  0.00    +0.105 C 
ATOM      8  N   UNL     1       3.670  -1.816  -3.018  0.00  0.00    -0.302 NA
ATOM      9  C   UNL     1       2.302  -2.319  -3.200  0.00  0.00    +0.103 C 
ATOM     10  C   UNL     1       1.508  -2.106  -1.907  0.00  0.00    +0.123 C 
ATOM     11  N   UNL     1       2.252  -2.716  -0.795  0.00  0.00    -0.298 N 
ATOM     12  C   UNL     1       3.671  -2.365  -0.632  0.00  0.00    +0.123 C 
ATOM     13  C   UNL     1       4.380  -2.567  -1.975  0.00  0.00    +0.103 C 
ATOM     14  C   UNL     1       1.650  -3.574   0.052  0.00  0.00    +0.229 C 
ATOM     15  O   UNL     1       0.458  -3.779  -0.038  0.00  0.00    -0.275 OA
ENDBRANCH   1  14
BRANCH   1  16
ATOM     16  C   UNL     1       3.152  -3.259   1.977  0.00  0.00    +0.147 C 
ATOM     17  N   UNL     1       4.428  -3.334   2.166  0.00  0.00    -0.076 NA
ATOM     18  N   UNL     1       2.427  -2.247   2.567  0.00  0.00    -0.343 N 
ATOM     19  H   UNL     1       1.481  -2.152   2.372  0.00  0.00    +0.144 HD
ATOM     20  H   UNL     1       2.861  -1.631   3.176  0.00  0.00    +0.144 HD
BRANCH  17  21
ATOM     21  O   UNL     1       5.080  -2.376   2.979  0.00  0.00    -0.408 OA
ATOM     22  H   UNL     1       6.034  -2.514   3.062  0.00  0.00    +0.328 HD
ENDBRANCH  17  21
ENDBRANCH   1  16
TORSDOF 3
