REMARK  Name = ZINC01078629
REMARK  6 active torsions:
REMARK  status: ('A' for Active; 'I' for Inactive)
REMARK    1  A    between atoms: C_1  and  C_2
REMARK    2  A    between atoms: C_5  and  N_9
REMARK    3  A    between atoms: C_7  and  C_8
REMARK    4  A    between atoms: C_12  and  C_19
REMARK    5  A    between atoms: N_20  and  C_21
REMARK    6  A    between atoms: C_22  and  C_30
REMARK                            x       y       z     vdW  Elec       q    Type
REMARK                         _______ _______ _______ _____ _____    ______ ____
ROOT
ATOM      1  N   UNL     1       1.130   1.924   0.002  0.00  0.00    -0.221 N 
ATOM      2  C   UNL     1       0.034   1.307  -0.488  0.00  0.00    +0.243 C 
ATOM      3  O   UNL     1       0.093   0.182  -0.937  0.00  0.00    -0.274 OA
ATOM      4  C   UNL     1      -1.274   2.075  -0.460  0.00  0.00    +0.203 C 
ATOM      5  C   UNL     1      -1.220   3.471   0.131  0.00  0.00    +0.236 C 
ATOM      6  O   UNL     1      -2.212   4.163   0.201  0.00  0.00    -0.274 OA
ATOM      7  N   UNL     1      -0.023   3.916   0.571  0.00  0.00    -0.266 N 
ATOM      8  C   UNL     1       1.081   3.164   0.500  0.00  0.00    +0.150 C 
ATOM      9  S   UNL     1       2.539   3.840   1.092  0.00  0.00    -0.018 S 
ATOM     10  H   UNL     1       0.037   4.807   0.949  0.00  0.00    +0.157 HD
ENDROOT
BRANCH   1  15
ATOM     11  C   UNL     1       6.094  -0.827  -0.062  0.00  0.00    +0.044 C 
ATOM     12  C   UNL     1       4.776  -0.096  -0.045  0.00  0.00    -0.047 A 
ATOM     13  C   UNL     1       4.407   0.687  -1.123  0.00  0.00    +0.005 A 
ATOM     14  C   UNL     1       3.198   1.354  -1.113  0.00  0.00    +0.024 A 
ATOM     15  C   UNL     1       2.356   1.245  -0.014  0.00  0.00    +0.043 A 
ATOM     16  C   UNL     1       2.729   0.458   1.067  0.00  0.00    +0.027 A 
ATOM     17  C   UNL     1       3.938  -0.210   1.049  0.00  0.00    -0.046 A 
ATOM     18  C   UNL     1       4.344  -1.064   2.222  0.00  0.00    +0.044 C 
ENDBRANCH   1  15
BRANCH   4  19
ATOM     19  C   UNL     1      -2.272   1.272   0.334  0.00  0.00    +0.107 C 
ATOM     20  N   UNL     1      -3.370   0.872  -0.223  0.00  0.00    -0.250 NA
BRANCH  20  21
ATOM     21  C   UNL     1      -4.272   0.147   0.495  0.00  0.00    +0.119 A 
ATOM     22  C   UNL     1      -5.503  -0.375   0.092  0.00  0.00    +0.088 A 
ATOM     23  C   UNL     1      -6.266  -1.099   1.024  0.00  0.00    -0.018 A 
ATOM     24  C   UNL     1      -5.743  -1.238   2.268  0.00  0.00    -0.004 A 
ATOM     25  S   UNL     1      -4.188  -0.390   2.196  0.00  0.00    -0.073 S 
ATOM     26  C   UNL     1      -6.349  -1.954   3.434  0.00  0.00    +0.043 C 
ATOM     27  C   UNL     1      -7.833  -2.204   3.131  0.00  0.00    +0.005 C 
ATOM     28  C   UNL     1      -7.954  -2.785   1.719  0.00  0.00    +0.005 C 
ATOM     29  C   UNL     1      -7.623  -1.711   0.684  0.00  0.00    +0.037 C 
BRANCH  22  30
ATOM     30  C   UNL     1      -5.977  -0.178  -1.245  0.00  0.00    +0.102 C 
ATOM     31  N   UNL     1      -6.354  -0.022  -2.305  0.00  0.00    -0.191 NA
ENDBRANCH  22  30
ENDBRANCH  20  21
ENDBRANCH   4  19
TORSDOF 4
