REMARK  Name = ZINC63743230
REMARK  6 active torsions:
REMARK  status: ('A' for Active; 'I' for Inactive)
REMARK    1  A    between atoms: C_1  and  C_2
REMARK    2  A    between atoms: C_8  and  C_11
REMARK    3  A    between atoms: C_11  and  C_12
REMARK    4  A    between atoms: C_12  and  N_13
REMARK    5  A    between atoms: C_14  and  C_16
REMARK    6  A    between atoms: N_19  and  C_22
REMARK                            x       y       z     vdW  Elec       q    Type
REMARK                         _______ _______ _______ _____ _____    ______ ____
ROOT
ATOM      1  C   UNL     1      -2.390  -2.416   7.795  0.00  0.00    +0.077 C 
ATOM      2  C   UNL     1      -1.719  -3.599   8.499  0.00  0.00    +0.028 C 
ATOM      3  C   UNL     1      -1.749  -3.369  10.012  0.00  0.00    +0.088 C 
ATOM      4  N   UNL     1      -3.141  -3.236  10.460  0.00  0.00    -0.275 NA
ATOM      5  C   UNL     1      -3.792  -2.078   9.834  0.00  0.00    +0.088 C 
ATOM      6  C   UNL     1      -3.822  -2.268   8.316  0.00  0.00    +0.028 C 
ENDROOT
BRANCH   4   7
ATOM      7  C   UNL     1      -3.216  -3.153  11.925  0.00  0.00    +0.224 C 
ATOM      8  N   UNL     1      -2.316  -2.099  12.461  0.00  0.00    -0.253 N 
ATOM      9  N   UNL     1      -1.729  -2.393  13.660  0.00  0.00    -0.204 N 
ATOM     10  C   UNL     1      -1.238  -1.474  14.542  0.00  0.00    +0.275 A 
ATOM     11  O   UNL     1      -1.354  -0.283  14.303  0.00  0.00    -0.266 OA
ATOM     12  C   UNL     1      -0.600  -1.888  15.725  0.00  0.00    +0.040 A 
ATOM     13  C   UNL     1      -0.489  -3.215  15.991  0.00  0.00    +0.053 A 
ATOM     14  N   UNL     1      -0.999  -4.093  15.119  0.00  0.00    -0.226 NA
ATOM     15  C   UNL     1      -1.601  -3.708  14.027  0.00  0.00    +0.192 A 
ATOM     16  S   UNL     1      -2.429  -4.614  12.730  0.00  0.00    -0.046 S 
ATOM     17  C   UNL     1       0.174  -3.750  17.231  0.00  0.00    +0.056 C 
ATOM     18  C   UNL     1       1.037  -2.674  17.887  0.00  0.00    +0.006 C 
ATOM     19  C   UNL     1       0.191  -1.405  18.040  0.00  0.00    +0.005 C 
ATOM     20  C   UNL     1      -0.065  -0.826  16.649  0.00  0.00    +0.042 C 
ATOM     21  H   UNL     1      -1.625  -1.831  11.776  0.00  0.00    +0.169 HD
ENDBRANCH   4   7
BRANCH   1  23
ATOM     22  N   UNL     1      -1.263  -2.825   5.632  0.00  0.00    -0.315 N 
ATOM     23  C   UNL     1      -2.417  -2.663   6.309  0.00  0.00    +0.216 C 
ATOM     24  O   UNL     1      -3.477  -2.717   5.722  0.00  0.00    -0.276 OA
ATOM     25  H   UNL     1      -0.415  -2.783   6.101  0.00  0.00    +0.149 HD
BRANCH  22  26
ATOM     26  C   UNL     1      -1.289  -3.066   4.187  0.00  0.00    +0.108 C 
BRANCH  26  27
ATOM     27  C   UNL     1       0.143  -3.213   3.668  0.00  0.00    +0.052 C 
BRANCH  27  35
ATOM     28  C   UNL     1       0.715   1.080   0.072  0.00  0.00    +0.044 C 
ATOM     29  C   UNL     1       0.520  -0.414   0.052  0.00  0.00    -0.050 A 
ATOM     30  C   UNL     1       0.438  -1.075  -1.181  0.00  0.00    +0.005 A 
ATOM     31  C   UNL     1       0.264  -2.410  -1.283  0.00  0.00    +0.026 A 
ATOM     32  C   UNL     1       0.156  -3.212  -0.114  0.00  0.00    +0.043 A 
ATOM     33  N   UNL     1      -0.013  -4.502   0.048  0.00  0.00    -0.380 N 
ATOM     34  C   UNL     1      -0.056  -4.792   1.485  0.00  0.00    +0.144 C 
ATOM     35  C   UNL     1       0.116  -3.461   2.182  0.00  0.00    -0.040 C 
ATOM     36  C   UNL     1       0.240  -2.538   1.202  0.00  0.00    -0.001 A 
ATOM     37  C   UNL     1       0.435  -1.083   1.224  0.00  0.00    +0.013 A 
ATOM     38  H   UNL     1      -0.097  -5.156  -0.664  0.00  0.00    +0.160 HD
ENDBRANCH  27  35
ENDBRANCH  26  27
ENDBRANCH  22  26
ENDBRANCH   1  23
TORSDOF 5
