REMARK  Name = ZINC40581568
REMARK  6 active torsions:
REMARK  status: ('A' for Active; 'I' for Inactive)
REMARK    1  A    between atoms: CD1_1  and  CG1_2
REMARK    2  A    between atoms: CG1_2  and  CB_3
REMARK    3  A    between atoms: CB_3  and  CG2_5
REMARK    4  A    between atoms: CB_3  and  CA_6
REMARK    5  A    between atoms: CA_6  and  C_8
REMARK    6  A    between atoms: CA_6  and  N_11
REMARK                            x       y       z     vdW  Elec       q    Type
REMARK                         _______ _______ _______ _____ _____    ______ ____
ROOT
ATOM      1  N   ILE A   1      -2.788  -2.557  -0.226  0.00  0.00    -0.286 N 
ATOM      2  C   UNK A   0      -3.034  -3.730  -0.842  0.00  0.00    +0.303 C 
ATOM      3  O   UNK A   0      -2.129  -4.332  -1.387  0.00  0.00    -0.253 OA
ATOM      4  N   UNK A   0      -4.284  -4.236  -0.855  0.00  0.00    -0.283 N 
ATOM      5  C   UNK A   0      -4.521  -5.566  -1.419  0.00  0.00    +0.132 C 
ATOM      6  C   UNK A   0      -4.996  -6.513  -0.312  0.00  0.00    +0.185 C 
ATOM      7  S   UNK A   0      -6.501  -5.827   0.441  0.00  0.00    -0.028 S 
ATOM      8  O   UNK A   0      -6.795  -6.567   1.618  0.00  0.00    -0.174 OA
ATOM      9  O   UNK A   0      -7.495  -5.706  -0.568  0.00  0.00    -0.174 OA
ATOM     10  C   UNK A   0      -5.960  -4.161   0.925  0.00  0.00    +0.185 C 
ATOM     11  C   UNK A   0      -5.388  -3.452  -0.300  0.00  0.00    +0.132 C 
ATOM     12  H   ILE A   1      -3.521  -2.041   0.146  0.00  0.00    +0.151 HD
ENDROOT
BRANCH   1  13
ATOM     13  CA  ILE A   1      -1.414  -2.061  -0.117  0.00  0.00    +0.190 C 
BRANCH  13  14
ATOM     14  C   ILE A   1      -0.755  -2.670   1.094  0.00  0.00    +0.376 C 
ATOM     15  O   ILE A   1      -1.425  -2.972   2.066  0.00  0.00    -0.244 OA
ATOM     16  OXT ILE A   1       0.449  -2.861   1.100  0.00  0.00    -0.244 OA
ENDBRANCH  13  14
BRANCH  13  17
ATOM     17  CB  ILE A   1      -1.432  -0.537   0.025  0.00  0.00    +0.017 C 
ATOM     18  CG2 ILE A   1      -2.106  -0.155   1.344  0.00  0.00    +0.010 C 
BRANCH  17  20
ATOM     19  CD1 ILE A   1      -0.018   1.522   0.029  0.00  0.00    +0.004 C 
ATOM     20  CG1 ILE A   1       0.003  -0.007   0.013  0.00  0.00    +0.002 C 
ENDBRANCH  17  20
ENDBRANCH  13  17
ENDBRANCH   1  13
TORSDOF 4
