REMARK  Name = ZINC08890197
REMARK  8 active torsions:
REMARK  status: ('A' for Active; 'I' for Inactive)
REMARK    1  A    between atoms: C_1  and  C_2
REMARK    2  A    between atoms: C_3  and  C_30
REMARK    3  A    between atoms: C_5  and  N_11
REMARK    4  A    between atoms: C_6  and  C_7
REMARK    5  A    between atoms: C_7  and  O_9
REMARK    6  A    between atoms: O_9  and  C_10
REMARK    7  A    between atoms: C_12  and  C_14
REMARK    8  A    between atoms: C_14  and  N_15
REMARK                            x       y       z     vdW  Elec       q    Type
REMARK                         _______ _______ _______ _____ _____    ______ ____
ROOT
ATOM      1  C   UNL     1      -1.813  -2.029  -2.511  0.00  0.00    +0.214 C 
ENDROOT
BRANCH   1   2
ATOM      2  N   UNL     1      -1.273  -1.303  -1.359  0.00  0.00    -0.215 N 
ATOM      3  C   UNL     1      -0.155  -0.544  -1.395  0.00  0.00    +0.251 C 
ATOM      4  O   UNL     1       0.566  -0.342  -2.348  0.00  0.00    -0.272 OA
ATOM      5  C   UNL     1       0.002  -0.004   0.002  0.00  0.00    +0.138 C 
ATOM      6  C   UNL     1      -0.019   1.530   0.011  0.00  0.00    +0.045 C 
ATOM      7  C   UNL     1       1.487   1.876  -0.002  0.00  0.00    +0.038 C 
ATOM      8  C   UNL     1       2.177   0.676   0.613  0.00  0.00    -0.042 A 
ATOM      9  C   UNL     1       1.317  -0.410   0.610  0.00  0.00    -0.012 A 
ATOM     10  C   UNL     1       1.744  -1.624   1.124  0.00  0.00    +0.006 A 
ATOM     11  C   UNL     1       3.018  -1.753   1.640  0.00  0.00    +0.000 A 
ATOM     12  C   UNL     1       3.874  -0.668   1.644  0.00  0.00    +0.000 A 
ATOM     13  C   UNL     1       3.453   0.543   1.131  0.00  0.00    +0.004 A 
ATOM     14  N   UNL     1      -1.133  -0.558   0.742  0.00  0.00    -0.281 N 
ATOM     15  C   UNL     1      -1.826  -1.307  -0.139  0.00  0.00    +0.310 C 
ATOM     16  O   UNL     1      -2.838  -1.919   0.142  0.00  0.00    -0.252 OA
ATOM     17  H   UNL     1      -1.344  -0.414   1.678  0.00  0.00    +0.152 HD
ENDBRANCH   1   2
BRANCH   1  19
ATOM     18  N   UNL     1      -1.570  -4.266  -3.538  0.00  0.00    -0.278 N 
ATOM     19  C   UNL     1      -1.217  -3.413  -2.557  0.00  0.00    +0.236 C 
ATOM     20  O   UNL     1      -0.420  -3.758  -1.710  0.00  0.00    -0.274 OA
ATOM     21  H   UNL     1      -2.207  -3.991  -4.215  0.00  0.00    +0.155 HD
BRANCH  18  26
ATOM     22  C   UNL     1      -0.721  -8.959  -5.240  0.00  0.00    +0.045 C 
ATOM     23  C   UNL     1      -0.544  -7.791  -4.304  0.00  0.00    -0.025 A 
ATOM     24  C   UNL     1       0.285  -7.859  -3.248  0.00  0.00    -0.008 A 
ATOM     25  S   UNL     1       0.123  -6.253  -2.495  0.00  0.00    -0.078 S 
ATOM     26  C   UNL     1      -1.022  -5.539  -3.580  0.00  0.00    +0.086 A 
ATOM     27  C   UNL     1      -1.263  -6.554  -4.500  0.00  0.00    +0.091 A 
ATOM     28  C   UNL     1       1.144  -9.016  -2.807  0.00  0.00    +0.052 C 
BRANCH  27  29
ATOM     29  C   UNL     1      -2.196  -6.375  -5.614  0.00  0.00    +0.342 C 
ATOM     30  O   UNL     1      -1.796  -5.943  -6.679  0.00  0.00    -0.245 OA
BRANCH  29  31
ATOM     31  O   UNL     1      -3.498  -6.690  -5.460  0.00  0.00    -0.464 OA
ATOM     32  C   UNL     1      -4.365  -6.487  -6.607  0.00  0.00    +0.280 C 
ENDBRANCH  29  31
ENDBRANCH  27  29
ENDBRANCH  18  26
ENDBRANCH   1  19
TORSDOF 5
