REMARK  Name = ZINC48866201
REMARK  7 active torsions:
REMARK  status: ('A' for Active; 'I' for Inactive)
REMARK    1  A    between atoms: C_4  and  S_11
REMARK    2  A    between atoms: C_5  and  C_7
REMARK    3  A    between atoms: C_8  and  C_9
REMARK    4  A    between atoms: C_9  and  N_10
REMARK    5  A    between atoms: S_11  and  N_14
REMARK    6  A    between atoms: C_18  and  C_20
REMARK    7  A    between atoms: C_20  and  O_21
REMARK                            x       y       z     vdW  Elec       q    Type
REMARK                         _______ _______ _______ _____ _____    ______ ____
ROOT
ATOM      1  C   UNL     1       0.074   1.531   0.074  0.00  0.00    +0.001 A 
ATOM      2  C   UNL     1       1.287   2.194   0.022  0.00  0.00    +0.002 A 
ATOM      3  C   UNL     1       2.472   1.481  -0.013  0.00  0.00    +0.030 A 
ATOM      4  C   UNL     1       2.450   0.101   0.004  0.00  0.00    +0.121 A 
ATOM      5  C   UNL     1       1.230  -0.574   0.056  0.00  0.00    +0.051 A 
ATOM      6  C   UNL     1       0.039   0.152   0.091  0.00  0.00    +0.019 A 
ENDROOT
BRANCH   4   7
ATOM      7  S   UNL     1       3.960  -0.806  -0.042  0.00  0.00    +0.062 S 
ATOM      8  O   UNL     1       3.775  -1.856  -0.982  0.00  0.00    -0.153 OA
ATOM      9  O   UNL     1       5.005   0.150  -0.163  0.00  0.00    -0.153 OA
BRANCH   7  10
ATOM     10  N   UNL     1       4.145  -1.524   1.439  0.00  0.00    -0.171 NA
ATOM     11  C   UNL     1       4.686  -0.875   2.647  0.00  0.00    +0.110 C 
ATOM     12  C   UNL     1       4.094  -1.682   3.830  0.00  0.00    +0.019 C 
ATOM     13  C   UNL     1       4.114  -3.126   3.262  0.00  0.00    +0.024 C 
ATOM     14  C   UNL     1       3.791  -2.912   1.768  0.00  0.00    +0.105 C 
BRANCH  14  15
ATOM     15  C   UNL     1       4.619  -3.877   0.917  0.00  0.00    +0.176 C 
BRANCH  15  16
ATOM     16  O   UNL     1       6.000  -3.751   1.262  0.00  0.00    -0.393 OA
ATOM     17  H   UNL     1       6.585  -4.335   0.760  0.00  0.00    +0.209 HD
ENDBRANCH  15  16
ENDBRANCH  14  15
ENDBRANCH   7  10
ENDBRANCH   4   7
BRANCH   5  18
ATOM     18  C   UNL     1       1.201  -2.006   0.073  0.00  0.00    -0.066 C 
ATOM     19  C   UNL     1       1.177  -3.179   0.088  0.00  0.00    -0.117 C 
BRANCH  19  20
ATOM     20  C   UNL     1       1.147  -4.651   0.105  0.00  0.00    +0.005 C 
BRANCH  20  21
ATOM     21  N   UNL     1      -0.247  -5.111   0.162  0.00  0.00    +0.385 N 
ATOM     22  H   UNL     1      -0.685  -4.756   0.999  0.00  0.00    -0.089 HD
ATOM     23  H   UNL     1      -0.746  -4.774  -0.648  0.00  0.00    -0.089 HD
ATOM     24  H   UNL     1      -0.268  -6.120   0.174  0.00  0.00    -0.089 HD
ENDBRANCH  20  21
ENDBRANCH  19  20
ENDBRANCH   5  18
TORSDOF 7
