REMARK  Name = ZINC63167987
REMARK  5 active torsions:
REMARK  status: ('A' for Active; 'I' for Inactive)
REMARK    1  A    between atoms: C_2  and  C_3
REMARK    2  A    between atoms: C_3  and  N_4
REMARK    3  A    between atoms: C_11  and  O_30
REMARK    4  A    between atoms: C_13  and  C_16
REMARK    5  A    between atoms: C_16  and  N_18
REMARK                            x       y       z     vdW  Elec       q    Type
REMARK                         _______ _______ _______ _____ _____    ______ ____
ROOT
ATOM      1  N   UNL     1       1.367  -1.676   1.111  0.00  0.00    -0.263 N 
ATOM      2  C   UNL     1       1.877  -1.260   2.345  0.00  0.00    +0.043 A 
ATOM      3  C   UNL     1       2.660  -0.115   2.418  0.00  0.00    +0.024 A 
ATOM      4  C   UNL     1       3.168   0.296   3.635  0.00  0.00    +0.002 A 
ATOM      5  C   UNL     1       2.896  -0.433   4.778  0.00  0.00    +0.000 A 
ATOM      6  C   UNL     1       2.116  -1.571   4.708  0.00  0.00    +0.008 A 
ATOM      7  C   UNL     1       1.601  -1.988   3.493  0.00  0.00    +0.007 A 
ATOM      8  C   UNL     1       0.745  -3.223   3.435  0.00  0.00    +0.187 C 
ATOM      9  C   UNL     1       0.614  -3.728   2.029  0.00  0.00    +0.111 C 
ATOM     10  C   UNL     1       0.910  -2.959   0.958  0.00  0.00    +0.255 C 
ATOM     11  O   UNL     1       0.756  -3.466  -0.284  0.00  0.00    -0.270 OA
ENDROOT
BRANCH   9  12
ATOM     12  C   UNL     1       0.162  -5.049   1.817  0.00  0.00    +0.273 C 
ATOM     13  O   UNL     1       0.049  -5.481   0.680  0.00  0.00    -0.268 OA
BRANCH  12  14
ATOM     14  N   UNL     1      -0.143  -5.832   2.867  0.00  0.00    -0.152 NA
ATOM     15  C   UNL     1      -0.567  -7.071   2.669  0.00  0.00    +0.164 A 
ATOM     16  N   UNL     1      -0.753  -7.733   1.490  0.00  0.00    -0.335 N 
ATOM     17  H   UNL     1      -0.565  -7.286   0.650  0.00  0.00    +0.168 HD
ATOM     18  C   UNL     1      -1.208  -9.040   1.489  0.00  0.00    +0.055 A 
ATOM     19  C   UNL     1      -1.452  -9.860   0.374  0.00  0.00    +0.028 A 
ATOM     20  C   UNL     1      -1.906 -11.148   0.530  0.00  0.00    +0.022 A 
ATOM     21  C   UNL     1      -2.139 -11.680   1.788  0.00  0.00    +0.042 A 
ATOM     22  C   UNL     1      -1.907 -10.895   2.905  0.00  0.00    +0.037 A 
ATOM     23  C   UNL     1      -1.453  -9.607   2.748  0.00  0.00    +0.040 A 
ATOM     24  S   UNL     1      -1.032  -8.301   3.877  0.00  0.00    -0.052 S 
ATOM     25 CL   UNL     1      -2.714 -13.309   1.961  0.00  0.00    -0.084 Cl
ENDBRANCH  12  14
ENDBRANCH   9  12
BRANCH   8  26
ATOM     26  O   UNL     1      -0.555  -2.915   3.943  0.00  0.00    -0.382 OA
ATOM     27  H   UNL     1      -1.167  -3.664   3.938  0.00  0.00    +0.211 HD
ENDBRANCH   8  26
BRANCH   1  28
ATOM     28  C   UNL     1       1.317  -0.740  -0.015  0.00  0.00    +0.140 C 
BRANCH  28  30
ATOM     29  C   UNL     1      -0.016   1.306   0.009  0.00  0.00    +0.005 C 
ATOM     30  C   UNL     1       0.002  -0.004   0.002  0.00  0.00    -0.015 C 
ENDBRANCH  28  30
ENDBRANCH   1  28
TORSDOF 5
