REMARK  Name = ZINC48951350
REMARK  5 active torsions:
REMARK  status: ('A' for Active; 'I' for Inactive)
REMARK    1  A    between atoms: C_1  and  N_2
REMARK    2  A    between atoms: N_2  and  C_3
REMARK    3  A    between atoms: C_3  and  C_4
REMARK    4  A    between atoms: C_15  and  O_23
REMARK    5  A    between atoms: C_18  and  C_20
REMARK                            x       y       z     vdW  Elec       q    Type
REMARK                         _______ _______ _______ _____ _____    ______ ____
ROOT
ATOM      1  C   UNL     1       0.693   1.148  -0.073  0.00  0.00    +0.133 C 
ATOM      2  N   UNL     1       0.133  -0.205  -0.121  0.00  0.00    -0.286 N 
ATOM      3  C   UNL     1      -0.239  -0.738  -1.302  0.00  0.00    +0.305 C 
ATOM      4  O   UNL     1      -0.623  -1.891  -1.354  0.00  0.00    -0.252 OA
ATOM      5  N   UNL     1      -0.185   0.006  -2.425  0.00  0.00    -0.269 N 
ATOM      6  C   UNL     1      -0.371  -0.496  -3.798  0.00  0.00    +0.141 C 
ATOM      7  C   UNL     1       0.371   0.524  -4.697  0.00  0.00    +0.134 C 
ATOM      8  C   UNL     1       0.065   1.860  -3.970  0.00  0.00    +0.067 C 
ATOM      9  C   UNL     1       0.064   1.454  -2.482  0.00  0.00    +0.193 C 
ENDROOT
BRANCH   9  10
ATOM     10  C   UNL     1      -1.026   2.190  -1.747  0.00  0.00    +0.376 C 
ATOM     11  O   UNL     1      -0.909   3.382  -1.517  0.00  0.00    -0.244 OA
ATOM     12  O   UNL     1      -2.026   1.595  -1.383  0.00  0.00    -0.244 OA
ENDBRANCH   9  10
BRANCH   7  13
ATOM     13  O   UNL     1       1.776   0.261  -4.718  0.00  0.00    -0.390 OA
ATOM     14  H   UNL     1       2.008  -0.607  -5.075  0.00  0.00    +0.210 HD
ENDBRANCH   7  13
BRANCH   2  15
ATOM     15  C   UNL     1      -0.024  -0.978   1.113  0.00  0.00    +0.140 C 
BRANCH  15  16
ATOM     16  C   UNL     1      -1.404  -0.704   1.715  0.00  0.00    +0.136 C 
ATOM     17  C   UNL     1      -1.567  -1.511   3.005  0.00  0.00    +0.033 C 
ATOM     18  C   UNL     1      -2.926  -1.186   3.633  0.00  0.00    +0.005 C 
ATOM     19  C   UNL     1      -3.016   0.323   3.876  0.00  0.00    +0.028 C 
ATOM     20  C   UNL     1      -2.797   1.060   2.552  0.00  0.00    +0.160 C 
ATOM     21  O   UNL     1      -1.529   0.689   2.007  0.00  0.00    -0.375 OA
ENDBRANCH  15  16
ENDBRANCH   2  15
TORSDOF 4
