REMARK  Name = ZINC01419193
REMARK  3 active torsions:
REMARK  status: ('A' for Active; 'I' for Inactive)
REMARK    1  A    between atoms: C_1  and  C_2
REMARK    2  A    between atoms: C_4  and  C_9
REMARK    3  A    between atoms: C_14  and  O_15
REMARK                            x       y       z     vdW  Elec       q    Type
REMARK                         _______ _______ _______ _____ _____    ______ ____
ROOT
ATOM      1  C   UNL     1      -0.018   1.503   0.010  0.00  0.00    +0.088 C 
ATOM      2  C   UNL     1       0.002  -0.004   0.002  0.00  0.00    +0.132 A 
ATOM      3  N   UNL     1       0.006  -0.657  -1.147  0.00  0.00    -0.213 NA
ATOM      4  C   UNL     1       0.024  -1.988  -1.158  0.00  0.00    +0.169 A 
ATOM      5  N   UNL     1       0.039  -2.661  -0.011  0.00  0.00    -0.195 NA
ATOM      6  C   UNL     1       0.035  -2.000   1.141  0.00  0.00    +0.216 A 
ATOM      7  N   UNL     1       0.022  -0.669   1.144  0.00  0.00    -0.200 NA
ATOM      8  N   UNL     1       0.051  -2.693   2.335  0.00  0.00    -0.327 N 
ATOM      9  H   UNL     1       0.064  -3.663   2.333  0.00  0.00    +0.145 HD
ATOM     10  H   UNL     1       0.048  -2.210   3.176  0.00  0.00    +0.145 HD
ENDROOT
BRANCH   4  11
ATOM     11  C   UNL     1       0.028  -2.719  -2.446  0.00  0.00    +0.063 A 
ATOM     12  C   UNL     1       0.017  -2.016  -3.651  0.00  0.00    +0.030 A 
ATOM     13  C   UNL     1       0.021  -2.702  -4.848  0.00  0.00    +0.020 A 
ATOM     14  C   UNL     1       0.035  -4.087  -4.859  0.00  0.00    +0.034 A 
ATOM     15  C   UNL     1       0.045  -4.794  -3.672  0.00  0.00    +0.061 A 
ATOM     16  C   UNL     1       0.047  -4.118  -2.460  0.00  0.00    +0.141 A 
ATOM     17 BR   UNL     1       0.064  -6.685  -3.698  0.00  0.00    -0.046 Br
ATOM     18 BR   UNL     1       0.006  -1.748  -6.480  0.00  0.00    -0.050 Br
BRANCH  16  19
ATOM     19  O   UNL     1       0.063  -4.811  -1.293  0.00  0.00    -0.505 OA
ATOM     20  H   UNL     1      -0.816  -5.024  -0.950  0.00  0.00    +0.292 HD
ENDBRANCH  16  19
ENDBRANCH   4  11
TORSDOF 2
