REMARK  Name = ZINC52982877
REMARK  4 active torsions:
REMARK  status: ('A' for Active; 'I' for Inactive)
REMARK    1  A    between atoms: C_1  and  C_2
REMARK    2  A    between atoms: C_6  and  C_8
REMARK    3  A    between atoms: C_8  and  C_10
REMARK    4  A    between atoms: C_8  and  N_23
REMARK                            x       y       z     vdW  Elec       q    Type
REMARK                         _______ _______ _______ _____ _____    ______ ____
ROOT
ATOM      1  C   UNL     1       0.053  -2.843   2.491  0.00  0.00    -0.009 C 
ENDROOT
BRANCH   1   2
ATOM      2  C   UNL     1      -1.355  -3.222   2.869  0.00  0.00    -0.042 A 
ATOM      3  C   UNL     1      -2.422  -2.691   2.170  0.00  0.00    +0.031 A 
ATOM      4  C   UNL     1      -3.718  -3.040   2.517  0.00  0.00    +0.067 A 
ATOM      5  C   UNL     1      -3.940  -3.927   3.573  0.00  0.00    +0.068 A 
ATOM      6  C   UNL     1      -2.864  -4.455   4.269  0.00  0.00    +0.043 A 
ATOM      7  C   UNL     1      -1.575  -4.106   3.911  0.00  0.00    +0.022 A 
ATOM      8 BR   UNL     1      -0.107  -4.833   4.855  0.00  0.00    -0.050 Br
ATOM      9  N   UNL     1      -5.320  -4.083   3.683  0.00  0.00    -0.306 N 
ATOM     10  H   UNL     1      -5.778  -4.642   4.331  0.00  0.00    +0.170 HD
ATOM     11  C   UNL     1      -5.910  -3.326   2.739  0.00  0.00    +0.325 A 
ATOM     12  O   UNL     1      -7.110  -3.235   2.563  0.00  0.00    -0.247 OA
ATOM     13  N   UNL     1      -4.970  -2.684   2.020  0.00  0.00    -0.306 N 
ATOM     14  H   UNL     1      -5.136  -2.078   1.281  0.00  0.00    +0.170 HD
ENDBRANCH   1   2
BRANCH   1  20
ATOM     15  C   UNL     1      -0.099   1.190  -0.469  0.00  0.00    +0.044 C 
ATOM     16  C   UNL     1      -0.016  -0.306  -0.305  0.00  0.00    -0.050 A 
ATOM     17  C   UNL     1       0.063  -1.120  -1.420  0.00  0.00    +0.006 A 
ATOM     18  C   UNL     1       0.139  -2.492  -1.271  0.00  0.00    +0.039 A 
ATOM     19  C   UNL     1       0.136  -3.051  -0.004  0.00  0.00    +0.125 A 
ATOM     20  C   UNL     1       0.057  -2.235   1.111  0.00  0.00    -0.022 A 
ATOM     21  C   UNL     1      -0.014  -0.863   0.960  0.00  0.00    +0.008 A 
ATOM     22  F   UNL     1       0.210  -4.392   0.143  0.00  0.00    -0.205 F 
ENDBRANCH   1  20
BRANCH   1  23
ATOM     23  N   UNL     1       0.573  -1.866   3.457  0.00  0.00    +0.385 N 
ATOM     24  H   UNL     1      -0.010  -1.043   3.450  0.00  0.00    -0.089 HD
ATOM     25  H   UNL     1       0.571  -2.273   4.380  0.00  0.00    -0.089 HD
ATOM     26  H   UNL     1       1.516  -1.612   3.204  0.00  0.00    -0.089 HD
ENDBRANCH   1  23
TORSDOF 3
