REMARK  Name = ZINC37063786
REMARK  4 active torsions:
REMARK  status: ('A' for Active; 'I' for Inactive)
REMARK    1  A    between atoms: C_3  and  S_9
REMARK    2  A    between atoms: C_4  and  N_8
REMARK    3  A    between atoms: S_9  and  N_12
REMARK    4  A    between atoms: N_12  and  C_13
REMARK                            x       y       z     vdW  Elec       q    Type
REMARK                         _______ _______ _______ _____ _____    ______ ____
ROOT
ATOM      1  S   UNL     1       3.649   2.457   0.132  0.00  0.00    +0.074 S 
ATOM      2  O   UNL     1       4.515   2.140  -0.949  0.00  0.00    -0.150 OA
ATOM      3  O   UNL     1       3.111   3.758   0.322  0.00  0.00    -0.150 OA
ENDROOT
BRANCH   1   6
ATOM      4  C   UNL     1       1.137  -0.426  -1.103  0.00  0.00    +0.017 A 
ATOM      5  C   UNL     1       2.212   0.439  -1.012  0.00  0.00    +0.032 A 
ATOM      6  C   UNL     1       2.278   1.356   0.018  0.00  0.00    +0.129 A 
ATOM      7  C   UNL     1       1.262   1.411   0.964  0.00  0.00    +0.053 A 
ATOM      8  C   UNL     1       0.183   0.541   0.870  0.00  0.00    +0.040 A 
ATOM      9  C   UNL     1       0.123  -0.375  -0.163  0.00  0.00    +0.020 A 
ATOM     10 BR   UNL     1      -1.345  -1.559  -0.292  0.00  0.00    -0.050 Br
BRANCH   7  11
ATOM     11  N   UNL     1       1.325   2.337   2.006  0.00  0.00    -0.356 N 
ATOM     12  H   UNL     1       2.042   2.990   2.032  0.00  0.00    +0.142 HD
ATOM     13  H   UNL     1       0.652   2.329   2.705  0.00  0.00    +0.142 HD
ENDBRANCH   7  11
ENDBRANCH   1   6
BRANCH   1  14
ATOM     14  N   UNL     1       4.467   2.076   1.521  0.00  0.00    -0.213 N 
ATOM     15  H   UNL     1       4.576   2.743   2.218  0.00  0.00    +0.174 HD
BRANCH  14  16
ATOM     16  C   UNL     1       5.002   0.794   1.690  0.00  0.00    +0.086 A 
ATOM     17  C   UNL     1       5.522   0.109   0.600  0.00  0.00    +0.030 A 
ATOM     18  C   UNL     1       6.049  -1.157   0.767  0.00  0.00    +0.043 A 
ATOM     19  C   UNL     1       6.060  -1.745   2.020  0.00  0.00    +0.161 A 
ATOM     20  C   UNL     1       5.542  -1.065   3.111  0.00  0.00    +0.195 A 
ATOM     21  C   UNL     1       5.018   0.206   2.949  0.00  0.00    +0.183 A 
ATOM     22  F   UNL     1       4.517   0.873   4.013  0.00  0.00    -0.200 F 
ATOM     23  F   UNL     1       5.552  -1.641   4.333  0.00  0.00    -0.199 F 
ATOM     24  F   UNL     1       6.575  -2.984   2.180  0.00  0.00    -0.202 F 
ENDBRANCH  14  16
ENDBRANCH   1  14
TORSDOF 4
