REMARK  Name = ZINC39747500
REMARK  2 active torsions:
REMARK  status: ('A' for Active; 'I' for Inactive)
REMARK    1  A    between atoms: C_7  and  C_10
REMARK    2  A    between atoms: C_16  and  C_18
REMARK                            x       y       z     vdW  Elec       q    Type
REMARK                         _______ _______ _______ _____ _____    ______ ____
ROOT
ATOM      1  C   UNL     1      -4.375   3.101   0.060  0.00  0.00    +0.249 C 
ATOM      2  O   UNL     1      -3.621   4.053   0.137  0.00  0.00    -0.270 OA
ATOM      3  N   UNL     1      -5.705   3.300  -0.028  0.00  0.00    -0.292 N 
ATOM      4  C   UNL     1      -6.734   2.244  -0.030  0.00  0.00    +0.108 C 
ATOM      5  C   UNL     1      -7.951   2.878  -0.748  0.00  0.00    +0.021 C 
ATOM      6  C   UNL     1      -7.887   4.342  -0.237  0.00  0.00    +0.027 C 
ATOM      7  C   UNL     1      -6.370   4.607  -0.131  0.00  0.00    +0.107 C 
ENDROOT
BRANCH   1  14
ATOM      8  C   UNL     1      -0.441   1.208  -1.641  0.00  0.00    +0.001 A 
ATOM      9  C   UNL     1      -0.363  -0.154  -1.392  0.00  0.00    +0.002 A 
ATOM     10  C   UNL     1      -1.372  -0.804  -0.714  0.00  0.00    +0.026 A 
ATOM     11  C   UNL     1      -2.481  -0.091  -0.273  0.00  0.00    +0.047 A 
ATOM     12  N   UNL     1      -3.622  -0.451   0.415  0.00  0.00    -0.360 N 
ATOM     13  C   UNL     1      -4.417   0.628   0.610  0.00  0.00    +0.096 A 
ATOM     14  C   UNL     1      -3.836   1.734   0.063  0.00  0.00    +0.062 A 
ATOM     15  C   UNL     1      -2.559   1.288  -0.525  0.00  0.00    +0.012 A 
ATOM     16  C   UNL     1      -1.530   1.933  -1.206  0.00  0.00    +0.011 A 
ATOM     17  H   UNL     1      -3.827  -1.350   0.715  0.00  0.00    +0.165 HD
ENDBRANCH   1  14
BRANCH   7  18
ATOM     18  C   UNL     1      -6.071   5.444   1.114  0.00  0.00    +0.154 C 
ATOM     19  N   UNL     1      -6.879   6.671   1.133  0.00  0.00    -0.329 N 
ATOM     20  C   UNL     1      -7.776   6.835   2.187  0.00  0.00    +0.042 A 
ATOM     21  C   UNL     1      -8.628   7.939   2.373  0.00  0.00    +0.024 A 
ATOM     22  C   UNL     1      -9.480   8.008   3.450  0.00  0.00    +0.002 A 
ATOM     23  C   UNL     1      -9.529   6.994   4.388  0.00  0.00    +0.001 A 
ATOM     24  C   UNL     1      -8.702   5.895   4.231  0.00  0.00    +0.016 A 
ATOM     25  C   UNL     1      -7.849   5.827   3.153  0.00  0.00    +0.031 A 
ATOM     26  S   UNL     1      -6.667   4.601   2.635  0.00  0.00    -0.099 S 
ATOM     27  H   UNL     1      -6.791   7.342   0.438  0.00  0.00    +0.147 HD
ENDBRANCH   7  18
TORSDOF 2
