REMARK  Name = ZINC12070743
REMARK  15 active torsions:
REMARK  status: ('A' for Active; 'I' for Inactive)
REMARK    1  A    between atoms: C_1  and  C_2
REMARK    2  A    between atoms: C_2  and  O_3
REMARK    3  A    between atoms: O_3  and  C_4
REMARK    4  A    between atoms: C_4  and  C_6
REMARK    5  A    between atoms: C_10  and  N_11
REMARK    6  A    between atoms: C_12  and  C_14
REMARK    7  A    between atoms: C_14  and  C_15
REMARK    8  A    between atoms: C_18  and  S_21
REMARK    9  A    between atoms: S_21  and  C_24
REMARK   10  A    between atoms: C_24  and  C_25
REMARK   11  A    between atoms: C_24  and  C_26
REMARK   12  A    between atoms: C_27  and  C_32
REMARK   13  A    between atoms: C_27  and  C_33
REMARK   14  A    between atoms: C_28  and  C_30
REMARK   15  A    between atoms: C_28  and  C_31
REMARK                            x       y       z     vdW  Elec       q    Type
REMARK                         _______ _______ _______ _____ _____    ______ ____
ROOT
ATOM      1  C   UNL     1      -1.708   2.346  10.057  0.00  0.00    +0.091 A 
ATOM      2  C   UNL     1      -0.723   1.799  10.966  0.00  0.00    -0.024 A 
ATOM      3  C   UNL     1       0.348   1.212  10.382  0.00  0.00    -0.016 A 
ATOM      4  S   UNL     1       0.054   1.374   8.645  0.00  0.00    -0.079 S 
ATOM      5  C   UNL     1      -1.463   2.211   8.694  0.00  0.00    +0.086 A 
ATOM      6  C   UNL     1       1.508   0.583  11.082  0.00  0.00    -0.041 C 
ATOM      7  C   UNL     1      -0.087   0.569  13.004  0.00  0.00    -0.069 C 
ATOM      8  C   UNL     1      -0.796   1.826  12.486  0.00  0.00    +0.024 C 
ATOM      9  C   UNL     1      -0.900  -0.668  12.608  0.00  0.00    -0.010 C 
ATOM     10  C   UNL     1      -0.059   0.643  14.542  0.00  0.00    -0.010 C 
ATOM     11  C   UNL     1       1.776  -0.802  10.476  0.00  0.00    -0.005 C 
ATOM     12  C   UNL     1       2.753   1.457  10.839  0.00  0.00    -0.005 C 
ATOM     13  N   UNL     1       1.325   0.463  12.557  0.00  0.00    +0.389 N 
ATOM     14  H   UNL     1       1.864   1.211  13.010  0.00  0.00    -0.084 HD
ATOM     15  H   UNL     1       1.690  -0.449  12.854  0.00  0.00    -0.084 HD
ENDROOT
BRANCH   5  16
ATOM     16  N   UNL     1      -2.244   2.643   7.634  0.00  0.00    -0.279 N 
ATOM     17  C   UNL     1      -1.842   2.422   6.367  0.00  0.00    +0.222 C 
ATOM     18  O   UNL     1      -0.797   1.844   6.154  0.00  0.00    -0.275 OA
ATOM     19  H   UNL     1      -3.079   3.105   7.804  0.00  0.00    +0.155 HD
BRANCH  17  20
ATOM     20  C   UNL     1      -2.691   2.892   5.214  0.00  0.00    +0.131 C 
BRANCH  20  21
ATOM     21  C   UNL     1      -2.022   2.523   3.914  0.00  0.00    -0.039 A 
ATOM     22  C   UNL     1      -2.295   1.306   3.318  0.00  0.00    +0.006 A 
ATOM     23  C   UNL     1      -1.683   0.968   2.126  0.00  0.00    +0.027 A 
ATOM     24  C   UNL     1      -0.798   1.847   1.530  0.00  0.00    +0.088 A 
ATOM     25  C   UNL     1      -0.521   3.062   2.129  0.00  0.00    +0.027 A 
ATOM     26  C   UNL     1      -1.137   3.402   3.319  0.00  0.00    +0.006 A 
BRANCH  24  27
ATOM     27  S   UNL     1      -0.017   1.417   0.010  0.00  0.00    -0.001 S 
ATOM     28  O   UNL     1       0.002  -0.004   0.002  0.00  0.00    -0.169 OA
ATOM     29  O   UNL     1       1.195   2.158   0.002  0.00  0.00    -0.169 OA
BRANCH  27  30
ATOM     30  C   UNL     1      -1.135   2.034  -1.279  0.00  0.00    +0.130 C 
ATOM     31  C   UNL     1      -1.294   3.548  -1.134  0.00  0.00    +0.032 C 
ATOM     32  C   UNL     1      -0.551   1.712  -2.657  0.00  0.00    +0.032 C 
ENDBRANCH  27  30
ENDBRANCH  24  27
ENDBRANCH  20  21
ENDBRANCH  17  20
ENDBRANCH   5  16
BRANCH   1  33
ATOM     33  C   UNL     1      -2.917   3.018  10.539  0.00  0.00    +0.342 C 
ATOM     34  O   UNL     1      -3.931   2.377  10.739  0.00  0.00    -0.245 OA
BRANCH  33  35
ATOM     35  O   UNL     1      -2.905   4.349  10.762  0.00  0.00    -0.461 OA
BRANCH  35  37
ATOM     36  C   UNL     1      -3.933   6.452  11.433  0.00  0.00    +0.048 C 
ATOM     37  C   UNL     1      -4.138   4.948  11.240  0.00  0.00    +0.229 C 
ENDBRANCH  35  37
ENDBRANCH  33  35
ENDBRANCH   1  33
TORSDOF 8
