REMARK  Name = ZINC01241692
REMARK  8 active torsions:
REMARK  status: ('A' for Active; 'I' for Inactive)
REMARK    1  A    between atoms: C_1  and  C_2
REMARK    2  A    between atoms: C_2  and  O_3
REMARK    3  A    between atoms: O_3  and  C_4
REMARK    4  A    between atoms: C_9  and  N_10
REMARK    5  A    between atoms: C_11  and  C_13
REMARK    6  A    between atoms: C_14  and  C_28
REMARK    7  A    between atoms: C_19  and  C_21
REMARK    8  A    between atoms: C_24  and  O_27
REMARK                            x       y       z     vdW  Elec       q    Type
REMARK                         _______ _______ _______ _____ _____    ______ ____
ROOT
ATOM      1  C   UNL     1      -2.782   0.822   1.356  0.00  0.00    +0.056 C 
ATOM      2  C   UNL     1      -4.039   1.277   1.539  0.00  0.00    +0.017 C 
ATOM      3  N   UNL     1      -4.731   1.866   0.520  0.00  0.00    -0.300 N 
ATOM      4  C   UNL     1      -4.236   2.039  -0.712  0.00  0.00    +0.135 C 
ATOM      5  S   UNL     1      -5.211   2.793  -1.899  0.00  0.00    -0.019 S 
ATOM      6  N   UNL     1      -2.994   1.638  -1.048  0.00  0.00    -0.315 N 
ATOM      7  C   UNL     1      -2.164   0.989  -0.018  0.00  0.00    +0.139 C 
ATOM      8  C   UNL     1      -4.691   1.131   2.890  0.00  0.00    +0.061 C 
ATOM      9  H   UNL     1      -5.755   2.230   0.689  0.00  0.00    +0.154 HD
ATOM     10  H   UNL     1      -2.595   1.785  -2.062  0.00  0.00    +0.149 HD
ENDROOT
BRANCH   7  11
ATOM     11  C   UNL     1      -0.900   1.794   0.136  0.00  0.00    -0.022 A 
ATOM     12  C   UNL     1       0.310   1.150   0.321  0.00  0.00    +0.009 A 
ATOM     13  C   UNL     1       1.471   1.886   0.456  0.00  0.00    +0.046 A 
ATOM     14  C   UNL     1       1.423   3.272   0.411  0.00  0.00    +0.117 A 
ATOM     15  C   UNL     1       0.207   3.915   0.230  0.00  0.00    +0.046 A 
ATOM     16  C   UNL     1      -0.952   3.175   0.096  0.00  0.00    +0.009 A 
BRANCH  14  17
ATOM     17  O   UNL     1       2.564   3.997   0.543  0.00  0.00    -0.507 OA
ATOM     18  H   UNL     1       2.524   5.096   0.507  0.00  0.00    +0.292 HD
ENDBRANCH  14  17
ENDBRANCH   7  11
BRANCH   1  20
ATOM     19  N   UNL     1      -1.718   0.929   3.498  0.00  0.00    -0.279 N 
ATOM     20  C   UNL     1      -2.063   0.210   2.412  0.00  0.00    +0.248 C 
ATOM     21  O   UNL     1      -1.758  -0.967   2.339  0.00  0.00    -0.270 OA
ATOM     22  H   UNL     1      -1.955   2.002   3.545  0.00  0.00    +0.155 HD
BRANCH  19  28
ATOM     23  C   UNL     1      -0.585   1.074   5.632  0.00  0.00    +0.142 A 
ATOM     24  C   UNL     1       0.068   0.456   6.687  0.00  0.00    +0.047 A 
ATOM     25  C   UNL     1       0.249  -0.914   6.680  0.00  0.00    +0.004 A 
ATOM     26  C   UNL     1      -0.218  -1.673   5.622  0.00  0.00    +0.002 A 
ATOM     27  C   UNL     1      -0.876  -1.065   4.570  0.00  0.00    +0.027 A 
ATOM     28  C   UNL     1      -1.057   0.310   4.567  0.00  0.00    +0.076 A 
BRANCH  23  29
ATOM     29  O   UNL     1      -0.766   2.421   5.638  0.00  0.00    -0.490 OA
BRANCH  29  31
ATOM     30  C   UNL     1      -0.551   4.631   6.592  0.00  0.00    +0.048 C 
ATOM     31  C   UNL     1      -0.256   3.140   6.763  0.00  0.00    +0.226 C 
ENDBRANCH  29  31
ENDBRANCH  23  29
ENDBRANCH  19  28
ENDBRANCH   1  20
TORSDOF 6
