REMARK  Name = ZINC22775557
REMARK  5 active torsions:
REMARK  status: ('A' for Active; 'I' for Inactive)
REMARK    1  A    between atoms: C_1  and  C_2
REMARK    2  A    between atoms: N_11  and  C_15
REMARK    3  A    between atoms: C_15  and  N_16
REMARK    4  A    between atoms: N_19  and  C_22
REMARK    5  A    between atoms: C_22  and  C_23
REMARK                            x       y       z     vdW  Elec       q    Type
REMARK                         _______ _______ _______ _____ _____    ______ ____
ROOT
ATOM      1  N   UNL     1      -2.763   0.462   5.455  0.00  0.00    -0.284 NA
ATOM      2  C   UNL     1      -2.217  -0.884   5.675  0.00  0.00    +0.101 C 
ATOM      3  C   UNL     1      -1.240  -0.850   6.852  0.00  0.00    +0.100 C 
ATOM      4  N   UNL     1      -1.938  -0.366   8.051  0.00  0.00    -0.296 NA
ATOM      5  C   UNL     1      -2.485   0.981   7.832  0.00  0.00    +0.100 C 
ATOM      6  C   UNL     1      -3.462   0.946   6.654  0.00  0.00    +0.101 C 
ENDROOT
BRANCH   1   7
ATOM      7  C   UNL     1      -3.650   0.486   4.284  0.00  0.00    +0.205 C 
BRANCH   7  17
ATOM      8  C   UNL     1       0.408   1.350   2.655  0.00  0.00    +0.010 C 
ATOM      9  C   UNL     1      -0.247   1.910   1.391  0.00  0.00    +0.018 C 
ATOM     10  C   UNL     1       0.561   1.481   0.164  0.00  0.00    +0.006 C 
ATOM     11  C   UNL     1      -0.106   2.025  -1.101  0.00  0.00    +0.000 C 
ATOM     12  C   UNL     1      -1.525   1.463  -1.214  0.00  0.00    +0.003 C 
ATOM     13  C   UNL     1      -2.341   1.891   0.008  0.00  0.00    +0.035 C 
ATOM     14  C   UNL     1      -1.670   1.374   1.276  0.00  0.00    +0.115 C 
ATOM     15  C   UNL     1      -2.478   1.756   2.494  0.00  0.00    +0.248 C 
ATOM     16  O   UNL     1      -2.742   2.876   2.879  0.00  0.00    -0.273 OA
ATOM     17  N   UNL     1      -2.845   0.590   3.064  0.00  0.00    -0.211 N 
ATOM     18  C   UNL     1      -2.381  -0.462   2.377  0.00  0.00    +0.310 C 
ATOM     19  O   UNL     1      -2.581  -1.618   2.695  0.00  0.00    -0.252 OA
ATOM     20  N   UNL     1      -1.669  -0.094   1.295  0.00  0.00    -0.285 N 
ATOM     21  H   UNL     1      -1.144  -0.654   0.507  0.00  0.00    +0.151 HD
ENDBRANCH   7  17
ENDBRANCH   1   7
BRANCH   4  22
ATOM     22  C   UNL     1      -1.052  -0.390   9.223  0.00  0.00    +0.120 C 
BRANCH  22  23
ATOM     23  C   UNL     1      -0.435  -1.758   9.357  0.00  0.00    -0.026 A 
ATOM     24  C   UNL     1       0.872  -1.954   9.030  0.00  0.00    +0.005 A 
ATOM     25  C   UNL     1       1.460  -3.212   9.148  0.00  0.00    +0.001 A 
ATOM     26  C   UNL     1       0.745  -4.281   9.595  0.00  0.00    +0.008 A 
ATOM     27  C   UNL     1      -0.606  -4.117   9.943  0.00  0.00    -0.018 A 
ATOM     28  C   UNL     1      -1.203  -2.836   9.827  0.00  0.00    -0.013 A 
ATOM     29  C   UNL     1      -2.556  -2.673  10.171  0.00  0.00    +0.009 A 
ATOM     30  C   UNL     1      -3.271  -3.742  10.617  0.00  0.00    +0.001 A 
ATOM     31  C   UNL     1      -2.683  -5.000  10.735  0.00  0.00    +0.001 A 
ATOM     32  C   UNL     1      -1.377  -5.197  10.407  0.00  0.00    +0.008 A 
ENDBRANCH  22  23
ENDBRANCH   4  22
TORSDOF 4
