REMARK  Name = ZINC60854340
REMARK  6 active torsions:
REMARK  status: ('A' for Active; 'I' for Inactive)
REMARK    1  A    between atoms: C_1  and  C_2
REMARK    2  A    between atoms: C_3  and  N_9
REMARK    3  A    between atoms: C_4  and  C_8
REMARK    4  A    between atoms: C_10  and  C_12
REMARK    5  A    between atoms: C_12  and  S_13
REMARK    6  A    between atoms: S_13  and  C_16
REMARK                            x       y       z     vdW  Elec       q    Type
REMARK                         _______ _______ _______ _____ _____    ______ ____
ROOT
ATOM      1  N   UNL     1      -0.056  -0.145  -2.373  0.00  0.00    -0.281 N 
ATOM      2  C   UNL     1       0.354  -0.880  -3.427  0.00  0.00    +0.239 C 
ATOM      3  O   UNL     1       0.671  -2.040  -3.271  0.00  0.00    -0.274 OA
ATOM      4  H   UNL     1      -0.380   0.758  -2.509  0.00  0.00    +0.155 HD
ENDROOT
BRANCH   1   7
ATOM      5  C   UNL     1       2.046   0.576  -0.244  0.00  0.00    +0.067 C 
ATOM      6  C   UNL     1       0.900  -0.394  -0.115  0.00  0.00    +0.054 A 
ATOM      7  C   UNL     1      -0.011  -0.690  -1.076  0.00  0.00    +0.077 A 
ATOM      8  C   UNL     1      -0.902  -1.635  -0.546  0.00  0.00    +0.081 A 
ATOM      9  N   UNL     1      -0.541  -1.897   0.683  0.00  0.00    -0.177 NA
ATOM     10  N   UNL     1       0.595  -1.134   0.982  0.00  0.00    -0.280 N 
ATOM     11  H   UNL     1       1.077  -1.133   1.823  0.00  0.00    +0.189 HD
ATOM     12  C   UNL     1      -2.074  -2.245  -1.270  0.00  0.00    +0.069 C 
ENDBRANCH   1   7
BRANCH   2  13
ATOM     13  C   UNL     1       0.417  -0.259  -4.799  0.00  0.00    +0.267 C 
BRANCH  13  14
ATOM     14  S   UNL     1       1.001  -1.493  -5.994  0.00  0.00    +0.005 S 
ATOM     15  O   UNL     1       2.359  -1.821  -5.735  0.00  0.00    -0.169 OA
ATOM     16  O   UNL     1       0.027  -2.515  -6.157  0.00  0.00    -0.169 OA
BRANCH  14  17
ATOM     17  C   UNL     1       1.029  -0.647  -7.540  0.00  0.00    +0.089 A 
ATOM     18  C   UNL     1      -0.092  -0.647  -8.348  0.00  0.00    +0.028 A 
ATOM     19  C   UNL     1      -0.071   0.015  -9.560  0.00  0.00    +0.022 A 
ATOM     20  C   UNL     1       1.073   0.679  -9.965  0.00  0.00    +0.041 A 
ATOM     21  C   UNL     1       2.196   0.679  -9.156  0.00  0.00    +0.022 A 
ATOM     22  C   UNL     1       2.171   0.021  -7.941  0.00  0.00    +0.028 A 
ATOM     23 CL   UNL     1       1.102   1.512 -11.489  0.00  0.00    -0.084 Cl
ENDBRANCH  14  17
ENDBRANCH  13  14
ENDBRANCH   2  13
TORSDOF 4
