REMARK  Name = ZINC40799485
REMARK  5 active torsions:
REMARK  status: ('A' for Active; 'I' for Inactive)
REMARK    1  A    between atoms: C_6  and  C_7
REMARK    2  A    between atoms: C_7  and  N_8
REMARK    3  A    between atoms: C_15  and  N_32
REMARK    4  A    between atoms: C_16  and  N_20
REMARK    5  A    between atoms: C_24  and  C_27
REMARK                            x       y       z     vdW  Elec       q    Type
REMARK                         _______ _______ _______ _____ _____    ______ ____
ROOT
ATOM      1  N   UNL     1      -1.807  -1.015  -1.343  0.00  0.00    +0.384 N 
ATOM      2  C   UNL     1      -0.814  -1.857  -2.022  0.00  0.00    -0.059 C 
ATOM      3  C   UNL     1      -1.201  -2.014  -3.496  0.00  0.00    +0.088 C 
ATOM      4  N   UNL     1      -2.579  -2.526  -3.564  0.00  0.00    -0.317 N 
ATOM      5  C   UNL     1      -3.614  -1.836  -2.779  0.00  0.00    +0.088 C 
ATOM      6  C   UNL     1      -3.112  -1.687  -1.339  0.00  0.00    -0.059 C 
ATOM      7  C   UNL     1      -2.893  -3.629  -4.348  0.00  0.00    +0.147 A 
ATOM      8  C   UNL     1      -3.350  -3.462  -5.657  0.00  0.00    +0.106 A 
ATOM      9  C   UNL     1      -3.651  -4.603  -6.401  0.00  0.00    +0.150 A 
ATOM     10  N   UNL     1      -3.494  -5.799  -5.839  0.00  0.00    -0.219 NA
ATOM     11  C   UNL     1      -3.060  -5.913  -4.600  0.00  0.00    +0.225 A 
ATOM     12  N   UNL     1      -2.759  -4.861  -3.865  0.00  0.00    -0.219 NA
ATOM     13  H   UNL     1      -1.885  -0.134  -1.828  0.00  0.00    -0.081 HD
ENDROOT
BRANCH   9  14
ATOM     14  N   UNL     1      -4.111  -4.493  -7.710  0.00  0.00    -0.282 N 
ATOM     15  C   UNL     1      -4.408  -5.639  -8.442  0.00  0.00    +0.142 A 
ATOM     16  C   UNL     1      -4.862  -5.522  -9.753  0.00  0.00    +0.081 A 
ATOM     17  C   UNL     1      -5.154  -6.670 -10.469  0.00  0.00    +0.037 A 
ATOM     18  C   UNL     1      -4.982  -7.900  -9.847  0.00  0.00    +0.074 A 
ATOM     19  C   UNL     1      -4.528  -7.941  -8.544  0.00  0.00    +0.125 A 
ATOM     20  N   UNL     1      -4.252  -6.831  -7.887  0.00  0.00    -0.238 NA
ATOM     21 CL   UNL     1      -5.059  -3.958 -10.479  0.00  0.00    -0.080 Cl
ATOM     22  H   UNL     1      -4.223  -3.618  -8.112  0.00  0.00    +0.155 HD
BRANCH  18  23
ATOM     23  C   UNL     1      -5.288  -9.176 -10.587  0.00  0.00    +0.419 C 
ATOM     24  F   UNL     1      -4.138  -9.617 -11.252  0.00  0.00    -0.166 F 
ATOM     25  F   UNL     1      -5.705 -10.154  -9.678  0.00  0.00    -0.166 F 
ATOM     26  F   UNL     1      -6.304  -8.942 -11.520  0.00  0.00    -0.166 F 
ENDBRANCH  18  23
ENDBRANCH   9  14
BRANCH   8  27
ATOM     27  N   UNL     1      -3.502  -2.180  -6.210  0.00  0.00    -0.353 N 
ATOM     28  H   UNL     1      -3.205  -1.400  -5.716  0.00  0.00    +0.143 HD
ATOM     29  H   UNL     1      -3.904  -2.074  -7.087  0.00  0.00    +0.143 HD
ENDBRANCH   8  27
BRANCH   1  30
ATOM     30  C   UNL     1      -1.377  -0.774   0.041  0.00  0.00    -0.043 C 
BRANCH  30  36
ATOM     31  C   UNL     1      -0.147   1.405   0.057  0.00  0.00    +0.005 A 
ATOM     32  C   UNL     1       1.024   2.141   0.055  0.00  0.00    +0.050 A 
ATOM     33  C   UNL     1       2.248   1.494   0.034  0.00  0.00    +0.166 A 
ATOM     34  C   UNL     1       2.297   0.102   0.015  0.00  0.00    +0.166 A 
ATOM     35  C   UNL     1       1.121  -0.628   0.017  0.00  0.00    +0.051 A 
ATOM     36  C   UNL     1      -0.099   0.024   0.038  0.00  0.00    -0.060 A 
ATOM     37  O   UNL     1       3.605  -0.288  -0.003  0.00  0.00    -0.453 OA
ATOM     38  C   UNL     1       4.348   0.877  -0.408  0.00  0.00    +0.466 C 
ATOM     39  O   UNL     1       3.526   1.976   0.027  0.00  0.00    -0.453 OA
ENDBRANCH  30  36
ENDBRANCH   1  30
TORSDOF 5
