REMARK  Name = ZINC37504449
REMARK  3 active torsions:
REMARK  status: ('A' for Active; 'I' for Inactive)
REMARK    1  A    between atoms: C_6  and  C_7
REMARK    2  A    between atoms: C_13  and  C_16
REMARK    3  A    between atoms: C_16  and  N_17
REMARK                            x       y       z     vdW  Elec       q    Type
REMARK                         _______ _______ _______ _____ _____    ______ ____
ROOT
ATOM      1  C   UNL     1      -1.169  -0.887   0.009  0.00  0.00    +0.263 C 
ATOM      2  O   UNL     1      -2.284  -0.418   0.148  0.00  0.00    -0.268 OA
ATOM      3  N   UNL     1      -1.009  -2.220  -0.101  0.00  0.00    -0.296 N 
ATOM      4  C   UNL     1       0.335  -2.814  -0.114  0.00  0.00    +0.108 C 
ATOM      5  C   UNL     1       0.406  -3.897   0.967  0.00  0.00    +0.019 C 
ATOM      6  C   UNL     1      -0.728  -4.903   0.751  0.00  0.00    +0.008 C 
ATOM      7  C   UNL     1      -2.076  -4.188   0.870  0.00  0.00    +0.024 C 
ATOM      8  C   UNL     1      -2.174  -3.109  -0.206  0.00  0.00    +0.113 C 
ENDROOT
BRANCH   1  14
ATOM      9  C   UNL     1       0.080   1.269   0.492  0.00  0.00    +0.047 A 
ATOM     10  C   UNL     1       1.367   1.746   0.222  0.00  0.00    +0.036 A 
ATOM     11  C   UNL     1       2.035   0.779  -0.453  0.00  0.00    +0.098 A 
ATOM     12  N   UNL     1       1.214  -0.287  -0.617  0.00  0.00    -0.356 N 
ATOM     13  H   UNL     1       1.445  -1.115  -1.067  0.00  0.00    +0.165 HD
ATOM     14  C   UNL     1      -0.001  -0.001  -0.037  0.00  0.00    +0.103 A 
ATOM     15 BR   UNL     1       2.053   3.439   0.712  0.00  0.00    -0.049 Br
ENDBRANCH   1  14
BRANCH   7  16
ATOM     16  C   UNL     1      -3.208  -5.200   0.687  0.00  0.00    +0.110 C 
BRANCH  16  17
ATOM     17  N   UNL     1      -4.495  -4.540   0.919  0.00  0.00    -0.299 N 
ATOM     18  C   UNL     1      -5.641  -5.242   0.813  0.00  0.00    +0.297 C 
ATOM     19  O   UNL     1      -5.607  -6.422   0.523  0.00  0.00    -0.253 OA
ATOM     20  N   UNL     1      -6.825  -4.635   1.026  0.00  0.00    -0.313 N 
ATOM     21  H   UNL     1      -4.523  -3.599   1.150  0.00  0.00    +0.150 HD
ATOM     22  H   UNL     1      -6.853  -3.693   1.257  0.00  0.00    +0.146 HD
ATOM     23  H   UNL     1      -7.650  -5.139   0.950  0.00  0.00    +0.146 HD
ENDBRANCH  16  17
ENDBRANCH   7  16
TORSDOF 3
