REMARK  Name = ZINC28511551
REMARK  3 active torsions:
REMARK  status: ('A' for Active; 'I' for Inactive)
REMARK    1  A    between atoms: C_3  and  C_8
REMARK    2  A    between atoms: N_10  and  N_11
REMARK    3  A    between atoms: N_11  and  C_12
REMARK                            x       y       z     vdW  Elec       q    Type
REMARK                         _______ _______ _______ _____ _____    ______ ____
ROOT
ATOM      1  C   UNL     1       3.696   2.018  -0.330  0.00  0.00    +0.262 C 
ATOM      2  O   UNL     1       3.749   3.227  -0.441  0.00  0.00    -0.269 OA
ATOM      3  N   UNL     1       4.826   1.310  -0.128  0.00  0.00    -0.232 N 
ATOM      4  H   UNL     1       4.784   0.345  -0.040  0.00  0.00    +0.173 HD
ENDROOT
BRANCH   1   7
ATOM      5  C   UNL     1       0.021   1.349  -0.699  0.00  0.00    +0.022 A 
ATOM      6  C   UNL     1       1.214   2.046  -0.625  0.00  0.00    +0.016 A 
ATOM      7  C   UNL     1       2.394   1.323  -0.416  0.00  0.00    +0.058 A 
ATOM      8  C   UNL     1       2.321  -0.065  -0.291  0.00  0.00    +0.146 A 
ATOM      9  N   UNL     1       1.161  -0.685  -0.369  0.00  0.00    -0.146 N 
ATOM     10  O   UNL     1       1.123  -2.094  -0.238  0.00  0.00    -0.164 OA
ATOM     11  C   UNL     1       0.032  -0.028  -0.565  0.00  0.00    +0.133 A 
ENDBRANCH   1   7
BRANCH   3  12
ATOM     12  N   UNL     1       6.060   1.968  -0.046  0.00  0.00    -0.261 N 
ATOM     13  H   UNL     1       6.093   2.938  -0.052  0.00  0.00    +0.170 HD
BRANCH  12  14
ATOM     14  C   UNL     1       7.243   1.228   0.044  0.00  0.00    +0.081 A 
ATOM     15  C   UNL     1       8.296   1.691   0.823  0.00  0.00    +0.066 A 
ATOM     16  C   UNL     1       9.464   0.957   0.911  0.00  0.00    +0.042 A 
ATOM     17  C   UNL     1       9.585  -0.238   0.224  0.00  0.00    +0.044 A 
ATOM     18  C   UNL     1       8.538  -0.702  -0.553  0.00  0.00    +0.042 A 
ATOM     19  C   UNL     1       7.366   0.025  -0.640  0.00  0.00    +0.066 A 
ATOM     20 CL   UNL     1       6.050  -0.561  -1.610  0.00  0.00    -0.081 Cl
ATOM     21 CL   UNL     1      11.053  -1.158   0.336  0.00  0.00    -0.083 Cl
ATOM     22 CL   UNL     1       8.146   3.190   1.685  0.00  0.00    -0.081 Cl
ENDBRANCH  12  14
ENDBRANCH   3  12
TORSDOF 3
