REMARK  Name = ZINC39464408
REMARK  4 active torsions:
REMARK  status: ('A' for Active; 'I' for Inactive)
REMARK    1  A    between atoms: C_1  and  S_2
REMARK    2  A    between atoms: S_2  and  C_3
REMARK    3  A    between atoms: P_17  and  C_20
REMARK    4  A    between atoms: C_25  and  O_26
REMARK                            x       y       z     vdW  Elec       q    Type
REMARK                         _______ _______ _______ _____ _____    ______ ____
ROOT
ATOM      1  C   UNL     1       0.848  -0.411  -1.489  0.00  0.00    +0.043 A 
ATOM      2  C   UNL     1       1.315   0.595  -2.321  0.00  0.00    +0.023 A 
ATOM      3  C   UNL     1       1.981   0.281  -3.497  0.00  0.00    -0.022 A 
ATOM      4  C   UNL     1       2.180  -1.040  -3.837  0.00  0.00    -0.039 A 
ATOM      5  C   UNL     1       1.715  -2.050  -3.007  0.00  0.00    +0.043 A 
ATOM      6  C   UNL     1       1.057  -1.743  -1.833  0.00  0.00    +0.137 A 
ATOM      7  F   UNL     1       0.612  -2.730  -1.025  0.00  0.00    -0.204 F 
ATOM      8  C   UNL     1       2.902  -1.426  -5.103  0.00  0.00    +0.052 C 
ATOM      9  C   UNL     1       2.914  -0.241  -6.069  0.00  0.00    +0.108 C 
ATOM     10  N   UNL     1       3.427   0.942  -5.361  0.00  0.00    -0.225 NA
ATOM     11  C   UNL     1       2.465   1.413  -4.365  0.00  0.00    +0.129 C 
ATOM     12  C   UNL     1       3.081   2.496  -3.474  0.00  0.00    +0.194 C 
ATOM     13  O   UNL     1       3.434   3.625  -4.298  0.00  0.00    -0.311 OA
ATOM     14  P   UNL     1       4.305   3.353  -5.645  0.00  0.00    +0.318 P 
ATOM     15  O   UNL     1       5.740   3.221  -5.309  0.00  0.00    -0.266 OA
ATOM     16  N   UNL     1       3.731   1.933  -6.267  0.00  0.00    -0.175 NA
ATOM     17  H   UNL     1       3.615   1.804  -7.222  0.00  0.00    +0.151 HD
ENDROOT
BRANCH  14  18
ATOM     18  C   UNL     1       4.062   4.704  -6.831  0.00  0.00    +0.094 A 
ATOM     19  C   UNL     1       3.041   4.635  -7.759  0.00  0.00    +0.018 A 
ATOM     20  C   UNL     1       2.856   5.663  -8.664  0.00  0.00    +0.001 A 
ATOM     21  C   UNL     1       3.691   6.765  -8.642  0.00  0.00    +0.004 A 
ATOM     22  C   UNL     1       4.714   6.840  -7.716  0.00  0.00    +0.046 A 
ATOM     23  C   UNL     1       4.898   5.811  -6.804  0.00  0.00    +0.131 A 
BRANCH  23  24
ATOM     24  O   UNL     1       5.900   5.884  -5.888  0.00  0.00    -0.506 OA
ATOM     25  H   UNL     1       6.737   5.506  -6.190  0.00  0.00    +0.292 HD
ENDBRANCH  23  24
ENDBRANCH  14  18
BRANCH   1  27
ATOM     26  C   UNL     1      -0.022   1.810   0.012  0.00  0.00    +0.090 C 
ATOM     27  S   UNL     1       0.002  -0.004   0.002  0.00  0.00    -0.126 S 
ENDBRANCH   1  27
TORSDOF 3
