REMARK  Name = ZINC06558056
REMARK  6 active torsions:
REMARK  status: ('A' for Active; 'I' for Inactive)
REMARK    1  A    between atoms: C_1  and  C_2
REMARK    2  A    between atoms: C_4  and  C_8
REMARK    3  A    between atoms: C_5  and  C_7
REMARK    4  A    between atoms: N_10  and  N_11
REMARK    5  A    between atoms: C_12  and  C_14
REMARK    6  A    between atoms: C_14  and  C_15
REMARK                            x       y       z     vdW  Elec       q    Type
REMARK                         _______ _______ _______ _____ _____    ______ ____
ROOT
ATOM      1  N   UNL     1       2.097   2.858   3.667  0.00  0.00    -0.234 N 
ATOM      2  C   UNL     1       1.722   2.889   2.373  0.00  0.00    +0.231 C 
ATOM      3  O   UNL     1       0.883   3.682   2.003  0.00  0.00    -0.274 OA
ATOM      4  H   UNL     1       2.768   2.223   3.963  0.00  0.00    +0.173 HD
ENDROOT
BRANCH   1   7
ATOM      5  C   UNL     1       1.892   3.712   5.880  0.00  0.00    +0.263 C 
ATOM      6  O   UNL     1       2.733   2.916   6.250  0.00  0.00    -0.269 OA
ATOM      7  N   UNL     1       1.517   3.743   4.586  0.00  0.00    -0.230 N 
ATOM      8  H   UNL     1       0.846   4.378   4.290  0.00  0.00    +0.173 HD
BRANCH   5  12
ATOM      9  C   UNL     1      -0.973   7.380   7.969  0.00  0.00    +0.086 C 
ATOM     10  C   UNL     1       0.013   6.262   7.748  0.00  0.00    +0.103 A 
ATOM     11  C   UNL     1       0.258   5.662   6.573  0.00  0.00    +0.057 A 
ATOM     12  C   UNL     1       1.282   4.643   6.846  0.00  0.00    +0.079 A 
ATOM     13  C   UNL     1       1.545   4.735   8.181  0.00  0.00    +0.114 A 
ATOM     14  O   UNL     1       0.785   5.706   8.695  0.00  0.00    -0.464 OA
ATOM     15  C   UNL     1       2.529   3.888   8.946  0.00  0.00    +0.087 C 
ENDBRANCH   5  12
ENDBRANCH   1   7
BRANCH   2  16
ATOM     16  C   UNL     1       2.346   1.937   1.385  0.00  0.00    +0.121 C 
BRANCH  16  17
ATOM     17  C   UNL     1       1.749   2.179  -0.003  0.00  0.00    +0.146 C 
ATOM     18  C   UNL     1       2.438   1.297  -1.011  0.00  0.00    +0.231 C 
ATOM     19  O   UNL     1       3.326   1.776  -1.685  0.00  0.00    -0.274 OA
ATOM     20  N   UNL     1       2.121   0.020  -1.199  0.00  0.00    -0.284 N 
ATOM     21  C   UNL     1       1.064  -0.668  -0.612  0.00  0.00    +0.047 A 
ATOM     22  C   UNL     1       1.069  -2.060  -0.624  0.00  0.00    +0.024 A 
ATOM     23  C   UNL     1       0.042  -2.765  -0.030  0.00  0.00    +0.002 A 
ATOM     24  C   UNL     1      -1.004  -2.099   0.583  0.00  0.00    +0.001 A 
ATOM     25  C   UNL     1      -1.025  -0.717   0.598  0.00  0.00    +0.016 A 
ATOM     26  C   UNL     1       0.002  -0.004   0.002  0.00  0.00    +0.030 A 
ATOM     27  S   UNL     1      -0.022   1.762   0.012  0.00  0.00    -0.110 S 
ATOM     28  H   UNL     1       2.684  -0.484  -1.807  0.00  0.00    +0.155 HD
ENDBRANCH  16  17
ENDBRANCH   2  16
TORSDOF 4
