REMARK  Name = ZINC39336622
REMARK  4 active torsions:
REMARK  status: ('A' for Active; 'I' for Inactive)
REMARK    1  A    between atoms: C_4  and  N_7
REMARK    2  A    between atoms: C_8  and  N_28
REMARK    3  A    between atoms: C_10  and  C_13
REMARK    4  A    between atoms: N_19  and  C_20
REMARK                            x       y       z     vdW  Elec       q    Type
REMARK                         _______ _______ _______ _____ _____    ______ ____
ROOT
ATOM      1  N   UNL     1       3.642  -0.625   0.075  0.00  0.00    -0.264 N 
ATOM      2  C   UNL     1       3.854  -2.077   0.191  0.00  0.00    +0.066 C 
ATOM      3  C   UNL     1       5.329  -2.268  -0.085  0.00  0.00    -0.007 C 
ATOM      4  C   UNL     1       5.846  -1.081  -0.319  0.00  0.00    +0.090 C 
ATOM      5  N   UNL     1       4.895  -0.081  -0.242  0.00  0.00    -0.272 N 
ATOM      6  H   UNL     1       5.070   0.862  -0.385  0.00  0.00    +0.169 HD
ENDROOT
BRANCH   3   7
ATOM      7  C   UNL     1       6.072  -3.580  -0.092  0.00  0.00    +0.244 C 
ATOM      8  N   UNL     1       7.524  -3.351  -0.109  0.00  0.00    -0.191 NA
ATOM      9  N   UNL     1       7.979  -3.847  -1.143  0.00  0.00    -0.220 N 
ATOM     10  C   UNL     1       7.030  -4.433  -1.923  0.00  0.00    +0.159 C 
ATOM     11  S   UNL     1       7.333  -5.210  -3.418  0.00  0.00    -0.017 S 
ATOM     12  N   UNL     1       5.812  -4.316  -1.343  0.00  0.00    -0.252 N 
ATOM     13  H   UNL     1       8.920  -3.821  -1.377  0.00  0.00    +0.176 HD
BRANCH  12  14
ATOM     14  C   UNL     1       4.584  -4.784  -1.822  0.00  0.00    +0.056 A 
ATOM     15  C   UNL     1       3.847  -4.017  -2.715  0.00  0.00    +0.026 A 
ATOM     16  C   UNL     1       2.635  -4.482  -3.187  0.00  0.00    +0.022 A 
ATOM     17  C   UNL     1       2.154  -5.711  -2.770  0.00  0.00    +0.042 A 
ATOM     18  C   UNL     1       2.886  -6.478  -1.881  0.00  0.00    +0.041 A 
ATOM     19  C   UNL     1       4.102  -6.021  -1.410  0.00  0.00    +0.064 A 
ATOM     20 CL   UNL     1       5.023  -6.986  -0.299  0.00  0.00    -0.082 Cl
ATOM     21 CL   UNL     1       0.630  -6.291  -3.365  0.00  0.00    -0.083 Cl
ENDBRANCH  12  14
ENDBRANCH   3   7
BRANCH   1  25
ATOM     22  C   UNL     1       0.059   1.439   0.568  0.00  0.00    +0.000 A 
ATOM     23  C   UNL     1       1.216   2.130   0.256  0.00  0.00    +0.002 A 
ATOM     24  C   UNL     1       2.406   1.448   0.091  0.00  0.00    +0.024 A 
ATOM     25  C   UNL     1       2.440   0.068   0.241  0.00  0.00    +0.046 A 
ATOM     26  C   UNL     1       1.277  -0.623   0.555  0.00  0.00    +0.024 A 
ATOM     27  C   UNL     1       0.090   0.065   0.718  0.00  0.00    +0.002 A 
ENDBRANCH   1  25
BRANCH   2  28
ATOM     28  N   UNL     1       3.520  -2.538   1.545  0.00  0.00    +0.394 N 
ATOM     29  H   UNL     1       2.546  -2.353   1.732  0.00  0.00    -0.087 HD
ATOM     30  H   UNL     1       3.693  -3.530   1.615  0.00  0.00    -0.087 HD
ATOM     31  H   UNL     1       4.091  -2.049   2.217  0.00  0.00    -0.087 HD
ENDBRANCH   2  28
TORSDOF 4
