REMARK  Name = ZINC40301945
REMARK  3 active torsions:
REMARK  status: ('A' for Active; 'I' for Inactive)
REMARK    1  A    between atoms: C_12  and  C_14
REMARK    2  A    between atoms: C_17  and  N_21
REMARK    3  A    between atoms: C_19  and  N_20
REMARK                            x       y       z     vdW  Elec       q    Type
REMARK                         _______ _______ _______ _____ _____    ______ ____
ROOT
ATOM      1  C   UNL     1       0.004   1.416   0.069  0.00  0.00    +0.002 A 
ATOM      2  C   UNL     1       1.192   2.122   0.045  0.00  0.00    +0.002 A 
ATOM      3  C   UNL     1       2.401   1.450   0.017  0.00  0.00    +0.025 A 
ATOM      4  C   UNL     1       2.416   0.066   0.012  0.00  0.00    +0.058 A 
ATOM      5  C   UNL     1       1.217  -0.649   0.034  0.00  0.00    +0.055 A 
ATOM      6  C   UNL     1       0.012   0.033   0.064  0.00  0.00    +0.025 A 
ATOM      7  N   UNL     1       1.248  -2.048   0.017  0.00  0.00    -0.283 N 
ATOM      8  C   UNL     1       2.391  -2.714   0.267  0.00  0.00    +0.235 C 
ATOM      9  O   UNL     1       2.405  -3.925   0.205  0.00  0.00    -0.274 OA
ATOM     10  C   UNL     1       3.654  -1.972   0.624  0.00  0.00    +0.210 C 
ATOM     11  N   UNL     1       3.625  -0.645  -0.010  0.00  0.00    -0.257 N 
ATOM     12  C   UNL     1       4.725  -0.129  -0.592  0.00  0.00    +0.253 C 
ATOM     13  O   UNL     1       4.654   0.922  -1.202  0.00  0.00    -0.270 OA
ATOM     14  H   UNL     1       0.437  -2.543  -0.176  0.00  0.00    +0.155 HD
ENDROOT
BRANCH  12  15
ATOM     15  C   UNL     1       6.012  -0.835  -0.491  0.00  0.00    +0.058 A 
ATOM     16  C   UNL     1       6.520  -1.192   0.763  0.00  0.00    +0.017 A 
ATOM     17  C   UNL     1       7.714  -1.847   0.856  0.00  0.00    +0.023 A 
ATOM     18  C   UNL     1       8.435  -2.166  -0.293  0.00  0.00    +0.026 A 
ATOM     19  C   UNL     1       7.946  -1.820  -1.545  0.00  0.00    +0.046 A 
ATOM     20  C   UNL     1       6.732  -1.160  -1.654  0.00  0.00    +0.039 A 
BRANCH  20  21
ATOM     21  N   UNL     1       6.233  -0.816  -2.904  0.00  0.00    -0.357 N 
ATOM     22  H   UNL     1       5.423  -0.287  -2.974  0.00  0.00    +0.142 HD
ATOM     23  H   UNL     1       6.695  -1.104  -3.707  0.00  0.00    +0.142 HD
ENDBRANCH  20  21
BRANCH  18  24
ATOM     24  N   UNL     1       9.650  -2.834  -0.185  0.00  0.00    -0.358 N 
ATOM     25  H   UNL     1       9.994  -3.077   0.689  0.00  0.00    +0.142 HD
ATOM     26  H   UNL     1      10.154  -3.058  -0.983  0.00  0.00    +0.142 HD
ENDBRANCH  18  24
ENDBRANCH  12  15
TORSDOF 3
