REMARK  Name = ZINC21509994
REMARK  6 active torsions:
REMARK  status: ('A' for Active; 'I' for Inactive)
REMARK    1  A    between atoms: C_1  and  C_2
REMARK    2  A    between atoms: C_2  and  C_4
REMARK    3  A    between atoms: C_2  and  O_16
REMARK    4  A    between atoms: N_6  and  C_7
REMARK    5  A    between atoms: C_10  and  N_14
REMARK    6  A    between atoms: O_16  and  C_17
REMARK                            x       y       z     vdW  Elec       q    Type
REMARK                         _______ _______ _______ _____ _____    ______ ____
ROOT
ATOM      1  C   UNL     1       4.759   0.020  -0.383  0.00  0.00    +0.258 C 
ATOM      2  O   UNL     1       4.761   1.218  -0.574  0.00  0.00    -0.271 OA
ATOM      3  N   UNL     1       3.629  -0.597   0.016  0.00  0.00    -0.280 N 
ATOM      4  H   UNL     1       3.642  -1.673   0.245  0.00  0.00    +0.155 HD
ENDROOT
BRANCH   3   5
ATOM      5  C   UNL     1       2.437   0.132   0.139  0.00  0.00    +0.071 A 
ATOM      6  C   UNL     1       2.089   1.062  -0.832  0.00  0.00    +0.065 A 
ATOM      7  C   UNL     1       0.915   1.781  -0.711  0.00  0.00    +0.044 A 
ATOM      8  C   UNL     1       0.083   1.573   0.381  0.00  0.00    +0.027 A 
ATOM      9  C   UNL     1       0.431   0.643   1.352  0.00  0.00    +0.044 A 
ATOM     10  C   UNL     1       1.605  -0.076   1.232  0.00  0.00    +0.065 A 
ATOM     11 CL   UNL     1       2.040  -1.238   2.445  0.00  0.00    -0.082 Cl
ATOM     12 CL   UNL     1       3.128   1.322  -2.198  0.00  0.00    -0.082 Cl
BRANCH   8  13
ATOM     13  N   UNL     1      -1.103   2.304   0.507  0.00  0.00    -0.358 N 
ATOM     14  H   UNL     1      -1.762   2.139   1.372  0.00  0.00    +0.142 HD
ATOM     15  H   UNL     1      -1.377   3.044  -0.260  0.00  0.00    +0.142 HD
ENDBRANCH   8  13
ENDBRANCH   3   5
BRANCH   1  17
ATOM     16  C   UNL     1       6.415  -1.460   0.720  0.00  0.00    +0.062 C 
ATOM     17  C   UNL     1       6.020  -0.778  -0.592  0.00  0.00    +0.256 C 
BRANCH  17  18
ATOM     18  O   UNL     1       7.072   0.094  -1.011  0.00  0.00    -0.480 OA
BRANCH  18  19
ATOM     19  C   UNL     1       8.013  -0.429  -1.840  0.00  0.00    +0.122 A 
ATOM     20  C   UNL     1       8.982   0.393  -2.397  0.00  0.00    +0.045 A 
ATOM     21  C   UNL     1       9.941  -0.141  -3.235  0.00  0.00    +0.004 A 
ATOM     22  C   UNL     1       9.930  -1.493  -3.527  0.00  0.00    +0.000 A 
ATOM     23  C   UNL     1       8.962  -2.313  -2.978  0.00  0.00    +0.004 A 
ATOM     24  C   UNL     1       8.004  -1.784  -2.135  0.00  0.00    +0.045 A 
ENDBRANCH  18  19
ENDBRANCH  17  18
ENDBRANCH   1  17
TORSDOF 5
