REMARK  Name = ZINC62828438
REMARK  6 active torsions:
REMARK  status: ('A' for Active; 'I' for Inactive)
REMARK    1  A    between atoms: C_1  and  O_2
REMARK    2  A    between atoms: O_2  and  C_3
REMARK    3  A    between atoms: C_3  and  C_4
REMARK    4  A    between atoms: C_9  and  N_10
REMARK    5  A    between atoms: N_13  and  C_14
REMARK    6  A    between atoms: C_15  and  C_19
REMARK                            x       y       z     vdW  Elec       q    Type
REMARK                         _______ _______ _______ _____ _____    ______ ____
ROOT
ATOM      1  N   UNL     1      -3.561  -2.325   0.024  0.00  0.00    -0.269 N 
ATOM      2  C   UNL     1      -4.576  -2.907  -0.645  0.00  0.00    +0.309 C 
ATOM      3  O   UNL     1      -4.411  -3.983  -1.185  0.00  0.00    -0.252 OA
ATOM      4  N   UNL     1      -5.775  -2.295  -0.714  0.00  0.00    -0.263 N 
ATOM      5  H   UNL     1      -3.710  -1.498   0.509  0.00  0.00    +0.156 HD
ATOM      6  H   UNL     1      -5.908  -1.436  -0.283  0.00  0.00    +0.157 HD
ENDROOT
BRANCH   1  12
ATOM      7  C   UNL     1      -1.155  -2.114   0.016  0.00  0.00    -0.001 A 
ATOM      8  C   UNL     1       0.097  -2.698   0.015  0.00  0.00    +0.008 A 
ATOM      9  C   UNL     1       0.220  -4.075   0.010  0.00  0.00    +0.000 A 
ATOM     10  C   UNL     1      -0.910  -4.873   0.005  0.00  0.00    +0.002 A 
ATOM     11  C   UNL     1      -2.165  -4.296   0.005  0.00  0.00    +0.024 A 
ATOM     12  C   UNL     1      -2.291  -2.913   0.017  0.00  0.00    +0.040 A 
BRANCH   7  13
ATOM     13  C   UNL     1      -1.288  -0.613   0.022  0.00  0.00    +0.196 C 
BRANCH  13  15
ATOM     14  C   UNL     1      -0.001   1.409   0.024  0.00  0.00    +0.194 C 
ATOM     15  O   UNL     1       0.013  -0.020   0.019  0.00  0.00    -0.378 OA
ENDBRANCH  13  15
ENDBRANCH   7  13
ENDBRANCH   1  12
BRANCH   4  16
ATOM     16  C   UNL     1      -6.819  -2.893  -1.401  0.00  0.00    +0.087 A 
ATOM     17  C   UNL     1      -8.111  -2.412  -1.581  0.00  0.00    +0.092 A 
ATOM     18  C   UNL     1      -9.008  -3.248  -2.348  0.00  0.00    +0.024 A 
ATOM     19  C   UNL     1      -8.490  -4.402  -2.803  0.00  0.00    +0.048 A 
ATOM     20  S   UNL     1      -6.812  -4.361  -2.213  0.00  0.00    -0.081 S 
BRANCH  17  21
ATOM     21  C   UNL     1      -8.527  -1.169  -1.041  0.00  0.00    +0.389 C 
ATOM     22  O   UNL     1      -9.673  -0.776  -1.220  0.00  0.00    -0.241 OA
ATOM     23  O   UNL     1      -7.739  -0.487  -0.396  0.00  0.00    -0.241 OA
ENDBRANCH  17  21
ENDBRANCH   4  16
TORSDOF 5
