REMARK  Name = ZINC48865667
REMARK  6 active torsions:
REMARK  status: ('A' for Active; 'I' for Inactive)
REMARK    1  A    between atoms: C_8  and  N_21
REMARK    2  A    between atoms: C_9  and  S_10
REMARK    3  A    between atoms: S_10  and  N_13
REMARK    4  A    between atoms: C_17  and  C_19
REMARK    5  A    between atoms: C_19  and  O_20
REMARK    6  A    between atoms: N_21  and  N_22
REMARK                            x       y       z     vdW  Elec       q    Type
REMARK                         _______ _______ _______ _____ _____    ______ ____
ROOT
ATOM      1  C   UNL     1       0.147   0.903  -0.499  0.00  0.00    +0.005 A 
ATOM      2  C   UNL     1       1.312   1.686  -0.464  0.00  0.00    +0.018 A 
ATOM      3  C   UNL     1       2.522   1.101  -0.341  0.00  0.00    +0.094 A 
ATOM      4  N   UNL     1       2.631  -0.256  -0.250  0.00  0.00    -0.282 N 
ATOM      5  C   UNL     1       1.513  -1.046  -0.281  0.00  0.00    +0.141 A 
ATOM      6  C   UNL     1       0.243  -0.452  -0.408  0.00  0.00    +0.047 A 
ATOM      7  N   UNL     1       1.898  -2.312  -0.176  0.00  0.00    -0.210 NA
ATOM      8  C   UNL     1       3.231  -2.360  -0.079  0.00  0.00    +0.179 A 
ATOM      9  C   UNL     1       3.712  -1.091  -0.122  0.00  0.00    +0.222 A 
ENDROOT
BRANCH   9  10
ATOM     10  S   UNL     1       5.404  -0.609  -0.032  0.00  0.00    +0.081 S 
ATOM     11  O   UNL     1       6.160  -1.672  -0.594  0.00  0.00    -0.151 OA
ATOM     12  O   UNL     1       5.474   0.721  -0.528  0.00  0.00    -0.151 OA
BRANCH  10  13
ATOM     13  N   UNL     1       5.808  -0.537   1.573  0.00  0.00    -0.170 NA
ATOM     14  C   UNL     1       6.436  -1.621   2.349  0.00  0.00    +0.110 C 
ATOM     15  C   UNL     1       6.045  -1.333   3.820  0.00  0.00    +0.019 C 
ATOM     16  C   UNL     1       6.104   0.216   3.861  0.00  0.00    +0.024 C 
ATOM     17  C   UNL     1       5.605   0.620   2.457  0.00  0.00    +0.105 C 
BRANCH  17  18
ATOM     18  C   UNL     1       6.408   1.816   1.940  0.00  0.00    +0.176 C 
BRANCH  18  19
ATOM     19  O   UNL     1       7.803   1.512   1.994  0.00  0.00    -0.393 OA
ATOM     20  H   UNL     1       8.374   2.227   1.681  0.00  0.00    +0.209 HD
ENDBRANCH  18  19
ENDBRANCH  17  18
ENDBRANCH  10  13
ENDBRANCH   9  10
BRANCH   8  21
ATOM     21  N   UNL     1       4.001  -3.523   0.048  0.00  0.00    -0.265 N 
ATOM     22  H   UNL     1       4.970  -3.466   0.045  0.00  0.00    +0.168 HD
BRANCH  21  23
ATOM     23  N   UNL     1       3.389  -4.737   0.175  0.00  0.00    -0.255 NA
ATOM     24  H   UNL     1       2.759  -4.907  -0.594  0.00  0.00    +0.140 HD
ATOM     25  H   UNL     1       4.069  -5.479   0.256  0.00  0.00    +0.140 HD
ENDBRANCH  21  23
ENDBRANCH   8  21
TORSDOF 6
