REMARK  Name = ZINC05604116
REMARK  6 active torsions:
REMARK  status: ('A' for Active; 'I' for Inactive)
REMARK    1  A    between atoms: C_4  and  O_7
REMARK    2  A    between atoms: O_7  and  P_8
REMARK    3  A    between atoms: P_8  and  O_10
REMARK    4  A    between atoms: O_10  and  P_11
REMARK    5  A    between atoms: P_11  and  O_13
REMARK    6  A    between atoms: O_13  and  C_14
REMARK                            x       y       z     vdW  Elec       q    Type
REMARK                         _______ _______ _______ _____ _____    ______ ____
ROOT
ATOM      1  O   UNL     1       0.002  -0.004   0.002  0.00  0.00    -0.163 OA
ENDROOT
BRANCH   1   2
ATOM      2  P   UNL     1       0.897  -1.106  -0.757  0.00  0.00    +0.570 P 
ATOM      3  O   UNL     1       1.142  -0.669  -2.150  0.00  0.00    -0.213 OA
ATOM      4  O   UNL     1       2.304  -1.275   0.008  0.00  0.00    -0.105 OA
BRANCH   2   5
ATOM      5  O   UNL     1       0.119  -2.516  -0.766  0.00  0.00    -0.402 OA
BRANCH   5   9
ATOM      6  C   UNL     1       2.021  -5.468  -2.930  0.00  0.00    +0.000 A 
ATOM      7  C   UNL     1       2.300  -5.310  -1.585  0.00  0.00    +0.004 A 
ATOM      8  C   UNL     1       1.665  -4.322  -0.858  0.00  0.00    +0.046 A 
ATOM      9  C   UNL     1       0.746  -3.489  -1.479  0.00  0.00    +0.132 A 
ATOM     10  C   UNL     1       0.464  -3.653  -2.827  0.00  0.00    +0.046 A 
ATOM     11  C   UNL     1       1.106  -4.639  -3.551  0.00  0.00    +0.004 A 
ENDBRANCH   5   9
ENDBRANCH   2   5
ENDBRANCH   1   2
BRANCH   1  12
ATOM     12  P   UNL     1      -0.020   1.606   0.011  0.00  0.00    +0.570 P 
ATOM     13  O   UNL     1       1.369   2.118   0.000  0.00  0.00    -0.213 OA
ATOM     14  O   UNL     1      -0.798   2.139  -1.294  0.00  0.00    -0.105 OA
BRANCH  12  15
ATOM     15  O   UNL     1      -0.773   2.125   1.335  0.00  0.00    -0.402 OA
BRANCH  15  16
ATOM     16  C   UNL     1      -0.751   3.475   1.491  0.00  0.00    +0.132 A 
ATOM     17  C   UNL     1       0.283   4.076   2.193  0.00  0.00    +0.047 A 
ATOM     18  C   UNL     1       0.307   5.449   2.346  0.00  0.00    +0.023 A 
ATOM     19  C   UNL     1      -0.706   6.223   1.808  0.00  0.00    +0.041 A 
ATOM     20  C   UNL     1      -1.741   5.625   1.112  0.00  0.00    +0.023 A 
ATOM     21  C   UNL     1      -1.765   4.253   0.952  0.00  0.00    +0.047 A 
ATOM     22 CL   UNL     1      -0.677   7.948   2.007  0.00  0.00    -0.084 Cl
ENDBRANCH  15  16
ENDBRANCH  12  15
ENDBRANCH   1  12
TORSDOF 6
