REMARK  Name = ZINC63343203
REMARK  7 active torsions:
REMARK  status: ('A' for Active; 'I' for Inactive)
REMARK    1  A    between atoms: C_1  and  C_2
REMARK    2  A    between atoms: C_7  and  C_8
REMARK    3  A    between atoms: C_11  and  C_12
REMARK    4  A    between atoms: C_12  and  C_13
REMARK    5  A    between atoms: N_15  and  C_16
REMARK    6  A    between atoms: C_20  and  S_22
REMARK    7  A    between atoms: S_22  and  N_25
REMARK                            x       y       z     vdW  Elec       q    Type
REMARK                         _______ _______ _______ _____ _____    ______ ____
ROOT
ATOM      1  C   UNL     1       1.433  -2.652  -4.222  0.00  0.00    +0.222 C 
ATOM      2  O   UNL     1       2.355  -2.672  -3.433  0.00  0.00    -0.275 OA
ATOM      3  N   UNL     1       1.670  -2.426  -5.529  0.00  0.00    -0.285 N 
ATOM      4  H   UNL     1       0.943  -2.476  -6.169  0.00  0.00    +0.155 HD
ENDROOT
BRANCH   3   5
ATOM      5  C   UNL     1       2.965  -2.120  -5.963  0.00  0.00    +0.035 A 
ATOM      6  C   UNL     1       3.154  -1.225  -7.008  0.00  0.00    +0.025 A 
ATOM      7  C   UNL     1       4.433  -0.924  -7.435  0.00  0.00    +0.024 A 
ATOM      8  C   UNL     1       5.525  -1.514  -6.823  0.00  0.00    +0.067 A 
ATOM      9  C   UNL     1       5.338  -2.406  -5.782  0.00  0.00    +0.125 A 
ATOM     10  C   UNL     1       4.062  -2.705  -5.347  0.00  0.00    +0.053 A 
ATOM     11 CL   UNL     1       7.130  -1.135  -7.362  0.00  0.00    -0.082 Cl
BRANCH   9  12
ATOM     12  S   UNL     1       6.731  -3.155  -5.005  0.00  0.00    +0.057 S 
ATOM     13  O   UNL     1       7.642  -2.106  -4.705  0.00  0.00    -0.153 OA
ATOM     14  O   UNL     1       6.219  -4.028  -4.006  0.00  0.00    -0.153 OA
BRANCH  12  15
ATOM     15  N   UNL     1       7.468  -4.112  -6.137  0.00  0.00    -0.203 NA
ATOM     16  H   UNL     1       7.104  -4.169  -7.035  0.00  0.00    +0.144 HD
ATOM     17  H   UNL     1       8.263  -4.616  -5.903  0.00  0.00    +0.144 HD
ENDBRANCH  12  15
ENDBRANCH   9  12
ENDBRANCH   3   5
BRANCH   1  18
ATOM     18  C   UNL     1       0.024  -2.878  -3.739  0.00  0.00    +0.135 C 
BRANCH  18  29
ATOM     19  C   UNL     1      -0.053   1.505  -0.002  0.00  0.00    +0.044 C 
ATOM     20  C   UNL     1      -0.022  -0.002  -0.007  0.00  0.00    -0.047 A 
ATOM     21  C   UNL     1      -0.013  -0.684  -1.203  0.00  0.00    +0.015 A 
ATOM     22  C   UNL     1       0.016  -2.077  -1.201  0.00  0.00    +0.024 A 
ATOM     23  C   UNL     1       0.034  -2.781   0.015  0.00  0.00    +0.135 A 
ATOM     24  C   UNL     1       0.024  -2.074   1.210  0.00  0.00    +0.050 A 
ATOM     25  C   UNL     1       0.002  -0.695   1.194  0.00  0.00    -0.044 A 
ATOM     26  C   UNL     1      -0.004   0.065   2.495  0.00  0.00    +0.044 C 
ATOM     27  O   UNL     1       0.060  -4.096  -0.284  0.00  0.00    -0.463 OA
ATOM     28  C   UNL     1       0.060  -4.285  -1.615  0.00  0.00    +0.200 A 
ATOM     29  C   UNL     1       0.034  -3.105  -2.249  0.00  0.00    +0.007 A 
ENDBRANCH  18  29
ENDBRANCH   1  18
TORSDOF 5
