REMARK  Name = ZINC57994684
REMARK  2 active torsions:
REMARK  status: ('A' for Active; 'I' for Inactive)
REMARK    1  A    between atoms: N_9  and  C_22
REMARK    2  A    between atoms: C_22  and  C_23
REMARK                            x       y       z     vdW  Elec       q    Type
REMARK                         _______ _______ _______ _____ _____    ______ ____
ROOT
ATOM      1  C   UNL     1      -0.017   1.375   0.010  0.00  0.00    +0.001 A 
ATOM      2  C   UNL     1       1.168   2.095   0.002  0.00  0.00    +0.002 A 
ATOM      3  C   UNL     1       2.386   1.443  -0.007  0.00  0.00    +0.024 A 
ATOM      4  C   UNL     1       2.422   0.059  -0.013  0.00  0.00    +0.041 A 
ATOM      5  C   UNL     1       1.223  -0.675  -0.015  0.00  0.00    +0.058 A 
ATOM      6  C   UNL     1       0.002  -0.004   0.002  0.00  0.00    +0.015 A 
ATOM      7  C   UNL     1       1.292  -2.147  -0.051  0.00  0.00    +0.251 C 
ATOM      8  O   UNL     1       0.287  -2.812   0.108  0.00  0.00    -0.270 OA
ATOM      9  N   UNL     1       2.481  -2.748  -0.262  0.00  0.00    -0.256 N 
ATOM     10  C   UNL     1       3.665  -1.972  -0.620  0.00  0.00    +0.208 C 
ATOM     11  N   UNL     1       3.624  -0.641  -0.008  0.00  0.00    -0.312 N 
ATOM     12  C   UNL     1       3.808  -1.866  -2.106  0.00  0.00    +0.024 A 
ATOM     13  C   UNL     1       2.990  -1.307  -3.064  0.00  0.00    +0.012 A 
ATOM     14  C   UNL     1       3.423  -1.378  -4.383  0.00  0.00    +0.039 A 
ATOM     15  C   UNL     1       4.620  -1.983  -4.716  0.00  0.00    +0.125 A 
ATOM     16  C   UNL     1       5.449  -2.548  -3.756  0.00  0.00    +0.062 A 
ATOM     17  C   UNL     1       5.024  -2.482  -2.428  0.00  0.00    +0.044 A 
ATOM     18  N   UNL     1       5.641  -2.956  -1.284  0.00  0.00    -0.282 N 
ATOM     19  C   UNL     1       4.916  -2.701  -0.175  0.00  0.00    +0.264 C 
ATOM     20  O   UNL     1       5.211  -2.999   0.963  0.00  0.00    -0.271 OA
ATOM     21  F   UNL     1       4.995  -2.026  -6.013  0.00  0.00    -0.205 F 
ATOM     22  H   UNL     1       4.419  -0.256   0.392  0.00  0.00    +0.149 HD
ATOM     23  H   UNL     1       6.494  -3.417  -1.280  0.00  0.00    +0.155 HD
ENDROOT
BRANCH   9  24
ATOM     24  C   UNL     1       2.586  -4.204  -0.131  0.00  0.00    +0.224 C 
BRANCH  24  25
ATOM     25  C   UNL     1       2.299  -4.859  -1.484  0.00  0.00    +0.405 C 
ATOM     26  F   UNL     1       3.228  -4.408  -2.427  0.00  0.00    -0.169 F 
ATOM     27  F   UNL     1       2.399  -6.249  -1.359  0.00  0.00    -0.169 F 
ATOM     28  F   UNL     1       1.007  -4.521  -1.901  0.00  0.00    -0.169 F 
ENDBRANCH  24  25
ENDBRANCH   9  24
TORSDOF 2
