REMARK  Name = ZINC59160395
REMARK  6 active torsions:
REMARK  status: ('A' for Active; 'I' for Inactive)
REMARK    1  A    between atoms: C_6  and  N_7
REMARK    2  A    between atoms: N_7  and  N_8
REMARK    3  A    between atoms: C_9  and  C_10
REMARK    4  A    between atoms: C_11  and  O_18
REMARK    5  A    between atoms: C_13  and  O_17
REMARK    6  A    between atoms: C_15  and  O_16
REMARK                            x       y       z     vdW  Elec       q    Type
REMARK                         _______ _______ _______ _____ _____    ______ ____
ROOT
ATOM      1  C   UNL     1      -2.268  -4.259   0.002  0.00  0.00    +0.078 A 
ATOM      2  C   UNL     1      -1.046  -4.945  -0.008  0.00  0.00    +0.132 A 
ATOM      3  C   UNL     1      -1.033  -6.329  -0.015  0.00  0.00    +0.091 A 
ATOM      4  C   UNL     1      -2.227  -7.037  -0.013  0.00  0.00    +0.124 A 
ATOM      5  C   UNL     1      -3.441  -6.364  -0.004  0.00  0.00    +0.091 A 
ATOM      6  C   UNL     1      -3.469  -4.981   0.010  0.00  0.00    +0.132 A 
ENDROOT
BRANCH   1   8
ATOM      7  N   UNL     1      -1.175  -2.120   0.002  0.00  0.00    -0.190 NA
ATOM      8  C   UNL     1      -2.290  -2.786   0.010  0.00  0.00    +0.145 C 
BRANCH   7   9
ATOM      9  N   UNL     1      -1.196  -0.720   0.010  0.00  0.00    -0.238 N 
ATOM     10  H   UNL     1      -2.043  -0.247   0.021  0.00  0.00    +0.174 HD
BRANCH   9  16
ATOM     11  C   UNL     1      -0.017   1.386   0.010  0.00  0.00    +0.026 A 
ATOM     12  C   UNL     1       1.170   2.091   0.002  0.00  0.00    +0.017 A 
ATOM     13  C   UNL     1       2.378   1.415  -0.013  0.00  0.00    +0.018 A 
ATOM     14  C   UNL     1       2.400   0.032  -0.021  0.00  0.00    +0.017 A 
ATOM     15  C   UNL     1       1.217  -0.679  -0.013  0.00  0.00    +0.026 A 
ATOM     16  C   UNL     1       0.002  -0.004   0.002  0.00  0.00    +0.048 A 
ATOM     17 BR   UNL     1       4.001   2.385  -0.025  0.00  0.00    -0.050 Br
ENDBRANCH   9  16
ENDBRANCH   7   9
ENDBRANCH   1   8
BRANCH   6  18
ATOM     18  O   UNL     1      -4.658  -4.325   0.025  0.00  0.00    -0.506 OA
ATOM     19  H   UNL     1      -5.011  -4.130  -0.854  0.00  0.00    +0.292 HD
ENDBRANCH   6  18
BRANCH   4  20
ATOM     20  O   UNL     1      -2.207  -8.396  -0.021  0.00  0.00    -0.507 OA
ATOM     21  H   UNL     1      -2.196  -8.794   0.861  0.00  0.00    +0.292 HD
ENDBRANCH   4  20
BRANCH   2  22
ATOM     22  O   UNL     1       0.123  -4.253  -0.011  0.00  0.00    -0.506 OA
ATOM     23  H   UNL     1       0.467  -4.057   0.871  0.00  0.00    +0.292 HD
ENDBRANCH   2  22
TORSDOF 6
