REMARK  Name = ZINC42349921
REMARK  4 active torsions:
REMARK  status: ('A' for Active; 'I' for Inactive)
REMARK    1  A    between atoms: C_1  and  N_2
REMARK    2  A    between atoms: C_6  and  S_7
REMARK    3  A    between atoms: S_7  and  C_8
REMARK    4  A    between atoms: C_8  and  C_9
REMARK                            x       y       z     vdW  Elec       q    Type
REMARK                         _______ _______ _______ _____ _____    ______ ____
ROOT
ATOM      1  C   UNL     1       0.071  -1.503   5.207  0.00  0.00    +0.226 C 
ATOM      2  O   UNL     1       0.240  -0.356   5.565  0.00  0.00    -0.275 OA
ATOM      3  N   UNL     1       0.093  -2.501   6.113  0.00  0.00    -0.297 N 
ATOM      4  C   UNL     1       0.005  -3.905   5.686  0.00  0.00    +0.108 C 
ATOM      5  C   UNL     1      -1.133  -4.585   6.454  0.00  0.00    +0.019 C 
ATOM      6  C   UNL     1      -0.922  -4.392   7.957  0.00  0.00    +0.007 C 
ATOM      7  C   UNL     1      -0.948  -2.894   8.284  0.00  0.00    +0.010 C 
ATOM      8  C   UNL     1       0.213  -2.211   7.546  0.00  0.00    +0.079 C 
ATOM      9  C   UNL     1       0.181  -0.705   7.783  0.00  0.00    +0.023 C 
ATOM     10  C   UNL     1      -1.154  -0.130   7.306  0.00  0.00    +0.002 C 
ATOM     11  C   UNL     1      -2.294  -0.795   8.080  0.00  0.00    +0.000 C 
ATOM     12  C   UNL     1      -2.287  -2.313   7.825  0.00  0.00    +0.005 C 
ENDROOT
BRANCH   1  13
ATOM     13  C   UNL     1      -0.164  -1.812   3.751  0.00  0.00    +0.173 C 
BRANCH  13  14
ATOM     14  S   UNL     1      -0.137  -0.271   2.795  0.00  0.00    -0.077 S 
BRANCH  14  20
ATOM     15  C   UNL     1      -0.339   1.475   0.034  0.00  0.00    +0.154 C 
ATOM     16  N   UNL     1      -0.491   0.018   0.038  0.00  0.00    -0.294 N 
ATOM     17  C   UNL     1      -0.720  -0.769  -1.054  0.00  0.00    +0.215 A 
ATOM     18  N   UNL     1      -0.794  -2.013  -0.650  0.00  0.00    -0.113 NA
ATOM     19  N   UNL     1      -0.609  -2.029   0.739  0.00  0.00    -0.121 NA
ATOM     20  C   UNL     1      -0.422  -0.793   1.136  0.00  0.00    +0.193 A 
ATOM     21  N   UNL     1      -0.850  -0.328  -2.365  0.00  0.00    -0.328 N 
ATOM     22  H   UNL     1      -0.780   0.618  -2.568  0.00  0.00    +0.145 HD
ATOM     23  H   UNL     1      -1.012  -0.966  -3.078  0.00  0.00    +0.145 HD
ENDBRANCH  14  20
ENDBRANCH  13  14
ENDBRANCH   1  13
TORSDOF 3
