REMARK  Name = ZINC64039110
REMARK  5 active torsions:
REMARK  status: ('A' for Active; 'I' for Inactive)
REMARK    1  A    between atoms: C_1  and  C_2
REMARK    2  A    between atoms: C_3  and  C_20
REMARK    3  A    between atoms: C_7  and  N_8
REMARK    4  A    between atoms: C_9  and  C_11
REMARK    5  A    between atoms: C_17  and  C_19
REMARK                            x       y       z     vdW  Elec       q    Type
REMARK                         _______ _______ _______ _____ _____    ______ ____
ROOT
ATOM      1  N   UNL     1       0.026  -0.384   2.425  0.00  0.00    -0.270 N 
ATOM      2  C   UNL     1       0.040  -1.297   3.417  0.00  0.00    +0.223 C 
ATOM      3  O   UNL     1       0.046  -2.480   3.151  0.00  0.00    -0.275 OA
ATOM      4  H   UNL     1       0.021   0.562   2.637  0.00  0.00    +0.156 HD
ENDROOT
BRANCH   2   5
ATOM      5  C   UNL     1       0.046  -0.847   4.855  0.00  0.00    +0.093 C 
ATOM      6  C   UNL     1       0.066  -2.071   5.773  0.00  0.00    +0.016 C 
ATOM      7  C   UNL     1       0.039  -1.615   7.234  0.00  0.00    +0.020 C 
ATOM      8  C   UNL     1       1.286  -0.773   7.524  0.00  0.00    +0.108 C 
ATOM      9  N   UNL     1       1.351   0.325   6.551  0.00  0.00    -0.301 N 
ATOM     10  C   UNL     1       1.292   0.004   5.119  0.00  0.00    +0.120 C 
ATOM     11  C   UNL     1       1.464   1.603   6.964  0.00  0.00    +0.212 C 
ATOM     12  O   UNL     1       1.608   2.493   6.152  0.00  0.00    -0.276 OA
ATOM     13  C   UNL     1       1.410   1.927   8.435  0.00  0.00    +0.109 C 
ENDBRANCH   2   5
BRANCH   1  20
ATOM     14  C   UNL     1      -0.004   1.514   0.007  0.00  0.00    +0.049 C 
ATOM     15  C   UNL     1       0.006   0.007  -0.002  0.00  0.00    +0.021 A 
ATOM     16  C   UNL     1       0.010  -0.810  -1.135  0.00  0.00    +0.170 A 
ATOM     17  N   UNL     1       0.020  -2.058  -0.743  0.00  0.00    -0.168 NA
ATOM     18  N   UNL     1       0.023  -2.081   0.657  0.00  0.00    -0.263 N 
ATOM     19  H   UNL     1       0.030  -2.874   1.215  0.00  0.00    +0.190 HD
ATOM     20  C   UNL     1       0.020  -0.801   1.094  0.00  0.00    +0.124 A 
BRANCH  16  21
ATOM     21  C   UNL     1       0.003  -0.334  -2.566  0.00  0.00    +0.436 C 
ATOM     22  F   UNL     1       1.319  -0.177  -3.011  0.00  0.00    -0.164 F 
ATOM     23  F   UNL     1      -0.652  -1.276  -3.367  0.00  0.00    -0.164 F 
ATOM     24  F   UNL     1      -0.666   0.892  -2.646  0.00  0.00    -0.164 F 
ENDBRANCH  16  21
ENDBRANCH   1  20
TORSDOF 3
