REMARK  Name = ZINC64316480
REMARK  3 active torsions:
REMARK  status: ('A' for Active; 'I' for Inactive)
REMARK    1  A    between atoms: C_8  and  C_21
REMARK    2  A    between atoms: C_11  and  C_13
REMARK    3  A    between atoms: C_13  and  C_14
REMARK                            x       y       z     vdW  Elec       q    Type
REMARK                         _______ _______ _______ _____ _____    ______ ____
ROOT
ATOM      1  C   UNL     1      -0.017   1.378   0.010  0.00  0.00    +0.000 A 
ATOM      2  C   UNL     1       1.174   2.082   0.002  0.00  0.00    +0.002 A 
ATOM      3  C   UNL     1       2.377   1.410  -0.013  0.00  0.00    +0.024 A 
ATOM      4  C   UNL     1       2.404   0.014  -0.022  0.00  0.00    +0.040 A 
ATOM      5  C   UNL     1       1.206  -0.682  -0.014  0.00  0.00    -0.024 A 
ATOM      6  C   UNL     1       0.002  -0.004   0.002  0.00  0.00    +0.005 A 
ATOM      7  C   UNL     1       1.510  -2.163  -0.025  0.00  0.00    +0.069 C 
ATOM      8  C   UNL     1       3.046  -2.243  -0.040  0.00  0.00    +0.171 C 
ATOM      9  N   UNL     1       3.503  -0.851  -0.037  0.00  0.00    -0.259 N 
ATOM     10  C   UNL     1       4.793  -0.461  -0.049  0.00  0.00    +0.225 C 
ATOM     11  O   UNL     1       5.677  -1.291  -0.062  0.00  0.00    -0.275 OA
ENDROOT
BRANCH   8  12
ATOM     12  C   UNL     1       3.519  -2.948  -1.285  0.00  0.00    +0.232 C 
ATOM     13  O   UNL     1       4.224  -2.365  -2.081  0.00  0.00    -0.274 OA
ATOM     14  N   UNL     1       3.161  -4.228  -1.512  0.00  0.00    -0.328 N 
ATOM     15  H   UNL     1       2.598  -4.694  -0.875  0.00  0.00    +0.145 HD
ATOM     16  H   UNL     1       3.466  -4.681  -2.313  0.00  0.00    +0.145 HD
ENDBRANCH   8  12
BRANCH  10  17
ATOM     17  C   UNL     1       5.137   1.006  -0.045  0.00  0.00    +0.131 C 
BRANCH  17  18
ATOM     18  C   UNL     1       6.635   1.171  -0.059  0.00  0.00    -0.039 A 
ATOM     19  C   UNL     1       7.335   1.234   1.131  0.00  0.00    +0.005 A 
ATOM     20  C   UNL     1       8.709   1.385   1.118  0.00  0.00    +0.015 A 
ATOM     21  C   UNL     1       9.383   1.472  -0.086  0.00  0.00    +0.018 A 
ATOM     22  C   UNL     1       8.682   1.408  -1.277  0.00  0.00    +0.015 A 
ATOM     23  C   UNL     1       7.309   1.252  -1.263  0.00  0.00    +0.005 A 
ATOM     24 BR   UNL     1      11.263   1.678  -0.105  0.00  0.00    -0.050 Br
ENDBRANCH  17  18
ENDBRANCH  10  17
TORSDOF 3
