REMARK  Name = ZINC62838679
REMARK  6 active torsions:
REMARK  status: ('A' for Active; 'I' for Inactive)
REMARK    1  A    between atoms: C_4  and  C_7
REMARK    2  A    between atoms: C_7  and  C_9
REMARK    3  A    between atoms: C_7  and  N_22
REMARK    4  A    between atoms: C_9  and  N_10
REMARK    5  A    between atoms: N_10  and  C_11
REMARK    6  A    between atoms: C_12  and  N_19
REMARK                            x       y       z     vdW  Elec       q    Type
REMARK                         _______ _______ _______ _____ _____    ______ ____
ROOT
ATOM      1  N   UNL     1       5.231  -2.074   1.322  0.00  0.00    -0.341 N 
ATOM      2  H   UNL     1       5.627  -2.321   0.472  0.00  0.00    +0.146 HD
ENDROOT
BRANCH   1   3
ATOM      3  C   UNL     1       5.756  -2.586   2.513  0.00  0.00    +0.096 A 
ATOM      4  C   UNL     1       7.030  -3.138   2.530  0.00  0.00    +0.150 A 
ATOM      5  C   UNL     1       7.548  -3.643   3.708  0.00  0.00    +0.037 A 
ATOM      6  C   UNL     1       6.800  -3.599   4.870  0.00  0.00    +0.043 A 
ATOM      7  C   UNL     1       5.529  -3.050   4.858  0.00  0.00    +0.160 A 
ATOM      8  C   UNL     1       5.007  -2.537   3.683  0.00  0.00    +0.181 A 
ATOM      9  F   UNL     1       3.769  -1.996   3.671  0.00  0.00    -0.200 F 
ATOM     10  F   UNL     1       4.801  -3.009   5.995  0.00  0.00    -0.202 F 
BRANCH   4  11
ATOM     11  N   UNL     1       7.833  -3.186   1.288  0.00  0.00    +0.058 N 
ATOM     12  O   UNL     1       8.541  -4.140   1.062  0.00  0.00    -0.126 OA
ATOM     13  O   UNL     1       7.781  -2.272   0.498  0.00  0.00    -0.126 OA
ENDBRANCH   4  11
ENDBRANCH   1   3
BRANCH   1  14
ATOM     14  C   UNL     1       4.081  -1.167   1.359  0.00  0.00    +0.090 C 
BRANCH  14  15
ATOM     15  C   UNL     1       3.708  -0.758  -0.068  0.00  0.00    -0.027 C 
BRANCH  15  19
ATOM     16  C   UNL     1       0.151   1.605   0.010  0.00  0.00    +0.000 A 
ATOM     17  C   UNL     1       1.385   2.218  -0.099  0.00  0.00    +0.000 A 
ATOM     18  C   UNL     1       2.536   1.453  -0.123  0.00  0.00    +0.002 A 
ATOM     19  C   UNL     1       2.453   0.076  -0.039  0.00  0.00    -0.060 A 
ATOM     20  C   UNL     1       1.219  -0.537   0.070  0.00  0.00    +0.002 A 
ATOM     21  C   UNL     1       0.068   0.228   0.094  0.00  0.00    +0.000 A 
ENDBRANCH  15  19
BRANCH  15  22
ATOM     22  N   UNL     1       3.478  -1.962  -0.878  0.00  0.00    +0.384 N 
ATOM     23  H   UNL     1       4.319  -2.520  -0.897  0.00  0.00    -0.089 HD
ATOM     24  H   UNL     1       2.726  -2.500  -0.475  0.00  0.00    -0.089 HD
ATOM     25  H   UNL     1       3.233  -1.692  -1.819  0.00  0.00    -0.089 HD
ENDBRANCH  15  22
ENDBRANCH  14  15
ENDBRANCH   1  14
TORSDOF 6
