REMARK  Name = ZINC61673771
REMARK  7 active torsions:
REMARK  status: ('A' for Active; 'I' for Inactive)
REMARK    1  A    between atoms: C_1  and  C_2
REMARK    2  A    between atoms: C_2  and  C_3
REMARK    3  A    between atoms: C_3  and  C_4
REMARK    4  A    between atoms: C_3  and  C_5
REMARK    5  A    between atoms: C_3  and  N_9
REMARK    6  A    between atoms: N_6  and  O_7
REMARK    7  A    between atoms: C_10  and  C_12
REMARK                            x       y       z     vdW  Elec       q    Type
REMARK                         _______ _______ _______ _____ _____    ______ ____
ROOT
ATOM      1  C   UNL     1       0.718  -0.497  -1.257  0.00  0.00    +0.090 C 
ATOM      2  C   UNL     1       0.630  -2.023  -1.329  0.00  0.00    +0.040 C 
ENDROOT
BRANCH   1   3
ATOM      3  C   UNL     1       2.165  -0.079  -1.208  0.00  0.00    +0.155 C 
ATOM      4  N   UNL     1       2.633   0.507  -0.156  0.00  0.00    -0.075 NA
ATOM      5  N   UNL     1       2.989  -0.323  -2.285  0.00  0.00    -0.342 N 
ATOM      6  H   UNL     1       2.638  -0.763  -3.074  0.00  0.00    +0.144 HD
ATOM      7  H   UNL     1       3.920  -0.053  -2.253  0.00  0.00    +0.144 HD
BRANCH   4   8
ATOM      8  O   UNL     1       3.993   0.900  -0.110  0.00  0.00    -0.408 OA
ATOM      9  H   UNL     1       4.250   1.331   0.716  0.00  0.00    +0.328 HD
ENDBRANCH   4   8
ENDBRANCH   1   3
BRANCH   1  10
ATOM     10  N   UNL     1       0.081   0.085  -2.441  0.00  0.00    -0.303 N 
ATOM     11  C   UNL     1      -1.221  -0.155  -2.692  0.00  0.00    +0.217 C 
ATOM     12  O   UNL     1      -1.866  -0.853  -1.938  0.00  0.00    -0.275 OA
ATOM     13  H   UNL     1       0.597   0.642  -3.044  0.00  0.00    +0.150 HD
BRANCH  11  14
ATOM     14  C   UNL     1      -1.876   0.444  -3.910  0.00  0.00    +0.079 C 
ATOM     15  C   UNL     1      -1.167  -0.058  -5.172  0.00  0.00    +0.041 C 
ATOM     16  C   UNL     1      -1.888   0.492  -6.405  0.00  0.00    +0.160 C 
ATOM     17  O   UNL     1      -3.258   0.087  -6.375  0.00  0.00    -0.380 OA
ATOM     18  C   UNL     1      -3.983   0.567  -5.241  0.00  0.00    +0.160 C 
ATOM     19  C   UNL     1      -3.347   0.020  -3.961  0.00  0.00    +0.041 C 
ENDBRANCH  11  14
ENDBRANCH   1  10
BRANCH   1  21
ATOM     20  C   UNL     1      -0.019   1.526   0.010  0.00  0.00    +0.006 C 
ATOM     21  C   UNL     1       0.002  -0.004   0.002  0.00  0.00    +0.030 C 
ENDBRANCH   1  21
TORSDOF 5
