REMARK  Name = ZINC35345018
REMARK  4 active torsions:
REMARK  status: ('A' for Active; 'I' for Inactive)
REMARK    1  A    between atoms: C_3  and  S_11
REMARK    2  A    between atoms: C_6  and  C_7
REMARK    3  A    between atoms: S_11  and  C_12
REMARK    4  A    between atoms: C_17  and  N_18
REMARK                            x       y       z     vdW  Elec       q    Type
REMARK                         _______ _______ _______ _____ _____    ______ ____
ROOT
ATOM      1  C   UNL     1       5.216   0.984  -0.082  0.00  0.00    +0.037 A 
ATOM      2  C   UNL     1       4.896  -0.367  -0.188  0.00  0.00    +0.018 A 
ATOM      3  C   UNL     1       5.910  -1.305  -0.234  0.00  0.00    +0.018 A 
ATOM      4  C   UNL     1       7.221  -0.894  -0.174  0.00  0.00    +0.041 A 
ATOM      5  C   UNL     1       7.586   0.465  -0.066  0.00  0.00    +0.100 A 
ATOM      6  C   UNL     1       6.532   1.407  -0.027  0.00  0.00    +0.065 A 
ATOM      7  N   UNL     1       8.921   0.660  -0.021  0.00  0.00    -0.246 NA
ATOM      8  C   UNL     1       9.767  -0.327  -0.074  0.00  0.00    +0.157 A 
ATOM      9  S   UNL     1       8.802  -1.700  -0.197  0.00  0.00    -0.075 S 
ENDROOT
BRANCH   6  10
ATOM     10  N   UNL     1       6.821   2.773   0.075  0.00  0.00    -0.355 N 
ATOM     11  H   UNL     1       6.099   3.421   0.106  0.00  0.00    +0.142 HD
ATOM     12  H   UNL     1       7.743   3.072   0.114  0.00  0.00    +0.142 HD
ENDBRANCH   6  10
BRANCH   1  13
ATOM     13  S   UNL     1       3.920   2.177  -0.024  0.00  0.00    -0.068 S 
BRANCH  13  16
ATOM     14  C   UNL     1       2.967   4.046   3.401  0.00  0.00    +0.016 A 
ATOM     15  C   UNL     1       3.012   3.687   2.066  0.00  0.00    +0.035 A 
ATOM     16  C   UNL     1       3.851   2.649   1.673  0.00  0.00    +0.102 A 
ATOM     17  N   UNL     1       4.598   2.012   2.562  0.00  0.00    -0.248 NA
ATOM     18  C   UNL     1       4.576   2.334   3.841  0.00  0.00    +0.124 A 
ATOM     19  C   UNL     1       3.767   3.354   4.301  0.00  0.00    +0.073 A 
BRANCH  19  20
ATOM     20  C   UNL     1       3.751   3.712   5.765  0.00  0.00    +0.419 C 
ATOM     21  F   UNL     1       2.771   2.958   6.419  0.00  0.00    -0.166 F 
ATOM     22  F   UNL     1       5.003   3.437   6.326  0.00  0.00    -0.166 F 
ATOM     23  F   UNL     1       3.465   5.074   5.909  0.00  0.00    -0.166 F 
ENDBRANCH  19  20
ENDBRANCH  13  16
ENDBRANCH   1  13
TORSDOF 4
