REMARK  Name = ZINC39700735
REMARK  9 active torsions:
REMARK  status: ('A' for Active; 'I' for Inactive)
REMARK    1  A    between atoms: C_1  and  C_2
REMARK    2  A    between atoms: C_7  and  C_12
REMARK    3  A    between atoms: C_12  and  C_31
REMARK    4  A    between atoms: C_13  and  C_14
REMARK    5  A    between atoms: C_17  and  O_22
REMARK    6  A    between atoms: C_18  and  O_20
REMARK    7  A    between atoms: O_20  and  C_21
REMARK    8  A    between atoms: O_22  and  C_23
REMARK    9  A    between atoms: C_23  and  C_24
REMARK                            x       y       z     vdW  Elec       q    Type
REMARK                         _______ _______ _______ _____ _____    ______ ____
ROOT
ATOM      1  C   UNL     1       2.395  -7.076   2.917  0.00  0.00    -0.020 A 
ATOM      2  C   UNL     1       3.679  -6.581   2.666  0.00  0.00    +0.012 A 
ATOM      3  C   UNL     1       4.784  -7.344   2.979  0.00  0.00    +0.050 A 
ATOM      4  C   UNL     1       4.626  -8.603   3.542  0.00  0.00    +0.162 A 
ATOM      5  C   UNL     1       3.349  -9.103   3.794  0.00  0.00    +0.162 A 
ATOM      6  C   UNL     1       2.237  -8.343   3.489  0.00  0.00    +0.057 A 
ENDROOT
BRANCH   1   8
ATOM      7  C   UNL     1       1.213  -5.498   1.474  0.00  0.00    +0.072 C 
ATOM      8  C   UNL     1       1.214  -6.265   2.584  0.00  0.00    +0.026 C 
BRANCH   7  15
ATOM      9  C   UNL     1       0.323   0.002  -2.746  0.00  0.00    +0.044 C 
ATOM     10  C   UNL     1       0.070  -1.311  -2.051  0.00  0.00    -0.048 A 
ATOM     11  C   UNL     1      -0.621  -2.320  -2.745  0.00  0.00    +0.005 A 
ATOM     12  C   UNL     1      -0.891  -3.523  -2.199  0.00  0.00    +0.027 A 
ATOM     13  C   UNL     1      -0.453  -3.811  -0.827  0.00  0.00    +0.060 A 
ATOM     14  N   UNL     1      -0.570  -4.858  -0.061  0.00  0.00    -0.359 N 
ATOM     15  C   UNL     1       0.076  -4.543   1.219  0.00  0.00    +0.216 C 
ATOM     16  N   UNL     1       0.587  -3.171   1.098  0.00  0.00    -0.359 N 
ATOM     17  C   UNL     1       0.280  -2.743  -0.092  0.00  0.00    +0.061 A 
ATOM     18  C   UNL     1       0.521  -1.473  -0.791  0.00  0.00    +0.030 A 
ATOM     19  H   UNL     1      -1.005  -5.693  -0.294  0.00  0.00    +0.162 HD
ATOM     20  H   UNL     1       1.065  -2.675   1.780  0.00  0.00    +0.162 HD
ENDBRANCH   7  15
BRANCH   7  21
ATOM     21  C   UNL     1       2.292  -5.593   0.537  0.00  0.00    +0.099 C 
ATOM     22  N   UNL     1       3.148  -5.669  -0.206  0.00  0.00    -0.191 NA
ENDBRANCH   7  21
ENDBRANCH   1   8
BRANCH   5  23
ATOM     23  O   UNL     1       3.199 -10.337   4.345  0.00  0.00    -0.491 OA
ATOM     24  C   UNL     1       1.863 -10.786   4.577  0.00  0.00    +0.277 C 
ENDBRANCH   5  23
BRANCH   4  25
ATOM     25  O   UNL     1       5.719  -9.350   3.847  0.00  0.00    -0.484 OA
BRANCH  25  26
ATOM     26  C   UNL     1       6.997  -8.778   3.562  0.00  0.00    +0.266 C 
BRANCH  26  27
ATOM     27  C   UNL     1       8.081  -9.744   3.964  0.00  0.00    +0.008 A 
ATOM     28  C   UNL     1       7.747 -10.969   4.510  0.00  0.00    +0.008 A 
ATOM     29  C   UNL     1       8.742 -11.855   4.879  0.00  0.00    +0.000 A 
ATOM     30  C   UNL     1      10.071 -11.516   4.703  0.00  0.00    +0.001 A 
ATOM     31  C   UNL     1      10.405 -10.292   4.157  0.00  0.00    +0.020 A 
ATOM     32  C   UNL     1       9.410  -9.406   3.782  0.00  0.00    +0.047 A 
ATOM     33 CL   UNL     1       9.830  -7.870   3.091  0.00  0.00    -0.083 Cl
ENDBRANCH  26  27
ENDBRANCH  25  26
ENDBRANCH   4  25
TORSDOF 7
