REMARK  Name = ZINC64870446
REMARK  6 active torsions:
REMARK  status: ('A' for Active; 'I' for Inactive)
REMARK    1  A    between atoms: C_1  and  O_2
REMARK    2  A    between atoms: O_2  and  C_3
REMARK    3  A    between atoms: C_8  and  C_9
REMARK    4  A    between atoms: C_9  and  N_10
REMARK    5  A    between atoms: C_16  and  C_23
REMARK    6  A    between atoms: C_26  and  C_30
REMARK                            x       y       z     vdW  Elec       q    Type
REMARK                         _______ _______ _______ _____ _____    ______ ____
ROOT
ATOM      1  N   UNL     1      -1.389  -2.835  -0.334  0.00  0.00    -0.256 N 
ATOM      2  C   UNL     1      -2.199  -1.980   0.328  0.00  0.00    +0.265 A 
ATOM      3  O   UNL     1      -1.741  -1.142   1.080  0.00  0.00    -0.267 OA
ATOM      4  C   UNL     1      -3.653  -2.090   0.114  0.00  0.00    +0.063 A 
ATOM      5  C   UNL     1      -4.554  -1.246   0.759  0.00  0.00    +0.016 A 
ATOM      6  C   UNL     1      -5.906  -1.389   0.526  0.00  0.00    +0.008 A 
ATOM      7  C   UNL     1      -6.368  -2.365  -0.344  0.00  0.00    -0.000 A 
ATOM      8  C   UNL     1      -5.486  -3.208  -0.990  0.00  0.00    +0.034 A 
ATOM      9  C   UNL     1      -4.123  -3.079  -0.768  0.00  0.00    +0.056 A 
ATOM     10  N   UNL     1      -3.203  -3.905  -1.397  0.00  0.00    -0.307 N 
ATOM     11  H   UNL     1      -3.513  -4.591  -2.008  0.00  0.00    +0.170 HD
ATOM     12  C   UNL     1      -1.886  -3.759  -1.171  0.00  0.00    +0.330 A 
ATOM     13  O   UNL     1      -1.112  -4.500  -1.745  0.00  0.00    -0.246 OA
ENDROOT
BRANCH   7  14
ATOM     14  C   UNL     1      -7.849  -2.507  -0.587  0.00  0.00    +0.242 C 
ATOM     15  N   UNL     1      -8.270  -3.902  -0.329  0.00  0.00    -0.265 NA
ATOM     16  C   UNL     1      -9.292  -4.171  -1.375  0.00  0.00    +0.180 C 
ATOM     17  N   UNL     1      -8.748  -3.432  -2.545  0.00  0.00    -0.177 NA
ATOM     18  O   UNL     1      -8.149  -2.215  -1.960  0.00  0.00    -0.274 OA
ATOM     19  H   UNL     1      -7.490  -4.537  -0.414  0.00  0.00    +0.127 HD
ATOM     20  H   UNL     1      -8.053  -3.981  -3.029  0.00  0.00    +0.156 HD
BRANCH  16  21
ATOM     21  C   UNL     1      -9.389  -5.647  -1.665  0.00  0.00    -0.014 A 
ATOM     22  C   UNL     1      -9.120  -6.565  -0.668  0.00  0.00    +0.009 A 
ATOM     23  C   UNL     1      -9.209  -7.919  -0.932  0.00  0.00    +0.039 A 
ATOM     24  C   UNL     1      -9.567  -8.355  -2.197  0.00  0.00    +0.123 A 
ATOM     25  C   UNL     1      -9.836  -7.434  -3.195  0.00  0.00    +0.039 A 
ATOM     26  C   UNL     1      -9.752  -6.080  -2.926  0.00  0.00    +0.009 A 
ATOM     27  F   UNL     1      -9.653  -9.678  -2.457  0.00  0.00    -0.205 F 
ENDBRANCH  16  21
ENDBRANCH   7  14
BRANCH   1  28
ATOM     28  C   UNL     1       0.060  -2.746  -0.140  0.00  0.00    +0.168 C 
BRANCH  28  34
ATOM     29  C   UNL     1       0.568  -0.422  -0.934  0.00  0.00    +0.125 A 
ATOM     30  C   UNL     1       1.112   0.455  -1.861  0.00  0.00    +0.046 A 
ATOM     31  C   UNL     1       1.724  -0.036  -2.998  0.00  0.00    +0.004 A 
ATOM     32  C   UNL     1       1.794  -1.401  -3.212  0.00  0.00    +0.001 A 
ATOM     33  C   UNL     1       1.253  -2.277  -2.290  0.00  0.00    +0.009 A 
ATOM     34  C   UNL     1       0.645  -1.791  -1.148  0.00  0.00    +0.014 A 
BRANCH  29  36
ATOM     35  C   UNL     1      -0.077   1.478   0.341  0.00  0.00    +0.277 C 
ATOM     36  O   UNL     1      -0.034   0.058   0.186  0.00  0.00    -0.495 OA
ENDBRANCH  29  36
ENDBRANCH  28  34
ENDBRANCH   1  28
TORSDOF 5
