REMARK  Name = ZINC22006123
REMARK  9 active torsions:
REMARK  status: ('A' for Active; 'I' for Inactive)
REMARK    1  A    between atoms: C_4  and  C_7
REMARK    2  A    between atoms: C_7  and  O_8
REMARK    3  A    between atoms: O_8  and  C_9
REMARK    4  A    between atoms: N_16  and  C_19
REMARK    5  A    between atoms: C_19  and  C_20
REMARK    6  A    between atoms: C_20  and  C_26
REMARK    7  A    between atoms: C_22  and  C_24
REMARK    8  A    between atoms: C_24  and  O_25
REMARK    9  A    between atoms: C_26  and  O_27
REMARK                            x       y       z     vdW  Elec       q    Type
REMARK                         _______ _______ _______ _____ _____    ______ ____
ROOT
ATOM      1  C   UNL     1       5.315  -1.603   1.466  0.00  0.00    +0.225 A 
ATOM      2  C   UNL     1       5.807  -1.884   2.750  0.00  0.00    +0.167 A 
ATOM      3  C   UNL     1       7.030  -2.568   2.860  0.00  0.00    +0.169 A 
ATOM      4  N   UNL     1       7.675  -2.923   1.753  0.00  0.00    -0.196 NA
ATOM      5  C   UNL     1       7.174  -2.638   0.563  0.00  0.00    +0.195 A 
ATOM      6  N   UNL     1       6.020  -1.998   0.415  0.00  0.00    -0.297 N 
ATOM      7  N   UNL     1       7.874  -3.024  -0.568  0.00  0.00    -0.329 N 
ATOM      8  N   UNL     1       7.267  -2.707   4.204  0.00  0.00    -0.314 N 
ATOM      9  C   UNL     1       6.224  -2.126   4.865  0.00  0.00    +0.201 A 
ATOM     10  N   UNL     1       5.369  -1.645   4.011  0.00  0.00    -0.229 NA
ATOM     11  H   UNL     1       8.717  -3.495  -0.479  0.00  0.00    +0.145 HD
ATOM     12  H   UNL     1       7.522  -2.823  -1.449  0.00  0.00    +0.145 HD
ATOM     13  H   UNL     1       5.689  -1.813  -0.478  0.00  0.00    +0.172 HD
ENDROOT
BRANCH   1  14
ATOM     14  O   UNL     1       4.141  -0.946   1.304  0.00  0.00    -0.471 OA
BRANCH  14  15
ATOM     15  C   UNL     1       3.711  -0.707  -0.038  0.00  0.00    +0.266 C 
BRANCH  15  19
ATOM     16  C   UNL     1      -0.017   1.378   0.010  0.00  0.00    +0.000 A 
ATOM     17  C   UNL     1       1.171   2.086   0.002  0.00  0.00    +0.000 A 
ATOM     18  C   UNL     1       2.377   1.411  -0.013  0.00  0.00    +0.007 A 
ATOM     19  C   UNL     1       2.396   0.029  -0.020  0.00  0.00    -0.010 A 
ATOM     20  C   UNL     1       1.208  -0.679  -0.012  0.00  0.00    +0.007 A 
ATOM     21  C   UNL     1       0.002  -0.004   0.002  0.00  0.00    +0.000 A 
ENDBRANCH  15  19
ENDBRANCH  14  15
ENDBRANCH   1  14
BRANCH   8  22
ATOM     22  C   UNL     1       8.427  -3.358   4.817  0.00  0.00    +0.134 C 
BRANCH  22  23
ATOM     23  C   UNL     1       9.578  -2.356   4.922  0.00  0.00    +0.017 C 
ATOM     24  C   UNL     1      10.802  -2.590   4.035  0.00  0.00    +0.017 C 
ATOM     25  C   UNL     1      10.889  -2.847   5.540  0.00  0.00    +0.025 C 
BRANCH  25  26
ATOM     26  C   UNL     1      11.690  -1.852   6.382  0.00  0.00    +0.160 C 
BRANCH  26  27
ATOM     27  O   UNL     1      12.811  -2.517   6.967  0.00  0.00    -0.395 OA
ATOM     28  H   UNL     1      13.365  -1.945   7.516  0.00  0.00    +0.209 HD
ENDBRANCH  26  27
ENDBRANCH  25  26
BRANCH  23  29
ATOM     29  C   UNL     1       9.169  -0.907   5.194  0.00  0.00    +0.164 C 
BRANCH  29  30
ATOM     30  O   UNL     1       7.929  -0.631   4.538  0.00  0.00    -0.394 OA
ATOM     31  H   UNL     1       7.608   0.272   4.668  0.00  0.00    +0.209 HD
ENDBRANCH  29  30
ENDBRANCH  23  29
ENDBRANCH  22  23
ENDBRANCH   8  22
TORSDOF 9
