REMARK  Name = ZINC36870770
REMARK  4 active torsions:
REMARK  status: ('A' for Active; 'I' for Inactive)
REMARK    1  A    between atoms: C_5  and  C_8
REMARK    2  A    between atoms: C_5  and  N_11
REMARK    3  A    between atoms: C_12  and  C_14
REMARK    4  A    between atoms: C_14  and  C_15
REMARK                            x       y       z     vdW  Elec       q    Type
REMARK                         _______ _______ _______ _____ _____    ______ ____
ROOT
ATOM      1  N   UNL     1       2.469  -0.548  -0.387  0.00  0.00    -0.300 N 
ATOM      2  C   UNL     1       2.115  -1.620  -1.124  0.00  0.00    +0.214 C 
ATOM      3  O   UNL     1       1.561  -2.562  -0.597  0.00  0.00    -0.276 OA
ATOM      4  H   UNL     1       2.912   0.204  -0.808  0.00  0.00    +0.150 HD
ENDROOT
BRANCH   1   9
ATOM      5  C   UNL     1      -0.056   1.404   0.003  0.00  0.00    +0.000 C 
ATOM      6  C   UNL     1       1.350   2.039  -0.010  0.00  0.00    +0.000 C 
ATOM      7  C   UNL     1       1.901   2.008   1.390  0.00  0.00    +0.003 C 
ATOM      8  C   UNL     1       2.777   0.767   1.651  0.00  0.00    +0.037 C 
ATOM      9  C   UNL     1       2.183  -0.521   1.050  0.00  0.00    +0.136 C 
ATOM     10  C   UNL     1       0.695  -0.617   1.252  0.00  0.00    +0.037 C 
ATOM     11  C   UNL     1      -0.008  -0.050   0.001  0.00  0.00    +0.003 C 
BRANCH   9  12
ATOM     12  C   UNL     1       2.841  -1.711   1.698  0.00  0.00    +0.379 C 
ATOM     13  O   UNL     1       2.756  -1.873   2.904  0.00  0.00    -0.244 OA
ATOM     14  O   UNL     1       3.459  -2.512   1.018  0.00  0.00    -0.244 OA
ENDBRANCH   9  12
ENDBRANCH   1   9
BRANCH   2  15
ATOM     15  C   UNL     1       2.410  -1.649  -2.601  0.00  0.00    +0.101 C 
BRANCH  15  16
ATOM     16  C   UNL     1       1.910  -2.968  -3.195  0.00  0.00    +0.020 C 
ATOM     17  C   UNL     1       0.377  -3.024  -3.095  0.00  0.00    +0.028 C 
ATOM     18  C   UNL     1      -0.123  -4.207  -3.974  0.00  0.00    +0.166 C 
ATOM     19  S   UNL     1       0.977  -4.024  -5.441  0.00  0.00    -0.031 S 
ATOM     20  O   UNL     1       0.326  -3.214  -6.409  0.00  0.00    -0.174 OA
ATOM     21  O   UNL     1       1.465  -5.305  -5.815  0.00  0.00    -0.174 OA
ATOM     22  C   UNL     1       2.344  -3.060  -4.678  0.00  0.00    +0.170 C 
ENDBRANCH  15  16
ENDBRANCH   2  15
TORSDOF 4
