REMARK  Name = ZINC39544283
REMARK  6 active torsions:
REMARK  status: ('A' for Active; 'I' for Inactive)
REMARK    1  A    between atoms: C_1  and  C_2
REMARK    2  A    between atoms: C_2  and  C_3
REMARK    3  A    between atoms: C_3  and  N_4
REMARK    4  A    between atoms: N_4  and  C_5
REMARK    5  A    between atoms: C_10  and  O_11
REMARK    6  A    between atoms: C_12  and  C_14
REMARK                            x       y       z     vdW  Elec       q    Type
REMARK                         _______ _______ _______ _____ _____    ______ ____
ROOT
ATOM      1  C   UNL     1      -1.145  -2.042  -2.421  0.00  0.00    +0.030 C 
ATOM      2  C   UNL     1       0.200  -1.280  -2.435  0.00  0.00    +0.068 C 
ATOM      3  C   UNL     1       0.672  -1.333  -3.882  0.00  0.00    +0.136 C 
ATOM      4  C   UNL     1      -0.420  -2.075  -4.615  0.00  0.00    +0.085 C 
ATOM      5  N   UNL     1       0.060  -2.813  -5.765  0.00  0.00    -0.350 N 
ATOM      6  C   UNL     1       0.603  -4.092  -5.609  0.00  0.00    +0.027 A 
ATOM      7  C   UNL     1       1.221  -4.727  -6.677  0.00  0.00    +0.023 A 
ATOM      8  C   UNL     1       1.739  -5.997  -6.512  0.00  0.00    +0.002 A 
ATOM      9  C   UNL     1       1.638  -6.630  -5.286  0.00  0.00    +0.000 A 
ATOM     10  C   UNL     1       1.028  -5.994  -4.222  0.00  0.00    +0.003 A 
ATOM     11  C   UNL     1       0.513  -4.718  -4.375  0.00  0.00    -0.043 A 
ATOM     12  C   UNL     1      -0.113  -4.023  -3.204  0.00  0.00    -0.037 C 
ATOM     13  N   UNL     1      -1.045  -2.958  -3.603  0.00  0.00    +0.407 N 
ATOM     14  O   UNL     1       1.692  -0.880  -4.342  0.00  0.00    -0.298 OA
ATOM     15  H   UNL     1       0.005  -2.418  -6.649  0.00  0.00    +0.145 HD
ATOM     16  H   UNL     1      -1.944  -3.309  -3.899  0.00  0.00    -0.077 HD
ENDROOT
BRANCH   1  18
ATOM     17  N   UNL     1      -2.263  -2.518  -0.266  0.00  0.00    -0.270 N 
ATOM     18  C   UNL     1      -1.293  -2.835  -1.147  0.00  0.00    +0.207 C 
ATOM     19  O   UNL     1      -0.540  -3.757  -0.916  0.00  0.00    -0.277 OA
BRANCH  17  20
ATOM     20  C   UNL     1      -3.196  -1.521  -0.579  0.00  0.00    +0.078 A 
ATOM     21  C   UNL     1      -2.938  -0.199  -0.246  0.00  0.00    +0.027 A 
ATOM     22  C   UNL     1      -3.860   0.783  -0.555  0.00  0.00    +0.002 A 
ATOM     23  C   UNL     1      -5.040   0.452  -1.196  0.00  0.00    +0.004 A 
ATOM     24  C   UNL     1      -5.303  -0.863  -1.531  0.00  0.00    +0.047 A 
ATOM     25  C   UNL     1      -4.381  -1.853  -1.230  0.00  0.00    +0.138 A 
BRANCH  25  26
ATOM     26  O   UNL     1      -4.636  -3.146  -1.564  0.00  0.00    -0.505 OA
ATOM     27  H   UNL     1      -5.104  -3.644  -0.880  0.00  0.00    +0.292 HD
ENDBRANCH  25  26
ENDBRANCH  17  20
BRANCH  17  28
ATOM     28  C   UNL     1      -2.341  -3.218   1.019  0.00  0.00    +0.113 C 
BRANCH  28  30
ATOM     29  C   UNL     1      -3.078  -5.321   2.148  0.00  0.00    +0.005 C 
ATOM     30  C   UNL     1      -3.112  -4.527   0.841  0.00  0.00    +0.016 C 
ENDBRANCH  28  30
ENDBRANCH  17  28
ENDBRANCH   1  18
TORSDOF 5
