REMARK  Name = ZINC44770008
REMARK  5 active torsions:
REMARK  status: ('A' for Active; 'I' for Inactive)
REMARK    1  A    between atoms: C_1  and  C_2
REMARK    2  A    between atoms: C_5  and  C_9
REMARK    3  A    between atoms: C_6  and  O_8
REMARK    4  A    between atoms: C_17  and  C_19
REMARK    5  A    between atoms: C_23  and  C_25
REMARK                            x       y       z     vdW  Elec       q    Type
REMARK                         _______ _______ _______ _____ _____    ______ ____
ROOT
ATOM      1  C   UNL     1      -0.591  -4.359  -0.140  0.00  0.00    +0.250 C 
ATOM      2  O   UNL     1      -0.481  -4.951   0.916  0.00  0.00    -0.270 OA
ATOM      3  N   UNL     1      -0.520  -5.037  -1.303  0.00  0.00    -0.294 N 
ATOM      4  C   UNL     1      -0.538  -4.323  -2.587  0.00  0.00    +0.127 C 
ATOM      5  C   UNL     1       0.704  -4.728  -3.391  0.00  0.00    +0.127 C 
ATOM      6  N   UNL     1       0.801  -6.194  -3.397  0.00  0.00    -0.295 N 
ATOM      7  C   UNL     1       0.820  -6.909  -2.113  0.00  0.00    +0.127 C 
ATOM      8  C   UNL     1      -0.417  -6.503  -1.309  0.00  0.00    +0.127 C 
ATOM      9  C   UNL     1       0.873  -6.872  -4.560  0.00  0.00    +0.247 C 
ATOM     10  O   UNL     1       0.854  -8.088  -4.557  0.00  0.00    -0.270 OA
ENDROOT
BRANCH   1  15
ATOM     11  C   UNL     1      -1.421   1.337  -0.178  0.00  0.00    +0.044 C 
ATOM     12  C   UNL     1      -1.200  -0.154  -0.166  0.00  0.00    -0.047 A 
ATOM     13  C   UNL     1      -2.064  -0.984  -0.864  0.00  0.00    +0.004 A 
ATOM     14  C   UNL     1      -1.872  -2.348  -0.859  0.00  0.00    +0.017 A 
ATOM     15  C   UNL     1      -0.802  -2.899  -0.149  0.00  0.00    +0.078 A 
ATOM     16  C   UNL     1       0.069  -2.056   0.555  0.00  0.00    +0.129 A 
ATOM     17  C   UNL     1      -0.136  -0.685   0.535  0.00  0.00    +0.049 A 
BRANCH  16  18
ATOM     18  O   UNL     1       1.111  -2.580   1.248  0.00  0.00    -0.506 OA
ATOM     19  H   UNL     1       1.925  -2.662   0.733  0.00  0.00    +0.292 HD
ENDBRANCH  16  18
ENDBRANCH   1  15
BRANCH   9  20
ATOM     20  C   UNL     1       0.973  -6.138  -5.839  0.00  0.00    +0.037 A 
ATOM     21  C   UNL     1       1.666  -4.927  -5.900  0.00  0.00    +0.013 A 
ATOM     22  C   UNL     1       1.756  -4.247  -7.096  0.00  0.00    +0.001 A 
ATOM     23  C   UNL     1       1.161  -4.762  -8.235  0.00  0.00    +0.012 A 
ATOM     24  C   UNL     1       0.473  -5.961  -8.181  0.00  0.00    +0.056 A 
ATOM     25  C   UNL     1       0.380  -6.654  -6.992  0.00  0.00    +0.025 A 
BRANCH  24  26
ATOM     26  C   UNL     1      -0.172  -6.513  -9.426  0.00  0.00    +0.417 C 
ATOM     27  F   UNL     1       0.061  -5.644 -10.497  0.00  0.00    -0.166 F 
ATOM     28  F   UNL     1       0.375  -7.768  -9.717  0.00  0.00    -0.166 F 
ATOM     29  F   UNL     1      -1.550  -6.641  -9.220  0.00  0.00    -0.166 F 
ENDBRANCH  24  26
ENDBRANCH   9  20
TORSDOF 4
