REMARK  Name = ZINC51995561
REMARK  4 active torsions:
REMARK  status: ('A' for Active; 'I' for Inactive)
REMARK    1  A    between atoms: C_4  and  O_24
REMARK    2  A    between atoms: C_6  and  N_9
REMARK    3  A    between atoms: C_10  and  C_12
REMARK    4  A    between atoms: C_19  and  C_21
REMARK                            x       y       z     vdW  Elec       q    Type
REMARK                         _______ _______ _______ _____ _____    ______ ____
ROOT
ATOM      1  N   UNL     1       0.762  -1.976   1.234  0.00  0.00    -0.310 N 
ATOM      2  C   UNL     1      -0.282  -2.667   1.733  0.00  0.00    +0.218 C 
ATOM      3  O   UNL     1      -1.238  -2.076   2.189  0.00  0.00    -0.275 OA
ATOM      4  H   UNL     1       1.526  -2.448   0.869  0.00  0.00    +0.149 HD
ENDROOT
BRANCH   2   5
ATOM      5  C   UNL     1      -0.262  -4.173   1.725  0.00  0.00    +0.092 C 
ATOM      6  C   UNL     1      -0.144  -4.675   0.284  0.00  0.00    +0.016 C 
ATOM      7  C   UNL     1      -0.090  -6.204   0.277  0.00  0.00    +0.020 C 
ATOM      8  C   UNL     1      -1.385  -6.760   0.878  0.00  0.00    +0.108 C 
ATOM      9  N   UNL     1      -1.580  -6.169   2.209  0.00  0.00    -0.301 N 
ATOM     10  C   UNL     1      -1.558  -4.706   2.343  0.00  0.00    +0.120 C 
ATOM     11  C   UNL     1      -1.775  -6.954   3.287  0.00  0.00    +0.219 C 
ATOM     12  O   UNL     1      -1.935  -6.454   4.380  0.00  0.00    -0.275 OA
BRANCH  11  13
ATOM     13  C   UNL     1      -1.796  -8.453   3.133  0.00  0.00    +0.075 C 
ATOM     14  C   UNL     1      -3.131  -9.167   3.348  0.00  0.00    +0.013 C 
ATOM     15  C   UNL     1      -2.022  -9.289   4.394  0.00  0.00    +0.013 C 
ENDBRANCH  11  13
ENDBRANCH   2   5
BRANCH   1  20
ATOM     16  C   UNL     1      -0.019   1.526   0.010  0.00  0.00    +0.002 C 
ATOM     17  C   UNL     1       1.417   2.055  -0.000  0.00  0.00    +0.003 C 
ATOM     18  C   UNL     1       2.157   1.548   1.239  0.00  0.00    +0.033 C 
ATOM     19  C   UNL     1       2.178   0.019   1.231  0.00  0.00    +0.135 C 
ATOM     20  C   UNL     1       0.742  -0.511   1.242  0.00  0.00    +0.101 C 
ATOM     21  C   UNL     1       0.002  -0.004   0.002  0.00  0.00    +0.025 C 
BRANCH  19  22
ATOM     22  O   UNL     1       2.869  -0.455   2.388  0.00  0.00    -0.390 OA
ATOM     23  H   UNL     1       3.787  -0.157   2.447  0.00  0.00    +0.210 HD
ENDBRANCH  19  22
ENDBRANCH   1  20
TORSDOF 4
