REMARK  Name = ZINC39662446
REMARK  8 active torsions:
REMARK  status: ('A' for Active; 'I' for Inactive)
REMARK    1  A    between atoms: C_1  and  C_2
REMARK    2  A    between atoms: C_2  and  S_3
REMARK    3  A    between atoms: S_3  and  C_4
REMARK    4  A    between atoms: C_5  and  C_10
REMARK    5  A    between atoms: C_14  and  C_23
REMARK    6  A    between atoms: N_25  and  C_26
REMARK    7  A    between atoms: C_26  and  C_28
REMARK    8  A    between atoms: C_26  and  C_30
REMARK                            x       y       z     vdW  Elec       q    Type
REMARK                         _______ _______ _______ _____ _____    ______ ____
ROOT
ATOM      1  C   UNL     1       2.067  -2.695   3.296  0.00  0.00    +0.249 C 
ATOM      2  O   UNL     1       2.114  -1.481   3.362  0.00  0.00    -0.270 OA
ATOM      3  N   UNL     1       2.504  -3.444   4.328  0.00  0.00    -0.296 N 
ATOM      4  C   UNL     1       2.625  -4.919   4.392  0.00  0.00    +0.121 C 
ATOM      5  C   UNL     1       3.943  -5.170   5.158  0.00  0.00    +0.100 C 
ATOM      6  C   UNL     1       4.165  -3.893   5.986  0.00  0.00    -0.004 C 
ATOM      7  C   UNL     1       2.979  -2.977   5.652  0.00  0.00    +0.115 C 
ATOM      8  C   UNL     1       5.473  -3.220   5.580  0.00  0.00    -0.010 C 
ATOM      9  C   UNL     1       5.700  -1.985   6.456  0.00  0.00    -0.082 C 
ATOM     10  N   UNL     1       5.750  -2.386   7.867  0.00  0.00    +0.379 N 
ATOM     11  C   UNL     1       4.456  -2.947   8.274  0.00  0.00    -0.082 C 
ATOM     12  C   UNL     1       4.177  -4.223   7.475  0.00  0.00    -0.010 C 
ATOM     13  H   UNL     1       6.471  -3.081   7.993  0.00  0.00    -0.086 HD
ATOM     14  H   UNL     1       5.960  -1.581   8.437  0.00  0.00    -0.086 HD
ENDROOT
BRANCH   1  16
ATOM     15  C   UNL     1       1.759  -2.792   0.815  0.00  0.00    +0.109 A 
ATOM     16  C   UNL     1       1.532  -3.346   2.087  0.00  0.00    +0.069 A 
ATOM     17  C   UNL     1       0.789  -4.528   2.184  0.00  0.00    +0.017 A 
ATOM     18  C   UNL     1       0.309  -5.101   1.020  0.00  0.00    +0.020 A 
ATOM     19  C   UNL     1       0.573  -4.497  -0.197  0.00  0.00    +0.112 A 
ATOM     20  N   UNL     1       1.271  -3.380  -0.268  0.00  0.00    -0.248 NA
BRANCH  15  21
ATOM     21  S   UNL     1       2.690  -1.305   0.660  0.00  0.00    -0.105 S 
BRANCH  21  23
ATOM     22  C   UNL     1       3.496   0.299  -1.404  0.00  0.00    +0.015 C 
ATOM     23  C   UNL     1       2.709  -0.982  -1.125  0.00  0.00    +0.072 C 
ENDBRANCH  21  23
ENDBRANCH  15  21
ENDBRANCH   1  16
BRANCH   5  24
ATOM     24  C   UNL     1       3.805  -6.367   6.062  0.00  0.00    +0.219 C 
ATOM     25  O   UNL     1       2.728  -6.639   6.548  0.00  0.00    -0.275 OA
ATOM     26  N   UNL     1       4.880  -7.135   6.332  0.00  0.00    -0.296 N 
ATOM     27  H   UNL     1       5.741  -6.917   5.944  0.00  0.00    +0.150 HD
BRANCH  26  28
ATOM     28  C   UNL     1       4.745  -8.299   7.212  0.00  0.00    +0.207 C 
BRANCH  28  29
ATOM     29  C   UNL     1       6.079  -8.611   7.840  0.00  0.00    -0.013 A 
ATOM     30  C   UNL     1       7.237  -8.507   7.091  0.00  0.00    +0.006 A 
ATOM     31  C   UNL     1       8.460  -8.793   7.668  0.00  0.00    +0.000 A 
ATOM     32  C   UNL     1       8.527  -9.181   8.993  0.00  0.00    +0.000 A 
ATOM     33  C   UNL     1       7.369  -9.284   9.741  0.00  0.00    +0.000 A 
ATOM     34  C   UNL     1       6.146  -8.994   9.166  0.00  0.00    +0.006 A 
ENDBRANCH  28  29
BRANCH  28  35
ATOM     35  C   UNL     1       4.290  -9.458   6.426  0.00  0.00    +0.090 C 
ATOM     36  N   UNL     1       3.939 -10.352   5.820  0.00  0.00    -0.194 NA
ENDBRANCH  28  35
ENDBRANCH  26  28
ENDBRANCH   5  24
TORSDOF 7
