REMARK  Name = ZINC33072334
REMARK  6 active torsions:
REMARK  status: ('A' for Active; 'I' for Inactive)
REMARK    1  A    between atoms: C_1  and  C_2
REMARK    2  A    between atoms: C_6  and  N_8
REMARK    3  A    between atoms: C_9  and  C_11
REMARK    4  A    between atoms: C_11  and  N_12
REMARK    5  A    between atoms: C_20  and  C_29
REMARK    6  A    between atoms: C_23  and  N_28
REMARK                            x       y       z     vdW  Elec       q    Type
REMARK                         _______ _______ _______ _____ _____    ______ ____
ROOT
ATOM      1  N   UNL     1      -0.245  -6.364   3.344  0.00  0.00    -0.291 NA
ATOM      2  C   UNL     1       0.997  -6.857   2.734  0.00  0.00    +0.104 C 
ATOM      3  C   UNL     1       0.815  -8.322   2.324  0.00  0.00    +0.122 C 
ATOM      4  N   UNL     1       0.353  -9.082   3.496  0.00  0.00    -0.314 N 
ATOM      5  C   UNL     1      -0.807  -8.572   4.243  0.00  0.00    +0.122 C 
ATOM      6  C   UNL     1      -0.560  -7.097   4.577  0.00  0.00    +0.104 C 
ATOM      7  C   UNL     1       0.996 -10.249   3.887  0.00  0.00    +0.100 A 
ATOM      8  C   UNL     1       0.439 -11.013   4.921  0.00  0.00    +0.057 A 
ATOM      9  C   UNL     1       1.071 -12.183   5.322  0.00  0.00    +0.075 A 
ATOM     10  C   UNL     1       2.305 -12.551   4.624  0.00  0.00    +0.014 A 
ATOM     11  C   UNL     1       3.012 -13.710   4.957  0.00  0.00    +0.033 A 
ATOM     12  C   UNL     1       4.170 -14.018   4.272  0.00  0.00    +0.025 A 
ATOM     13  C   UNL     1       4.637 -13.180   3.252  0.00  0.00    +0.025 A 
ATOM     14  C   UNL     1       3.965 -12.048   2.914  0.00  0.00    +0.028 A 
ATOM     15  C   UNL     1       2.780 -11.705   3.592  0.00  0.00    +0.049 A 
ATOM     16  N   UNL     1       2.101 -10.600   3.270  0.00  0.00    -0.343 N 
ATOM     17  H   UNL     1       2.439 -10.035   2.558  0.00  0.00    +0.167 HD
ENDROOT
BRANCH  12  18
ATOM     18  N   UNL     1       4.881 -15.173   4.599  0.00  0.00    -0.358 N 
ATOM     19  H   UNL     1       4.561 -15.756   5.305  0.00  0.00    +0.142 HD
ATOM     20  H   UNL     1       5.696 -15.393   4.120  0.00  0.00    +0.142 HD
ENDBRANCH  12  18
BRANCH   9  21
ATOM     21  C   UNL     1       0.523 -13.020   6.406  0.00  0.00    +0.387 C 
ATOM     22  O   UNL     1      -0.446 -12.635   7.045  0.00  0.00    -0.241 OA
ATOM     23  O   UNL     1       1.038 -14.098   6.666  0.00  0.00    -0.241 OA
ENDBRANCH   9  21
BRANCH   1  24
ATOM     24  C   UNL     1      -0.171  -4.919   3.594  0.00  0.00    +0.180 C 
BRANCH  24  26
ATOM     25  N   UNL     1      -0.016  -2.839   2.263  0.00  0.00    -0.284 N 
ATOM     26  C   UNL     1      -0.092  -4.185   2.280  0.00  0.00    +0.231 C 
ATOM     27  O   UNL     1      -0.097  -4.805   1.238  0.00  0.00    -0.274 OA
ATOM     28  H   UNL     1       0.064  -2.348   3.096  0.00  0.00    +0.155 HD
BRANCH  25  34
ATOM     29  C   UNL     1       1.406   0.982  -0.483  0.00  0.00    +0.044 C 
ATOM     30  C   UNL     1       0.627  -0.296  -0.313  0.00  0.00    -0.049 A 
ATOM     31  C   UNL     1      -0.126  -0.791  -1.363  0.00  0.00    +0.003 A 
ATOM     32  C   UNL     1      -0.842  -1.964  -1.211  0.00  0.00    +0.002 A 
ATOM     33  C   UNL     1      -0.807  -2.646  -0.010  0.00  0.00    +0.023 A 
ATOM     34  C   UNL     1      -0.053  -2.152   1.045  0.00  0.00    +0.034 A 
ATOM     35  C   UNL     1       0.669  -0.976   0.888  0.00  0.00    +0.026 A 
ENDBRANCH  25  34
ENDBRANCH  24  26
ENDBRANCH   1  24
TORSDOF 5
