REMARK  Name = ZINC00071670
REMARK  3 active torsions:
REMARK  status: ('A' for Active; 'I' for Inactive)
REMARK    1  A    between atoms: C_1  and  C_2
REMARK    2  A    between atoms: C_3  and  C_18
REMARK    3  A    between atoms: C_4  and  C_10
REMARK                            x       y       z     vdW  Elec       q    Type
REMARK                         _______ _______ _______ _____ _____    ______ ____
ROOT
ATOM      1  C   UNL     1      -3.611   3.866  -0.171  0.00  0.00    +0.061 C 
ATOM      2  C   UNL     1      -2.159   4.258  -0.081  0.00  0.00    +0.019 C 
ATOM      3  C   UNL     1      -1.208   3.301  -0.140  0.00  0.00    +0.055 C 
ATOM      4  C   UNL     1       0.239   3.739  -0.052  0.00  0.00    +0.143 C 
ATOM      5  N   UNL     1       0.493   5.182   0.098  0.00  0.00    -0.288 N 
ATOM      6  C   UNL     1      -0.564   6.017   0.147  0.00  0.00    +0.304 C 
ATOM      7  O   UNL     1      -0.366   7.210   0.271  0.00  0.00    -0.252 OA
ATOM      8  N   UNL     1      -1.825   5.575   0.065  0.00  0.00    -0.273 N 
ATOM      9  H   UNL     1       1.399   5.523   0.159  0.00  0.00    +0.151 HD
ATOM     10  H   UNL     1      -2.543   6.226   0.107  0.00  0.00    +0.156 HD
ENDROOT
BRANCH   4  11
ATOM     11  C   UNL     1       0.943   3.271  -1.300  0.00  0.00    -0.003 A 
ATOM     12  C   UNL     1       1.023   4.103  -2.401  0.00  0.00    +0.007 A 
ATOM     13  C   UNL     1       1.668   3.675  -3.547  0.00  0.00    +0.002 A 
ATOM     14  C   UNL     1       2.232   2.414  -3.593  0.00  0.00    +0.021 A 
ATOM     15  C   UNL     1       2.152   1.580  -2.492  0.00  0.00    +0.060 A 
ATOM     16  C   UNL     1       1.512   2.011  -1.343  0.00  0.00    +0.064 A 
ATOM     17 CL   UNL     1       1.417   0.969   0.042  0.00  0.00    -0.082 Cl
ATOM     18 CL   UNL     1       2.860  -0.004  -2.550  0.00  0.00    -0.082 Cl
ENDBRANCH   4  11
BRANCH   3  19
ATOM     19  C   UNL     1      -1.553   1.935  -0.285  0.00  0.00    +0.241 C 
ATOM     20  O   UNL     1      -1.573   1.205   0.690  0.00  0.00    -0.271 OA
ATOM     21  N   UNL     1      -1.859   1.442  -1.502  0.00  0.00    -0.326 N 
ATOM     22  H   UNL     1      -2.024   0.493  -1.613  0.00  0.00    +0.145 HD
ATOM     23  H   UNL     1      -1.917   2.038  -2.265  0.00  0.00    +0.145 HD
ENDBRANCH   3  19
TORSDOF 2
