REMARK  Name = ZINC20283049
REMARK  3 active torsions:
REMARK  status: ('A' for Active; 'I' for Inactive)
REMARK    1  A    between atoms: C_3  and  C_13
REMARK    2  A    between atoms: N_6  and  C_8
REMARK    3  A    between atoms: C_8  and  C_9
REMARK                            x       y       z     vdW  Elec       q    Type
REMARK                         _______ _______ _______ _____ _____    ______ ____
ROOT
ATOM      1  C   UNL     1      -0.934   1.330  -1.230  0.00  0.00    +0.016 C 
ATOM      2  C   UNL     1      -0.707   2.837  -1.377  0.00  0.00    +0.015 C 
ATOM      3  C   UNL     1      -1.187   3.545  -0.107  0.00  0.00    +0.089 C 
ATOM      4  C   UNL     1      -0.439   2.977   1.101  0.00  0.00    +0.097 C 
ATOM      5  N   UNL     1      -0.689   1.533   1.199  0.00  0.00    -0.294 NA
ATOM      6  C   UNL     1      -0.193   0.827   0.011  0.00  0.00    +0.085 C 
ENDROOT
BRANCH   3   7
ATOM      7  C   UNL     1      -0.913   5.022  -0.219  0.00  0.00    +0.215 C 
ATOM      8  O   UNL     1      -0.193   5.569   0.589  0.00  0.00    -0.276 OA
ATOM      9  N   UNL     1      -1.468   5.736  -1.218  0.00  0.00    -0.329 N 
ATOM     10  H   UNL     1      -1.268   6.815  -1.300  0.00  0.00    +0.145 HD
ATOM     11  H   UNL     1      -2.122   5.241  -1.952  0.00  0.00    +0.145 HD
ENDBRANCH   3   7
BRANCH   5  12
ATOM     12  C   UNL     1      -0.099   0.979   2.425  0.00  0.00    +0.198 C 
BRANCH  12  13
ATOM     13  C   UNL     1       1.337   1.484   2.574  0.00  0.00    +0.402 C 
ATOM     14  F   UNL     1       1.325   2.866   2.794  0.00  0.00    -0.169 F 
ATOM     15  F   UNL     1       1.946   0.845   3.659  0.00  0.00    -0.169 F 
ATOM     16  F   UNL     1       2.054   1.204   1.405  0.00  0.00    -0.169 F 
ENDBRANCH  12  13
ENDBRANCH   5  12
TORSDOF 3
