REMARK  Name = ZINC09557746
REMARK  6 active torsions:
REMARK  status: ('A' for Active; 'I' for Inactive)
REMARK    1  A    between atoms: C_1  and  C_2
REMARK    2  A    between atoms: C_6  and  N_8
REMARK    3  A    between atoms: C_9  and  N_27
REMARK    4  A    between atoms: C_14  and  S_15
REMARK    5  A    between atoms: S_15  and  C_16
REMARK    6  A    between atoms: C_16  and  C_17
REMARK                            x       y       z     vdW  Elec       q    Type
REMARK                         _______ _______ _______ _____ _____    ______ ____
ROOT
ATOM      1  N   UNL     1      -0.079   5.244   0.034  0.00  0.00    -0.277 N 
ATOM      2  C   UNL     1      -0.603   5.927  -1.035  0.00  0.00    +0.108 A 
ATOM      3  C   UNL     1      -0.612   7.291  -1.010  0.00  0.00    +0.114 A 
ATOM      4  C   UNL     1      -0.082   7.956   0.114  0.00  0.00    +0.276 A 
ATOM      5  O   UNL     1      -0.080   9.177   0.160  0.00  0.00    -0.266 OA
ATOM      6  N   UNL     1       0.418   7.242   1.135  0.00  0.00    -0.185 NA
ATOM      7  C   UNL     1       0.419   5.926   1.106  0.00  0.00    +0.179 A 
ENDROOT
BRANCH   1  13
ATOM      8  C   UNL     1       2.478   1.044  -0.015  0.00  0.00    +0.044 C 
ATOM      9  C   UNL     1       1.165   1.782   0.003  0.00  0.00    -0.048 A 
ATOM     10  C   UNL     1      -0.024   1.077   0.013  0.00  0.00    +0.003 A 
ATOM     11  C   UNL     1      -1.232   1.750   0.024  0.00  0.00    +0.002 A 
ATOM     12  C   UNL     1      -1.253   3.132   0.036  0.00  0.00    +0.026 A 
ATOM     13  C   UNL     1      -0.061   3.843   0.027  0.00  0.00    +0.050 A 
ATOM     14  C   UNL     1       1.150   3.163   0.010  0.00  0.00    +0.029 A 
ENDBRANCH   1  13
BRANCH   2  15
ATOM     15  N   UNL     1      -1.112   5.245  -2.117  0.00  0.00    -0.344 N 
ATOM     16  H   UNL     1      -1.102   4.276  -2.128  0.00  0.00    +0.144 HD
ATOM     17  H   UNL     1      -1.480   5.735  -2.869  0.00  0.00    +0.144 HD
ENDBRANCH   2  15
BRANCH   7  18
ATOM     18  S   UNL     1       1.079   5.030   2.471  0.00  0.00    -0.078 S 
BRANCH  18  19
ATOM     19  C   UNL     1       1.567   6.404   3.543  0.00  0.00    +0.173 C 
BRANCH  19  20
ATOM     20  C   UNL     1       2.175   5.862   4.811  0.00  0.00    +0.229 C 
ATOM     21  O   UNL     1       2.270   4.664   4.973  0.00  0.00    -0.275 OA
ATOM     22  N   UNL     1       2.614   6.708   5.763  0.00  0.00    -0.270 N 
ATOM     23  C   UNL     1       3.079   6.208   6.979  0.00  0.00    +0.125 A 
ATOM     24  C   UNL     1       3.430   7.089   7.997  0.00  0.00    +0.045 A 
ATOM     25  C   UNL     1       3.885   6.580   9.200  0.00  0.00    +0.020 A 
ATOM     26  C   UNL     1       3.984   5.201   9.341  0.00  0.00    +0.036 A 
ATOM     27  C   UNL     1       3.623   4.386   8.286  0.00  0.00    +0.128 A 
ATOM     28  N   UNL     1       3.188   4.901   7.152  0.00  0.00    -0.239 NA
ATOM     29 BR   UNL     1       4.606   4.449  10.961  0.00  0.00    -0.049 Br
ATOM     30  H   UNL     1       2.606   7.665   5.603  0.00  0.00    +0.156 HD
ENDBRANCH  19  20
ENDBRANCH  18  19
ENDBRANCH   7  18
TORSDOF 5
