REMARK  Name = ZINC35929501
REMARK  3 active torsions:
REMARK  status: ('A' for Active; 'I' for Inactive)
REMARK    1  A    between atoms: C_6  and  O_7
REMARK    2  A    between atoms: O_7  and  S_8
REMARK    3  A    between atoms: S_8  and  N_11
REMARK                            x       y       z     vdW  Elec       q    Type
REMARK                         _______ _______ _______ _____ _____    ______ ____
ROOT
ATOM      1  C   UNL     1      -0.017   1.383   0.010  0.00  0.00    +0.049 A 
ATOM      2  C   UNL     1       1.170   2.088   0.002  0.00  0.00    +0.011 A 
ATOM      3  C   UNL     1       2.384   1.420  -0.008  0.00  0.00    -0.001 A 
ATOM      4  C   UNL     1       2.406   0.036  -0.011  0.00  0.00    +0.139 A 
ATOM      5  C   UNL     1       1.213  -0.676  -0.008  0.00  0.00    +0.095 A 
ATOM      6  C   UNL     1       0.002  -0.004   0.002  0.00  0.00    +0.161 A 
ATOM      7  O   UNL     1       3.575  -0.659  -0.004  0.00  0.00    -0.425 OA
ATOM      8  C   UNL     1       4.704   0.022  -0.281  0.00  0.00    +0.316 C 
ATOM      9  O   UNL     1       5.566  -0.449  -0.984  0.00  0.00    -0.250 OA
ATOM     10  C   UNL     1       4.850   1.401   0.325  0.00  0.00    +0.106 C 
ATOM     11  C   UNL     1       3.652   2.236  -0.018  0.00  0.00    +0.036 C 
ATOM     12  C   UNL     1       3.440   3.487   0.853  0.00  0.00    +0.009 C 
ATOM     13  C   UNL     1       4.746   4.218   1.062  0.00  0.00    +0.001 C 
ATOM     14  C   UNL     1       5.444   3.724   2.329  0.00  0.00    +0.000 C 
ATOM     15  C   UNL     1       6.223   2.480   2.137  0.00  0.00    +0.001 C 
ATOM     16  C   UNL     1       5.265   1.334   1.748  0.00  0.00    +0.015 C 
ENDROOT
BRANCH   6  17
ATOM     17  O   UNL     1      -1.164  -0.702   0.005  0.00  0.00    -0.334 OA
BRANCH  17  18
ATOM     18  S   UNL     1      -1.703  -1.012  -1.384  0.00  0.00    +0.189 S 
ATOM     19  O   UNL     1      -3.007  -1.549  -1.204  0.00  0.00    -0.119 OA
ATOM     20  O   UNL     1      -1.457   0.138  -2.182  0.00  0.00    -0.119 OA
BRANCH  18  21
ATOM     21  N   UNL     1      -0.772  -2.230  -2.010  0.00  0.00    -0.174 NA
ATOM     22  H   UNL     1      -0.042  -2.599  -1.489  0.00  0.00    +0.147 HD
ATOM     23  H   UNL     1      -0.957  -2.575  -2.898  0.00  0.00    +0.147 HD
ENDBRANCH  18  21
ENDBRANCH  17  18
ENDBRANCH   6  17
TORSDOF 3
