REMARK  Name = ZINC37627317
REMARK  7 active torsions:
REMARK  status: ('A' for Active; 'I' for Inactive)
REMARK    1  A    between atoms: C_1  and  C_2
REMARK    2  A    between atoms: C_2  and  C_4
REMARK    3  A    between atoms: C_2  and  N_11
REMARK    4  A    between atoms: C_12  and  C_14
REMARK    5  A    between atoms: C_14  and  N_15
REMARK    6  A    between atoms: C_16  and  C_18
REMARK    7  A    between atoms: C_18  and  N_19
REMARK                            x       y       z     vdW  Elec       q    Type
REMARK                         _______ _______ _______ _____ _____    ______ ____
ROOT
ATOM      1  N   UNL     1       0.688  -0.476  -1.203  0.00  0.00    -0.307 N 
ATOM      2  C   UNL     1       0.006  -0.608  -2.358  0.00  0.00    +0.231 C 
ATOM      3  O   UNL     1      -1.175  -0.336  -2.400  0.00  0.00    -0.274 OA
ATOM      4  H   UNL     1       1.632  -0.695  -1.170  0.00  0.00    +0.149 HD
ENDROOT
BRANCH   1   6
ATOM      5  C   UNL     1      -0.019   1.526   0.010  0.00  0.00    +0.033 C 
ATOM      6  C   UNL     1       0.002  -0.004   0.002  0.00  0.00    +0.101 C 
BRANCH   6   7
ATOM      7  C   UNL     1       0.731  -0.503   1.223  0.00  0.00    -0.014 A 
ATOM      8  C   UNL     1       2.077  -0.808   1.148  0.00  0.00    +0.006 A 
ATOM      9  C   UNL     1       2.746  -1.266   2.268  0.00  0.00    +0.000 A 
ATOM     10  C   UNL     1       2.069  -1.419   3.463  0.00  0.00    +0.001 A 
ATOM     11  C   UNL     1       0.723  -1.114   3.539  0.00  0.00    +0.015 A 
ATOM     12  C   UNL     1       0.054  -0.651   2.420  0.00  0.00    +0.023 A 
ATOM     13 BR   UNL     1      -1.786  -0.228   2.525  0.00  0.00    -0.050 Br
ENDBRANCH   6   7
ENDBRANCH   1   6
BRANCH   2  14
ATOM     14  C   UNL     1       0.712  -1.094  -3.598  0.00  0.00    +0.200 C 
BRANCH  14  15
ATOM     15  N   UNL     1      -0.240  -1.150  -4.711  0.00  0.00    -0.308 N 
ATOM     16  C   UNL     1       0.170  -1.560  -5.928  0.00  0.00    +0.196 C 
ATOM     17  O   UNL     1       1.327  -1.881  -6.102  0.00  0.00    -0.278 OA
ATOM     18  H   UNL     1      -1.165  -0.893  -4.572  0.00  0.00    +0.149 HD
BRANCH  16  19
ATOM     19  C   UNL     1      -0.808  -1.617  -7.073  0.00  0.00    +0.011 C 
BRANCH  19  20
ATOM     20  N   UNL     1      -0.121  -2.091  -8.281  0.00  0.00    +0.384 N 
ATOM     21  H   UNL     1       0.629  -1.457  -8.512  0.00  0.00    -0.089 HD
ATOM     22  H   UNL     1       0.256  -3.012  -8.115  0.00  0.00    -0.089 HD
ATOM     23  H   UNL     1      -0.776  -2.130  -9.048  0.00  0.00    -0.089 HD
ENDBRANCH  19  20
ENDBRANCH  16  19
ENDBRANCH  14  15
ENDBRANCH   2  14
TORSDOF 6
