REMARK  Name = ZINC28296684
REMARK  9 active torsions:
REMARK  status: ('A' for Active; 'I' for Inactive)
REMARK    1  A    between atoms: C_1  and  C_2
REMARK    2  A    between atoms: C_4  and  C_38
REMARK    3  A    between atoms: C_8  and  C_32
REMARK    4  A    between atoms: C_9  and  C_26
REMARK    5  A    between atoms: N_10  and  C_11
REMARK    6  A    between atoms: C_11  and  C_12
REMARK    7  A    between atoms: C_12  and  C_14
REMARK    8  A    between atoms: C_12  and  O_25
REMARK    9  A    between atoms: C_14  and  N_15
REMARK                            x       y       z     vdW  Elec       q    Type
REMARK                         _______ _______ _______ _____ _____    ______ ____
ROOT
ATOM      1  C   UNL     1       0.363   6.342  -0.564  0.00  0.00    +0.044 C 
ATOM      2  C   UNL     1      -0.272   5.098   0.002  0.00  0.00    -0.049 A 
ATOM      3  C   UNL     1       0.414   3.892  -0.044  0.00  0.00    +0.008 A 
ATOM      4  C   UNL     1      -0.149   2.744   0.467  0.00  0.00    -0.026 A 
ATOM      5  C   UNL     1      -1.421   2.788   1.032  0.00  0.00    +0.053 A 
ATOM      6  C   UNL     1      -2.108   4.014   1.080  0.00  0.00    +0.009 A 
ATOM      7  C   UNL     1      -1.519   5.165   0.556  0.00  0.00    +0.014 A 
ATOM      8  C   UNL     1      -3.398   3.739   1.730  0.00  0.00    +0.015 A 
ATOM      9  C   UNL     1      -3.405   2.393   2.032  0.00  0.00    +0.058 A 
ATOM     10  N   UNL     1      -2.222   1.831   1.617  0.00  0.00    -0.337 N 
ATOM     11  C   UNL     1       0.607   1.442   0.410  0.00  0.00    +0.046 C 
ENDROOT
BRANCH   9  12
ATOM     12  C   UNL     1      -4.508   1.672   2.697  0.00  0.00    -0.001 A 
ATOM     13  C   UNL     1      -5.091   0.561   2.082  0.00  0.00    +0.010 A 
ATOM     14  C   UNL     1      -6.117  -0.112   2.712  0.00  0.00    +0.001 A 
ATOM     15  C   UNL     1      -6.577   0.318   3.944  0.00  0.00    +0.000 A 
ATOM     16  C   UNL     1      -6.008   1.421   4.556  0.00  0.00    +0.001 A 
ATOM     17  C   UNL     1      -4.977   2.100   3.941  0.00  0.00    +0.010 A 
ENDBRANCH   9  12
BRANCH   8  18
ATOM     18  C   UNL     1      -4.476   4.714   2.007  0.00  0.00    -0.015 A 
ATOM     19  C   UNL     1      -4.777   5.072   3.321  0.00  0.00    +0.008 A 
ATOM     20  C   UNL     1      -5.779   5.986   3.572  0.00  0.00    +0.001 A 
ATOM     21  C   UNL     1      -6.494   6.539   2.524  0.00  0.00    +0.000 A 
ATOM     22  C   UNL     1      -6.204   6.184   1.218  0.00  0.00    +0.001 A 
ATOM     23  C   UNL     1      -5.200   5.276   0.954  0.00  0.00    +0.008 A 
ENDBRANCH   8  18
BRANCH  10  24
ATOM     24  C   UNL     1      -1.867   0.418   1.768  0.00  0.00    +0.151 C 
BRANCH  24  25
ATOM     25  C   UNL     1      -1.053   0.232   3.050  0.00  0.00    +0.118 C 
BRANCH  25  26
ATOM     26  O   UNL     1      -1.875   0.521   4.183  0.00  0.00    -0.392 OA
ATOM     27  H   UNL     1      -1.460   0.441   5.199  0.00  0.00    +0.210 HD
ENDBRANCH  25  26
BRANCH  25  28
ATOM     28  C   UNL     1      -0.559  -1.214   3.135  0.00  0.00    -0.045 C 
BRANCH  28  29
ATOM     29  N   UNL     1       0.221  -1.394   4.367  0.00  0.00    +0.384 N 
ATOM     30  C   UNL     1       1.527  -0.724   4.268  0.00  0.00    -0.074 C 
ATOM     31  C   UNL     1       2.129  -0.624   5.669  0.00  0.00    +0.017 C 
ATOM     32  C   UNL     1       2.091  -1.972   6.342  0.00  0.00    -0.048 A 
ATOM     33  C   UNL     1       2.893  -2.179   7.455  0.00  0.00    +0.004 A 
ATOM     34  C   UNL     1       2.885  -3.397   8.104  0.00  0.00    +0.000 A 
ATOM     35  C   UNL     1       2.074  -4.417   7.642  0.00  0.00    +0.000 A 
ATOM     36  C   UNL     1       1.277  -4.213   6.533  0.00  0.00    +0.002 A 
ATOM     37  C   UNL     1       1.285  -2.990   5.879  0.00  0.00    -0.061 A 
ATOM     38  C   UNL     1       0.401  -2.817   4.672  0.00  0.00    -0.043 C 
ATOM     39  H   UNL     1      -0.347  -0.935   5.190  0.00  0.00    -0.081 HD
ENDBRANCH  28  29
ENDBRANCH  25  28
ENDBRANCH  24  25
ENDBRANCH  10  24
TORSDOF 7
