REMARK  Name = ZINC62953261
REMARK  8 active torsions:
REMARK  status: ('A' for Active; 'I' for Inactive)
REMARK    1  A    between atoms: C_1  and  C_2
REMARK    2  A    between atoms: C_2  and  C_3
REMARK    3  A    between atoms: C_3  and  C_21
REMARK    4  A    between atoms: N_6  and  C_9
REMARK    5  A    between atoms: C_12  and  S_16
REMARK    6  A    between atoms: C_14  and  N_15
REMARK    7  A    between atoms: S_16  and  N_19
REMARK    8  A    between atoms: N_19  and  C_20
REMARK                            x       y       z     vdW  Elec       q    Type
REMARK                         _______ _______ _______ _____ _____    ______ ____
ROOT
ATOM      1  C   UNL     1       3.952  -2.713   2.703  0.00  0.00    +0.051 A 
ATOM      2  C   UNL     1       4.423  -3.042   3.965  0.00  0.00    +0.027 A 
ATOM      3  C   UNL     1       5.558  -3.821   4.099  0.00  0.00    +0.030 A 
ATOM      4  C   UNL     1       6.226  -4.274   2.977  0.00  0.00    +0.107 A 
ATOM      5  C   UNL     1       5.763  -3.951   1.714  0.00  0.00    +0.053 A 
ATOM      6  C   UNL     1       4.623  -3.174   1.571  0.00  0.00    +0.048 A 
ENDROOT
BRANCH   1  10
ATOM      7  C   UNL     1       0.742  -0.511   1.242  0.00  0.00    -0.029 C 
ATOM      8  C   UNL     1       2.177   0.020   1.231  0.00  0.00    +0.025 C 
ATOM      9  C   UNL     1       2.905  -0.461   2.491  0.00  0.00    +0.105 C 
ATOM     10  N   UNL     1       2.804  -1.924   2.566  0.00  0.00    -0.328 N 
ATOM     11  C   UNL     1       1.474  -2.545   2.493  0.00  0.00    +0.105 C 
ATOM     12  C   UNL     1       0.763  -2.041   1.233  0.00  0.00    +0.025 C 
ATOM     13  C   UNL     1       0.025  -0.018   2.500  0.00  0.00    +0.011 C 
BRANCH   7  15
ATOM     14  C   UNL     1      -0.019   1.526   0.010  0.00  0.00    +0.004 C 
ATOM     15  C   UNL     1       0.002  -0.004   0.002  0.00  0.00    +0.003 C 
ENDBRANCH   7  15
ENDBRANCH   1  10
BRANCH   6  16
ATOM     16  N   UNL     1       4.151  -2.850   0.293  0.00  0.00    -0.356 N 
ATOM     17  H   UNL     1       3.355  -2.304   0.195  0.00  0.00    +0.142 HD
ATOM     18  H   UNL     1       4.618  -3.172  -0.493  0.00  0.00    +0.142 HD
ENDBRANCH   6  16
BRANCH   4  19
ATOM     19  S   UNL     1       7.671  -5.266   3.156  0.00  0.00    +0.058 S 
ATOM     20  O   UNL     1       8.423  -5.108   1.960  0.00  0.00    -0.153 OA
ATOM     21  O   UNL     1       8.209  -4.972   4.438  0.00  0.00    -0.153 OA
BRANCH  19  22
ATOM     22  N   UNL     1       7.178  -6.846   3.200  0.00  0.00    -0.193 NA
ATOM     23  C   UNL     1       6.549  -7.450   2.023  0.00  0.00    +0.127 C 
ATOM     24  H   UNL     1       7.306  -7.372   4.005  0.00  0.00    +0.148 HD
ENDBRANCH  19  22
ENDBRANCH   4  19
TORSDOF 5
