REMARK  Name = ZINC67633447
REMARK  8 active torsions:
REMARK  status: ('A' for Active; 'I' for Inactive)
REMARK    1  A    between atoms: C_1  and  C_2
REMARK    2  A    between atoms: C_2  and  C_3
REMARK    3  A    between atoms: C_2  and  N_4
REMARK    4  A    between atoms: C_7  and  C_10
REMARK    5  A    between atoms: C_10  and  N_11
REMARK    6  A    between atoms: C_12  and  C_14
REMARK    7  A    between atoms: C_16  and  S_20
REMARK    8  A    between atoms: S_20  and  N_23
REMARK                            x       y       z     vdW  Elec       q    Type
REMARK                         _______ _______ _______ _____ _____    ______ ____
ROOT
ATOM      1  C   UNL     1      -6.232  -3.512  -4.332  0.00  0.00    +0.104 A 
ATOM      2  C   UNL     1      -6.760  -3.985  -5.515  0.00  0.00    +0.060 A 
ATOM      3  C   UNL     1      -7.827  -4.824  -5.182  0.00  0.00    +0.123 A 
ATOM      4  C   UNL     1      -7.931  -4.849  -3.832  0.00  0.00    +0.112 A 
ATOM      5  N   UNL     1      -6.964  -4.060  -3.303  0.00  0.00    -0.355 N 
ATOM      6  H   UNL     1      -6.814  -3.906  -2.358  0.00  0.00    +0.166 HD
ENDROOT
BRANCH   1   8
ATOM      7  N   UNL     1      -4.678  -2.218  -2.971  0.00  0.00    -0.310 N 
ATOM      8  C   UNL     1      -5.094  -2.596  -4.196  0.00  0.00    +0.260 C 
ATOM      9  O   UNL     1      -4.527  -2.179  -5.188  0.00  0.00    -0.269 OA
ATOM     10  H   UNL     1      -5.130  -2.551  -2.180  0.00  0.00    +0.149 HD
BRANCH   7  11
ATOM     11  C   UNL     1      -3.541  -1.304  -2.834  0.00  0.00    +0.106 C 
BRANCH  11  15
ATOM     12  N   UNL     1      -1.376  -0.512   0.012  0.00  0.00    +0.381 N 
ATOM     13  C   UNL     1      -1.385  -1.992  -0.122  0.00  0.00    -0.078 C 
ATOM     14  C   UNL     1      -2.796  -2.326  -0.653  0.00  0.00    -0.015 C 
ATOM     15  C   UNL     1      -3.276  -1.037  -1.351  0.00  0.00    -0.012 C 
ATOM     16  C   UNL     1      -2.116  -0.033  -1.183  0.00  0.00    -0.074 C 
ATOM     17  H   UNL     1      -1.850  -0.230   0.857  0.00  0.00    -0.081 HD
BRANCH  12  19
ATOM     18  C   UNL     1      -0.019   1.526   0.010  0.00  0.00    -0.014 C 
ATOM     19  C   UNL     1       0.002  -0.004   0.002  0.00  0.00    -0.075 C 
ATOM     20  C   UNL     1       0.742  -0.511   1.242  0.00  0.00    -0.014 C 
ENDBRANCH  12  19
ENDBRANCH  11  15
ENDBRANCH   7  11
ENDBRANCH   1   8
BRANCH   3  21
ATOM     21  S   UNL     1      -8.856  -5.695  -6.317  0.00  0.00    +0.062 S 
ATOM     22  O   UNL     1     -10.084  -5.943  -5.646  0.00  0.00    -0.153 OA
ATOM     23  O   UNL     1      -8.790  -4.989  -7.549  0.00  0.00    -0.153 OA
BRANCH  21  24
ATOM     24  N   UNL     1      -8.154  -7.172  -6.580  0.00  0.00    -0.172 NA
ATOM     25  C   UNL     1      -7.173  -7.363  -7.661  0.00  0.00    +0.137 C 
ATOM     26  C   UNL     1      -5.933  -8.046  -7.073  0.00  0.00    +0.177 C 
ATOM     27  O   UNL     1      -6.335  -9.221  -6.365  0.00  0.00    -0.377 OA
ATOM     28  C   UNL     1      -7.188  -8.967  -5.246  0.00  0.00    +0.177 C 
ATOM     29  C   UNL     1      -8.488  -8.330  -5.737  0.00  0.00    +0.137 C 
ENDBRANCH  21  24
ENDBRANCH   3  21
TORSDOF 6
