REMARK  Name = ZINC22057103
REMARK  8 active torsions:
REMARK  status: ('A' for Active; 'I' for Inactive)
REMARK    1  A    between atoms: C_1  and  C_2
REMARK    2  A    between atoms: C_5  and  C_9
REMARK    3  A    between atoms: C_9  and  N_10
REMARK    4  A    between atoms: C_11  and  C_13
REMARK    5  A    between atoms: C_13  and  O_14
REMARK    6  A    between atoms: O_14  and  C_15
REMARK    7  A    between atoms: C_15  and  C_17
REMARK    8  A    between atoms: C_19  and  N_25
REMARK                            x       y       z     vdW  Elec       q    Type
REMARK                         _______ _______ _______ _____ _____    ______ ____
ROOT
ATOM      1  O   UNL     1      -5.875   5.717  -2.962  0.00  0.00    -0.451 OA
ENDROOT
BRANCH   1   2
ATOM      2  C   UNL     1      -6.420   6.021  -4.156  0.00  0.00    +0.360 C 
ATOM      3  O   UNL     1      -5.852   5.704  -5.181  0.00  0.00    -0.243 OA
BRANCH   2   4
ATOM      4  C   UNL     1      -7.711   6.740  -4.218  0.00  0.00    +0.169 A 
ATOM      5  C   UNL     1      -8.265   7.056  -5.455  0.00  0.00    +0.095 A 
ATOM      6  C   UNL     1      -9.486   7.731  -5.496  0.00  0.00    +0.067 A 
ATOM      7  C   UNL     1     -10.095   8.071  -4.289  0.00  0.00    +0.100 A 
ATOM      8  C   UNL     1      -9.477   7.726  -3.097  0.00  0.00    +0.150 A 
ATOM      9  N   UNL     1      -8.327   7.085  -3.091  0.00  0.00    -0.226 NA
ATOM     10 CL   UNL     1     -10.230   8.146  -1.590  0.00  0.00    -0.060 Cl
ATOM     11 CL   UNL     1     -11.611   8.917  -4.278  0.00  0.00    -0.078 Cl
ATOM     12 CL   UNL     1      -7.454   6.612  -6.924  0.00  0.00    -0.079 Cl
BRANCH   6  13
ATOM     13  N   UNL     1     -10.079   8.062  -6.713  0.00  0.00    -0.356 N 
ATOM     14  H   UNL     1     -11.042   8.594  -6.729  0.00  0.00    +0.142 HD
ATOM     15  H   UNL     1      -9.585   7.790  -7.657  0.00  0.00    +0.142 HD
ENDBRANCH   6  13
ENDBRANCH   2   4
ENDBRANCH   1   2
BRANCH   1  16
ATOM     16  C   UNL     1      -4.606   5.010  -2.978  0.00  0.00    +0.328 C 
BRANCH  16  18
ATOM     17  N   UNL     1      -2.995   4.112  -1.330  0.00  0.00    -0.308 N 
ATOM     18  C   UNL     1      -4.154   4.758  -1.562  0.00  0.00    +0.251 C 
ATOM     19  O   UNL     1      -4.834   5.137  -0.632  0.00  0.00    -0.272 OA
ATOM     20  H   UNL     1      -2.378   3.768  -2.174  0.00  0.00    +0.149 HD
BRANCH  17  21
ATOM     21  C   UNL     1      -2.555   3.867   0.046  0.00  0.00    +0.139 C 
BRANCH  21  26
ATOM     22  C   UNL     1       2.490   1.047  -0.016  0.00  0.00    +0.047 C 
ATOM     23  C   UNL     1       1.175   1.783   0.000  0.00  0.00    -0.015 A 
ATOM     24  C   UNL     1      -0.013   1.076   0.008  0.00  0.00    +0.006 A 
ATOM     25  C   UNL     1      -1.219   1.750   0.017  0.00  0.00    +0.005 A 
ATOM     26  C   UNL     1      -1.239   3.133   0.030  0.00  0.00    -0.028 A 
ATOM     27  C   UNL     1      -0.053   3.842   0.022  0.00  0.00    +0.043 A 
ATOM     28  C   UNL     1       1.156   3.167   0.008  0.00  0.00    +0.127 A 
ATOM     29  F   UNL     1       2.316   3.859   0.001  0.00  0.00    -0.205 F 
ENDBRANCH  21  26
ENDBRANCH  17  21
ENDBRANCH  16  18
ENDBRANCH   1  16
TORSDOF 7
