REMARK  Name = ZINC39914488
REMARK  6 active torsions:
REMARK  status: ('A' for Active; 'I' for Inactive)
REMARK    1  A    between atoms: C_1  and  C_2
REMARK    2  A    between atoms: C_4  and  O_30
REMARK    3  A    between atoms: C_5  and  C_9
REMARK    4  A    between atoms: N_17  and  C_27
REMARK    5  A    between atoms: C_18  and  C_20
REMARK    6  A    between atoms: C_27  and  C_28
REMARK                            x       y       z     vdW  Elec       q    Type
REMARK                         _______ _______ _______ _____ _____    ______ ____
ROOT
ATOM      1  C   UNL     1       0.121  -4.354  -0.048  0.00  0.00    +0.102 A 
ATOM      2  C   UNL     1       0.198  -5.144   1.104  0.00  0.00    +0.035 A 
ATOM      3  C   UNL     1       0.164  -6.454   0.665  0.00  0.00    +0.126 A 
ATOM      4  N   UNL     1       0.071  -6.396  -0.696  0.00  0.00    -0.272 N 
ATOM      5  H   UNL     1       0.028  -7.166  -1.285  0.00  0.00    +0.189 HD
ATOM      6  N   UNL     1       0.042  -5.170  -1.081  0.00  0.00    -0.173 NA
ATOM      7  C   UNL     1       0.240  -7.339   1.833  0.00  0.00    +0.266 C 
ATOM      8  O   UNL     1       0.234  -8.555   1.785  0.00  0.00    -0.268 OA
ATOM      9  N   UNL     1       0.319  -6.616   2.965  0.00  0.00    -0.281 N 
ATOM     10  C   UNL     1       0.299  -5.193   2.604  0.00  0.00    +0.142 C 
ENDROOT
BRANCH   1  15
ATOM     11  C   UNL     1       0.120   1.406  -0.241  0.00  0.00    +0.045 C 
ATOM     12  C   UNL     1       0.122  -0.100  -0.193  0.00  0.00    -0.029 A 
ATOM     13  C   UNL     1       0.932  -0.816  -1.055  0.00  0.00    +0.050 A 
ATOM     14  C   UNL     1       0.937  -2.200  -1.015  0.00  0.00    +0.126 A 
ATOM     15  C   UNL     1       0.122  -2.871  -0.098  0.00  0.00    +0.045 A 
ATOM     16  C   UNL     1      -0.689  -2.142   0.767  0.00  0.00    +0.034 A 
ATOM     17  C   UNL     1      -0.681  -0.761   0.720  0.00  0.00    +0.045 A 
ATOM     18 CL   UNL     1      -1.688   0.147   1.804  0.00  0.00    -0.083 Cl
BRANCH  14  19
ATOM     19  O   UNL     1       1.731  -2.904  -1.863  0.00  0.00    -0.506 OA
ATOM     20  H   UNL     1       2.614  -3.088  -1.514  0.00  0.00    +0.292 HD
ENDBRANCH  14  19
ENDBRANCH   1  15
BRANCH  10  21
ATOM     21  C   UNL     1       1.571  -4.524   3.059  0.00  0.00    -0.022 A 
ATOM     22  C   UNL     1       2.790  -5.142   2.851  0.00  0.00    +0.007 A 
ATOM     23  C   UNL     1       3.956  -4.530   3.268  0.00  0.00    +0.020 A 
ATOM     24  C   UNL     1       3.904  -3.297   3.894  0.00  0.00    +0.041 A 
ATOM     25  C   UNL     1       2.684  -2.679   4.103  0.00  0.00    +0.020 A 
ATOM     26  C   UNL     1       1.519  -3.290   3.680  0.00  0.00    +0.007 A 
ATOM     27 CL   UNL     1       5.369  -2.527   4.419  0.00  0.00    -0.084 Cl
ENDBRANCH  10  21
BRANCH   9  28
ATOM     28  C   UNL     1       0.410  -7.156   4.324  0.00  0.00    +0.135 C 
BRANCH  28  29
ATOM     29  C   UNL     1       1.858  -7.345   4.694  0.00  0.00    -0.016 C 
ATOM     30  C   UNL     1       2.335  -6.789   5.780  0.00  0.00    +0.005 C 
ENDBRANCH  28  29
ENDBRANCH   9  28
TORSDOF 5
