REMARK  Name = ZINC37350126
REMARK  4 active torsions:
REMARK  status: ('A' for Active; 'I' for Inactive)
REMARK    1  A    between atoms: C_1  and  C_2
REMARK    2  A    between atoms: C_6  and  C_7
REMARK    3  A    between atoms: C_8  and  C_13
REMARK    4  A    between atoms: C_9  and  N_12
REMARK                            x       y       z     vdW  Elec       q    Type
REMARK                         _______ _______ _______ _____ _____    ______ ____
ROOT
ATOM      1  C   UNL     1       0.031  -0.387   2.500  0.00  0.00    +0.158 A 
ATOM      2  C   UNL     1       0.060  -1.257   3.680  0.00  0.00    +0.074 A 
ATOM      3  C   UNL     1       0.058  -0.428   4.784  0.00  0.00    +0.224 A 
ATOM      4  O   UNL     1       0.030   0.841   4.349  0.00  0.00    -0.339 OA
ATOM      5  N   UNL     1       0.019   0.853   2.936  0.00  0.00    -0.072 NA
ENDROOT
BRANCH   2   6
ATOM      6  C   UNL     1       0.086  -2.738   3.686  0.00  0.00    -0.011 A 
ATOM      7  C   UNL     1      -0.998  -3.459   3.187  0.00  0.00    +0.010 A 
ATOM      8  C   UNL     1      -0.968  -4.839   3.195  0.00  0.00    +0.016 A 
ATOM      9  C   UNL     1       0.135  -5.507   3.698  0.00  0.00    +0.018 A 
ATOM     10  C   UNL     1       1.214  -4.796   4.195  0.00  0.00    +0.016 A 
ATOM     11  C   UNL     1       1.197  -3.417   4.186  0.00  0.00    +0.010 A 
ATOM     12 BR   UNL     1       0.168  -7.398   3.706  0.00  0.00    -0.050 Br
ENDBRANCH   2   6
BRANCH   1  18
ATOM     13  C   UNL     1      -0.018   1.503   0.010  0.00  0.00    +0.048 C 
ATOM     14  C   UNL     1       0.002  -0.004   0.002  0.00  0.00    -0.003 A 
ATOM     15  C   UNL     1       0.009  -0.838  -1.133  0.00  0.00    +0.045 A 
ATOM     16  C   UNL     1       0.028  -2.111  -0.688  0.00  0.00    +0.196 A 
ATOM     17  O   UNL     1       0.034  -2.097   0.654  0.00  0.00    -0.461 OA
ATOM     18  C   UNL     1       0.024  -0.821   1.089  0.00  0.00    +0.160 A 
ENDBRANCH   1  18
BRANCH   3  19
ATOM     19  N   UNL     1       0.079  -0.834   6.102  0.00  0.00    -0.327 N 
ATOM     20  H   UNL     1       0.098  -1.779   6.318  0.00  0.00    +0.145 HD
ATOM     21  H   UNL     1       0.076  -0.173   6.812  0.00  0.00    +0.145 HD
ENDBRANCH   3  19
TORSDOF 3
