REMARK  Name = ZINC39777083
REMARK  10 active torsions:
REMARK  status: ('A' for Active; 'I' for Inactive)
REMARK    1  A    between atoms: C_1  and  C_2
REMARK    2  A    between atoms: C_3  and  N_9
REMARK    3  A    between atoms: C_4  and  C_8
REMARK    4  A    between atoms: N_5  and  C_7
REMARK    5  A    between atoms: C_10  and  C_12
REMARK    6  A    between atoms: C_12  and  C_14
REMARK    7  A    between atoms: C_12  and  S_15
REMARK    8  A    between atoms: S_15  and  C_16
REMARK    9  A    between atoms: C_20  and  C_25
REMARK   10  A    between atoms: N_21  and  C_22
REMARK                            x       y       z     vdW  Elec       q    Type
REMARK                         _______ _______ _______ _____ _____    ______ ____
ROOT
ATOM      1  C   UNL     1      -0.599   3.706  -5.918  0.00  0.00    +0.238 C 
ATOM      2  N   UNL     1       0.314   3.250  -6.979  0.00  0.00    -0.237 N 
ATOM      3  N   UNL     1      -0.371   2.262  -7.695  0.00  0.00    -0.169 NA
ATOM      4  C   UNL     1      -1.568   2.066  -7.208  0.00  0.00    +0.147 C 
ATOM      5  N   UNL     1      -1.816   2.901  -6.112  0.00  0.00    -0.282 N 
ATOM      6  H   UNL     1       1.213   3.572  -7.148  0.00  0.00    +0.171 HD
ENDROOT
BRANCH   4   7
ATOM      7  C   UNL     1      -2.487   1.137  -7.718  0.00  0.00    +0.022 C 
ATOM      8  C   UNL     1      -2.270   0.205  -8.733  0.00  0.00    +0.006 A 
ATOM      9  C   UNL     1      -1.141  -0.096  -9.525  0.00  0.00    +0.010 A 
ATOM     10  C   UNL     1      -1.216  -1.078 -10.460  0.00  0.00    +0.001 A 
ATOM     11  C   UNL     1      -2.390  -1.807 -10.662  0.00  0.00    +0.002 A 
ATOM     12  C   UNL     1      -3.512  -1.572  -9.937  0.00  0.00    +0.026 A 
ATOM     13  C   UNL     1      -3.510  -0.560  -8.942  0.00  0.00    +0.043 A 
ATOM     14  N   UNL     1      -4.452  -0.145  -8.118  0.00  0.00    -0.380 N 
ATOM     15  C   UNL     1      -3.921   0.933  -7.279  0.00  0.00    +0.152 C 
ATOM     16  H   UNL     1      -5.353  -0.501  -8.072  0.00  0.00    +0.160 HD
ENDBRANCH   4   7
BRANCH   5  17
ATOM     17  C   UNL     1      -3.044   2.963  -5.315  0.00  0.00    +0.078 C 
ATOM     18  C   UNL     1      -3.117   4.022  -4.212  0.00  0.00    +0.024 C 
ATOM     19  C   UNL     1      -2.954   2.546  -3.846  0.00  0.00    +0.024 C 
ENDBRANCH   5  17
BRANCH   1  20
ATOM     20  S   UNL     1       0.119   3.386  -4.282  0.00  0.00    -0.106 S 
BRANCH  20  21
ATOM     21  C   UNL     1       0.434   1.600  -4.284  0.00  0.00    +0.133 C 
ATOM     22  C   UNL     1       1.497   1.270  -5.334  0.00  0.00    +0.029 C 
BRANCH  21  24
ATOM     23  N   UNL     1       0.843  -0.117  -2.551  0.00  0.00    -0.282 N 
ATOM     24  C   UNL     1       0.924   1.175  -2.923  0.00  0.00    +0.230 C 
ATOM     25  O   UNL     1       1.391   1.997  -2.163  0.00  0.00    -0.274 OA
ATOM     26  H   UNL     1       0.521  -0.783  -3.178  0.00  0.00    +0.155 HD
BRANCH  23  29
ATOM     27  C   UNL     1       0.466   1.641  -0.008  0.00  0.00    +0.069 C 
ATOM     28  C   UNL     1       1.071   0.264  -0.086  0.00  0.00    +0.081 A 
ATOM     29  C   UNL     1       1.225  -0.501  -1.251  0.00  0.00    +0.077 A 
ATOM     30  C   UNL     1       1.808  -1.676  -0.904  0.00  0.00    +0.057 A 
ATOM     31  N   UNL     1       2.014  -1.651   0.439  0.00  0.00    -0.270 N 
ATOM     32  N   UNL     1       1.547  -0.422   0.922  0.00  0.00    -0.175 NA
ATOM     33  C   UNL     1       2.621  -2.717   1.238  0.00  0.00    +0.172 C 
ATOM     34  C   UNL     1       2.163  -2.805  -1.837  0.00  0.00    +0.067 C 
ENDBRANCH  23  29
ENDBRANCH  21  24
ENDBRANCH  20  21
ENDBRANCH   1  20
TORSDOF 6
