REMARK  Name = ZINC55171510
REMARK  5 active torsions:
REMARK  status: ('A' for Active; 'I' for Inactive)
REMARK    1  A    between atoms: C_1  and  C_2
REMARK    2  A    between atoms: C_3  and  C_8
REMARK    3  A    between atoms: N_10  and  C_11
REMARK    4  A    between atoms: C_11  and  C_13
REMARK    5  A    between atoms: C_11  and  C_14
REMARK                            x       y       z     vdW  Elec       q    Type
REMARK                         _______ _______ _______ _____ _____    ______ ____
ROOT
ATOM      1  C   UNL     1      -0.008  -0.258  -2.565  0.00  0.00    +0.253 C 
ATOM      2  O   UNL     1      -0.027   0.937  -2.802  0.00  0.00    -0.270 OA
ATOM      3  N   UNL     1      -0.001  -1.145  -3.580  0.00  0.00    -0.300 N 
ATOM      4  H   UNL     1       0.014  -2.097  -3.391  0.00  0.00    +0.150 HD
ENDROOT
BRANCH   1   7
ATOM      5  C   UNL     1      -0.018   1.503   0.010  0.00  0.00    +0.067 C 
ATOM      6  C   UNL     1       0.002  -0.004   0.002  0.00  0.00    +0.060 A 
ATOM      7  C   UNL     1       0.006  -0.729  -1.181  0.00  0.00    +0.098 A 
ATOM      8  S   UNL     1       0.033  -2.397  -0.545  0.00  0.00    -0.048 S 
ATOM      9  C   UNL     1       0.036  -2.022   1.096  0.00  0.00    +0.156 A 
ATOM     10  N   UNL     1       0.022  -0.700   1.111  0.00  0.00    -0.230 NA
ATOM     11  N   UNL     1       0.053  -2.886   2.169  0.00  0.00    -0.337 N 
ATOM     12  H   UNL     1       0.066  -3.845   2.019  0.00  0.00    +0.144 HD
ATOM     13  H   UNL     1       0.053  -2.537   3.074  0.00  0.00    +0.144 HD
ENDBRANCH   1   7
BRANCH   3  14
ATOM     14  C   UNL     1      -0.015  -0.673  -4.966  0.00  0.00    +0.156 C 
ATOM     15  C   UNL     1       1.415  -0.369  -5.416  0.00  0.00    +0.038 C 
BRANCH  14  16
ATOM     16  C   UNL     1      -0.605  -1.738  -5.854  0.00  0.00    +0.231 C 
ATOM     17  O   UNL     1      -0.977  -2.789  -5.375  0.00  0.00    -0.274 OA
ATOM     18  N   UNL     1      -0.720  -1.524  -7.179  0.00  0.00    -0.328 N 
ATOM     19  H   UNL     1      -0.422  -0.684  -7.562  0.00  0.00    +0.145 HD
ATOM     20  H   UNL     1      -1.099  -2.210  -7.751  0.00  0.00    +0.145 HD
ENDBRANCH  14  16
ENDBRANCH   3  14
TORSDOF 3
