REMARK  Name = ZINC04649785
REMARK  7 active torsions:
REMARK  status: ('A' for Active; 'I' for Inactive)
REMARK    1  A    between atoms: C_1  and  C_2
REMARK    2  A    between atoms: C_2  and  O_26
REMARK    3  A    between atoms: C_6  and  O_10
REMARK    4  A    between atoms: C_11  and  C_19
REMARK    5  A    between atoms: C_13  and  C_15
REMARK    6  A    between atoms: C_15  and  O_17
REMARK    7  A    between atoms: O_17  and  C_18
REMARK                            x       y       z     vdW  Elec       q    Type
REMARK                         _______ _______ _______ _____ _____    ______ ____
ROOT
ATOM      1  C   UNL     1      -0.161   1.492   0.205  0.00  0.00    +0.042 C 
ATOM      2  C   UNL     1      -0.092  -0.033   0.106  0.00  0.00    +0.082 C 
ATOM      3  C   UNL     1      -1.513  -0.610   0.122  0.00  0.00    +0.090 C 
ATOM      4  C   UNL     1      -1.415  -2.108   0.273  0.00  0.00    +0.046 A 
ATOM      5  C   UNL     1      -0.301  -2.760   0.691  0.00  0.00    +0.044 A 
ATOM      6  C   UNL     1      -0.582  -4.128   0.704  0.00  0.00    +0.235 A 
ATOM      7  N   UNL     1      -1.824  -4.291   0.309  0.00  0.00    -0.136 NA
ATOM      8  N   UNL     1      -2.366  -3.027   0.033  0.00  0.00    -0.278 N 
ATOM      9  H   UNL     1      -3.268  -2.848  -0.276  0.00  0.00    +0.189 HD
ATOM     10  C   UNL     1       0.990  -2.075   1.066  0.00  0.00    +0.072 C 
ATOM     11  C   UNL     1       0.699  -0.587   1.294  0.00  0.00    +0.141 C 
ENDROOT
BRANCH  10  12
ATOM     12  C   UNL     1       1.539  -2.685   2.330  0.00  0.00    -0.039 A 
ATOM     13  C   UNL     1       2.903  -2.852   2.480  0.00  0.00    +0.005 A 
ATOM     14  C   UNL     1       3.408  -3.411   3.639  0.00  0.00    +0.015 A 
ATOM     15  C   UNL     1       2.548  -3.803   4.649  0.00  0.00    +0.018 A 
ATOM     16  C   UNL     1       1.183  -3.635   4.498  0.00  0.00    +0.015 A 
ATOM     17  C   UNL     1       0.680  -3.072   3.341  0.00  0.00    +0.005 A 
ATOM     18 BR   UNL     1       3.238  -4.568   6.235  0.00  0.00    -0.050 Br
ENDBRANCH  10  12
BRANCH   6  19
ATOM     19  O   UNL     1       0.279  -5.118   1.063  0.00  0.00    -0.491 OA
ATOM     20  H   UNL     1       0.254  -5.340   2.004  0.00  0.00    +0.294 HD
ENDBRANCH   6  19
BRANCH  11  21
ATOM     21  C   UNL     1      -0.107  -0.420   2.556  0.00  0.00    +0.314 C 
ATOM     22  O   UNL     1      -1.139  -1.032   2.699  0.00  0.00    -0.250 OA
BRANCH  21  23
ATOM     23  O   UNL     1       0.320   0.410   3.521  0.00  0.00    -0.468 OA
ATOM     24  C   UNL     1      -0.494   0.519   4.690  0.00  0.00    +0.280 C 
ENDBRANCH  21  23
ENDBRANCH  11  21
BRANCH   2  25
ATOM     25  O   UNL     1       0.558  -0.402  -1.113  0.00  0.00    -0.388 OA
ATOM     26  H   UNL     1       0.110  -0.083  -1.909  0.00  0.00    +0.210 HD
ENDBRANCH   2  25
TORSDOF 5
