REMARK  Name = ZINC63572455
REMARK  3 active torsions:
REMARK  status: ('A' for Active; 'I' for Inactive)
REMARK    1  A    between atoms: C_1  and  C_2
REMARK    2  A    between atoms: C_7  and  N_8
REMARK    3  A    between atoms: C_24  and  C_26
REMARK                            x       y       z     vdW  Elec       q    Type
REMARK                         _______ _______ _______ _____ _____    ______ ____
ROOT
ATOM      1  N   UNL     1       1.802   0.022   2.988  0.00  0.00    -0.269 N 
ATOM      2  C   UNL     1       1.111  -0.664   3.920  0.00  0.00    +0.307 C 
ATOM      3  O   UNL     1       1.023  -1.874   3.844  0.00  0.00    -0.252 OA
ATOM      4  N   UNL     1       0.516  -0.008   4.936  0.00  0.00    -0.276 N 
ATOM      5  C   UNL     1       0.519   1.459   4.953  0.00  0.00    +0.114 C 
ATOM      6  C   UNL     1      -0.932   1.973   5.005  0.00  0.00    +0.052 C 
ATOM      7  C   UNL     1      -1.645   1.152   6.050  0.00  0.00    -0.035 C 
ATOM      8  C   UNL     1      -2.372   1.509   7.101  0.00  0.00    +0.001 A 
ATOM      9  C   UNL     1      -2.839   2.824   7.568  0.00  0.00    +0.030 A 
ATOM     10  C   UNL     1      -3.563   2.829   8.720  0.00  0.00    +0.042 A 
ATOM     11  C   UNL     1      -3.865   1.671   9.444  0.00  0.00    +0.022 A 
ATOM     12  C   UNL     1      -3.484   0.420   9.083  0.00  0.00    +0.027 A 
ATOM     13  C   UNL     1      -2.724   0.285   7.884  0.00  0.00    +0.043 A 
ATOM     14  N   UNL     1      -2.255  -0.778   7.301  0.00  0.00    -0.375 N 
ATOM     15  C   UNL     1      -1.607  -0.372   6.053  0.00  0.00    +0.131 C 
ATOM     16  C   UNL     1      -0.133  -0.771   6.014  0.00  0.00    +0.134 C 
ATOM     17 CL   UNL     1      -4.142   4.351   9.321  0.00  0.00    -0.084 Cl
ATOM     18  H   UNL     1       1.933   0.978   3.087  0.00  0.00    +0.156 HD
ATOM     19  H   UNL     1      -2.324  -1.686   7.636  0.00  0.00    +0.160 HD
ENDROOT
BRANCH   1  26
ATOM     20  C   UNL     1       2.074   1.470   0.554  0.00  0.00    +0.045 C 
ATOM     21  C   UNL     1       2.481   0.024   0.670  0.00  0.00    -0.029 A 
ATOM     22  C   UNL     1       3.008  -0.636  -0.423  0.00  0.00    +0.005 A 
ATOM     23  C   UNL     1       3.381  -1.963  -0.317  0.00  0.00    +0.000 A 
ATOM     24  C   UNL     1       3.228  -2.634   0.882  0.00  0.00    +0.002 A 
ATOM     25  C   UNL     1       2.701  -1.980   1.978  0.00  0.00    +0.023 A 
ATOM     26  C   UNL     1       2.331  -0.645   1.877  0.00  0.00    +0.038 A 
ENDBRANCH   1  26
BRANCH  16  27
ATOM     27  C   UNL     1      -0.014  -2.247   5.737  0.00  0.00    -0.025 A 
ATOM     28  C   UNL     1      -0.788  -2.830   4.752  0.00  0.00    +0.008 A 
ATOM     29  C   UNL     1      -0.679  -4.184   4.498  0.00  0.00    +0.038 A 
ATOM     30  C   UNL     1       0.206  -4.957   5.230  0.00  0.00    +0.123 A 
ATOM     31  C   UNL     1       0.982  -4.372   6.216  0.00  0.00    +0.038 A 
ATOM     32  C   UNL     1       0.875  -3.016   6.465  0.00  0.00    +0.008 A 
ATOM     33  F   UNL     1       0.314  -6.281   4.982  0.00  0.00    -0.205 F 
ENDBRANCH  16  27
TORSDOF 2
