REMARK  Name = ZINC16928818
REMARK  9 active torsions:
REMARK  status: ('A' for Active; 'I' for Inactive)
REMARK    1  A    between atoms: C_1  and  C_2
REMARK    2  A    between atoms: C_2  and  C_27
REMARK    3  A    between atoms: N_7  and  C_8
REMARK    4  A    between atoms: C_11  and  C_14
REMARK    5  A    between atoms: C_14  and  C_15
REMARK    6  A    between atoms: C_15  and  C_16
REMARK    7  A    between atoms: C_16  and  C_17
REMARK    8  A    between atoms: C_17  and  O_18
REMARK    9  A    between atoms: O_18  and  C_19
REMARK                            x       y       z     vdW  Elec       q    Type
REMARK                         _______ _______ _______ _____ _____    ______ ____
ROOT
ATOM      1  C   UNL     1      -2.349  -0.223  -0.854  0.00  0.00    +0.038 A 
ATOM      2  C   UNL     1      -3.540  -0.911  -1.052  0.00  0.00    +0.024 A 
ATOM      3  C   UNL     1      -3.541  -2.095  -1.761  0.00  0.00    +0.005 A 
ATOM      4  C   UNL     1      -2.357  -2.603  -2.264  0.00  0.00    -0.047 A 
ATOM      5  C   UNL     1      -1.170  -1.924  -2.065  0.00  0.00    +0.005 A 
ATOM      6  C   UNL     1      -1.162  -0.735  -1.361  0.00  0.00    +0.024 A 
ENDROOT
BRANCH   1  13
ATOM      7  C   UNL     1      -3.104   2.061  -2.209  0.00  0.00    +0.056 C 
ATOM      8  C   UNL     1      -2.967   2.195  -0.691  0.00  0.00    +0.109 C 
ATOM      9  N   UNL     1      -2.105   3.339  -0.372  0.00  0.00    -0.337 N 
ATOM     10  C   UNL     1      -1.331   3.309   0.680  0.00  0.00    +0.191 C 
ATOM     11  N   UNL     1      -1.260   2.232   1.480  0.00  0.00    -0.187 NA
ATOM     12  C   UNL     1      -1.761   1.071   1.101  0.00  0.00    +0.189 C 
ATOM     13  N   UNL     1      -2.345   0.980  -0.141  0.00  0.00    -0.250 N 
ATOM     14  N   UNL     1      -1.704  -0.017   1.928  0.00  0.00    -0.331 N 
ATOM     15  N   UNL     1      -0.567   4.418   0.980  0.00  0.00    -0.329 N 
ATOM     16  C   UNL     1      -4.348   2.397  -0.065  0.00  0.00    +0.056 C 
ATOM     17  H   UNL     1      -2.125  -0.979   1.600  0.00  0.00    +0.145 HD
ATOM     18  H   UNL     1      -1.238   0.069   2.920  0.00  0.00    +0.145 HD
ATOM     19  H   UNL     1       0.092   4.411   1.861  0.00  0.00    +0.145 HD
ATOM     20  H   UNL     1      -0.616   5.310   0.338  0.00  0.00    +0.145 HD
ATOM     21  H   UNL     1      -2.114   4.225  -1.023  0.00  0.00    +0.164 HD
ENDBRANCH   1  13
BRANCH   4  22
ATOM     22  C   UNL     1      -2.361  -3.900  -3.033  0.00  0.00    +0.035 C 
BRANCH  22  23
ATOM     23  C   UNL     1      -2.153  -5.066  -2.065  0.00  0.00    +0.008 C 
BRANCH  23  24
ATOM     24  C   UNL     1      -2.157  -6.383  -2.845  0.00  0.00    +0.041 C 
BRANCH  24  25
ATOM     25  C   UNL     1      -1.948  -7.550  -1.877  0.00  0.00    +0.229 C 
BRANCH  25  26
ATOM     26  O   UNL     1      -1.952  -8.779  -2.605  0.00  0.00    -0.492 OA
BRANCH  26  27
ATOM     27  C   UNL     1      -1.778  -9.921  -1.889  0.00  0.00    +0.120 A 
ATOM     28  C   UNL     1      -1.601  -9.859  -0.515  0.00  0.00    +0.045 A 
ATOM     29  C   UNL     1      -1.430 -11.021   0.212  0.00  0.00    +0.004 A 
ATOM     30  C   UNL     1      -1.423 -12.245  -0.432  0.00  0.00    +0.000 A 
ATOM     31  C   UNL     1      -1.593 -12.309  -1.802  0.00  0.00    +0.004 A 
ATOM     32  C   UNL     1      -1.771 -11.150  -2.533  0.00  0.00    +0.045 A 
ENDBRANCH  26  27
ENDBRANCH  25  26
ENDBRANCH  24  25
ENDBRANCH  23  24
ENDBRANCH  22  23
ENDBRANCH   4  22
TORSDOF 7
