REMARK  Name = ZINC16955399
REMARK  5 active torsions:
REMARK  status: ('A' for Active; 'I' for Inactive)
REMARK    1  A    between atoms: C_3  and  S_15
REMARK    2  A    between atoms: C_8  and  O_14
REMARK    3  A    between atoms: C_9  and  S_11
REMARK    4  A    between atoms: S_11  and  O_13
REMARK    5  A    between atoms: S_15  and  O_17
REMARK                            x       y       z     vdW  Elec       q    Type
REMARK                         _______ _______ _______ _____ _____    ______ ____
ROOT
ATOM      1  C   UNL     1      -0.091   3.870   0.023  0.00  0.00    +0.010 A 
ATOM      2  C   UNL     1      -1.238   3.136   0.030  0.00  0.00    +0.028 A 
ATOM      3  C   UNL     1      -1.199   1.744   0.017  0.00  0.00    +0.097 A 
ATOM      4  C   UNL     1      -0.013   1.076   0.008  0.00  0.00    +0.036 A 
ATOM      5  C   UNL     1       1.192   1.798   0.000  0.00  0.00    -0.014 A 
ATOM      6  C   UNL     1       1.153   3.215   0.008  0.00  0.00    -0.014 A 
ATOM      7  C   UNL     1       2.356   3.939  -0.000  0.00  0.00    +0.056 A 
ATOM      8  C   UNL     1       3.546   3.269  -0.015  0.00  0.00    +0.143 A 
ATOM      9  C   UNL     1       3.583   1.871  -0.023  0.00  0.00    +0.138 A 
ATOM     10  C   UNL     1       2.436   1.142  -0.016  0.00  0.00    +0.040 A 
ENDROOT
BRANCH   9  11
ATOM     11  S   UNL     1       5.138   1.044  -0.042  0.00  0.00    +0.031 S 
ATOM     12  O   UNL     1       4.824  -0.269  -0.485  0.00  0.00    -0.161 OA
BRANCH  11  13
ATOM     13  O   UNL     1       5.478   0.863   1.431  0.00  0.00    -0.265 OA
ATOM     14  H   UNL     1       6.414   0.365   1.722  0.00  0.00    +0.243 HD
ENDBRANCH  11  13
ENDBRANCH   9  11
BRANCH   8  15
ATOM     15  O   UNL     1       4.710   3.971  -0.024  0.00  0.00    -0.505 OA
ATOM     16  H   UNL     1       5.673   3.439  -0.036  0.00  0.00    +0.292 HD
ENDBRANCH   8  15
BRANCH   3  17
ATOM     17  S   UNL     1      -2.707   0.833   0.020  0.00  0.00    +0.028 S 
ATOM     18  O   UNL     1      -2.329  -0.461  -0.429  0.00  0.00    -0.161 OA
BRANCH  17  19
ATOM     19  O   UNL     1      -3.015   0.635   1.497  0.00  0.00    -0.265 OA
ATOM     20  H   UNL     1      -3.919   0.088   1.802  0.00  0.00    +0.243 HD
ENDBRANCH  17  19
ENDBRANCH   3  17
TORSDOF 5
