REMARK  Name = ZINC39335621
REMARK  5 active torsions:
REMARK  status: ('A' for Active; 'I' for Inactive)
REMARK    1  A    between atoms: C_1  and  C_2
REMARK    2  A    between atoms: C_3  and  C_15
REMARK    3  A    between atoms: C_4  and  N_14
REMARK    4  A    between atoms: C_8  and  N_13
REMARK    5  A    between atoms: C_9  and  C_11
REMARK                            x       y       z     vdW  Elec       q    Type
REMARK                         _______ _______ _______ _____ _____    ______ ____
ROOT
ATOM      1  C   UNL     1      -1.387   1.418   0.517  0.00  0.00    +0.046 C 
ATOM      2  C   UNL     1      -1.243  -0.082   0.463  0.00  0.00    -0.018 A 
ATOM      3  C   UNL     1      -1.859  -0.812  -0.545  0.00  0.00    +0.095 A 
ATOM      4  C   UNL     1      -1.716  -2.215  -0.585  0.00  0.00    +0.135 A 
ATOM      5  N   UNL     1      -0.998  -2.834   0.338  0.00  0.00    -0.224 NA
ATOM      6  C   UNL     1      -0.402  -2.172   1.308  0.00  0.00    +0.114 A 
ATOM      7  C   UNL     1      -0.476  -0.764   1.435  0.00  0.00    +0.034 A 
ATOM      8  C   UNL     1       0.253  -0.208   2.565  0.00  0.00    +0.059 A 
ATOM      9  C   UNL     1       0.939  -1.071   3.390  0.00  0.00    +0.112 A 
ATOM     10  S   UNL     1       0.614  -2.671   2.677  0.00  0.00    -0.056 S 
ENDROOT
BRANCH   8  11
ATOM     11  N   UNL     1       0.257   1.161   2.806  0.00  0.00    -0.356 N 
ATOM     12  H   UNL     1       0.104   1.782   2.076  0.00  0.00    +0.142 HD
ATOM     13  H   UNL     1       0.413   1.496   3.703  0.00  0.00    +0.142 HD
ENDBRANCH   8  11
BRANCH   4  14
ATOM     14  N   UNL     1      -2.329  -2.944  -1.588  0.00  0.00    -0.342 N 
ATOM     15  H   UNL     1      -2.856  -2.490  -2.264  0.00  0.00    +0.144 HD
ATOM     16  H   UNL     1      -2.231  -3.908  -1.615  0.00  0.00    +0.144 HD
ENDBRANCH   4  14
BRANCH   9  17
ATOM     17  C   UNL     1       1.719  -0.758   4.550  0.00  0.00    +0.108 C 
ATOM     18  N   UNL     1       2.338  -0.510   5.469  0.00  0.00    -0.190 NA
ENDBRANCH   9  17
BRANCH   3  19
ATOM     19  C   UNL     1      -2.637  -0.142  -1.543  0.00  0.00    +0.103 C 
ATOM     20  N   UNL     1      -3.255   0.389  -2.335  0.00  0.00    -0.191 NA
ENDBRANCH   3  19
TORSDOF 4
