REMARK  Name = ZINC00492321
REMARK  3 active torsions:
REMARK  status: ('A' for Active; 'I' for Inactive)
REMARK    1  A    between atoms: C_4  and  C_7
REMARK    2  A    between atoms: C_9  and  C_11
REMARK    3  A    between atoms: C_9  and  C_14
REMARK                            x       y       z     vdW  Elec       q    Type
REMARK                         _______ _______ _______ _____ _____    ______ ____
ROOT
ATOM      1  C   UNL     1       3.711  -0.707  -0.038  0.00  0.00    +0.200 C 
ATOM      2  C   UNL     1       4.246  -1.179  -1.391  0.00  0.00    +0.251 C 
ATOM      3  O   UNL     1       3.700  -2.083  -0.425  0.00  0.00    -0.341 OA
ENDROOT
BRANCH   1   7
ATOM      4  C   UNL     1      -0.017   1.378   0.010  0.00  0.00    +0.000 A 
ATOM      5  C   UNL     1       1.171   2.086   0.002  0.00  0.00    +0.000 A 
ATOM      6  C   UNL     1       2.377   1.411  -0.013  0.00  0.00    +0.006 A 
ATOM      7  C   UNL     1       2.396   0.029  -0.020  0.00  0.00    -0.015 A 
ATOM      8  C   UNL     1       1.208  -0.679  -0.012  0.00  0.00    +0.006 A 
ATOM      9  C   UNL     1       0.002  -0.004   0.002  0.00  0.00    +0.000 A 
ENDBRANCH   1   7
BRANCH   2  10
ATOM     10  C   UNL     1       3.422  -0.877  -2.616  0.00  0.00    +0.255 C 
ATOM     11  O   UNL     1       2.655   0.062  -2.614  0.00  0.00    -0.272 OA
ATOM     12  N   UNL     1       3.537  -1.651  -3.713  0.00  0.00    -0.326 N 
ATOM     13  H   UNL     1       4.151  -2.402  -3.715  0.00  0.00    +0.145 HD
ATOM     14  H   UNL     1       3.007  -1.456  -4.502  0.00  0.00    +0.145 HD
ENDBRANCH   2  10
BRANCH   2  15
ATOM     15  C   UNL     1       5.739  -1.186  -1.592  0.00  0.00    +0.255 C 
ATOM     16  O   UNL     1       6.442  -0.443  -0.941  0.00  0.00    -0.272 OA
ATOM     17  N   UNL     1       6.294  -2.018  -2.496  0.00  0.00    -0.326 N 
ATOM     18  H   UNL     1       5.732  -2.613  -3.017  0.00  0.00    +0.145 HD
ATOM     19  H   UNL     1       7.255  -2.023  -2.626  0.00  0.00    +0.145 HD
ENDBRANCH   2  15
TORSDOF 3
