REMARK  Name = ZINC48439566
REMARK  11 active torsions:
REMARK  status: ('A' for Active; 'I' for Inactive)
REMARK    1  A    between atoms: C_1  and  C_2
REMARK    2  A    between atoms: C_2  and  C_4
REMARK    3  A    between atoms: C_2  and  N_8
REMARK    4  A    between atoms: N_6  and  C_7
REMARK    5  A    between atoms: N_8  and  C_9
REMARK    6  A    between atoms: C_10  and  N_22
REMARK    7  A    between atoms: N_11  and  C_18
REMARK    8  A    between atoms: N_14  and  C_17
REMARK    9  A    between atoms: C_18  and  C_19
REMARK   10  A    between atoms: C_19  and  C_20
REMARK   11  A    between atoms: C_19  and  C_21
REMARK                            x       y       z     vdW  Elec       q    Type
REMARK                         _______ _______ _______ _____ _____    ______ ____
ROOT
ATOM      1  C   UNL     1      -0.048  -0.716  -2.387  0.00  0.00    +0.132 A 
ATOM      2  C   UNL     1       0.561  -1.258  -3.486  0.00  0.00    +0.127 A 
ATOM      3  N   UNL     1      -0.177  -1.481  -4.626  0.00  0.00    -0.280 N 
ATOM      4  C   UNL     1      -1.486  -1.169  -4.661  0.00  0.00    +0.333 A 
ATOM      5  O   UNL     1      -2.123  -1.373  -5.677  0.00  0.00    -0.246 OA
ATOM      6  N   UNL     1      -2.100  -0.634  -3.590  0.00  0.00    -0.262 N 
ATOM      7  C   UNL     1      -1.418  -0.405  -2.451  0.00  0.00    +0.279 A 
ATOM      8  O   UNL     1      -1.984   0.075  -1.483  0.00  0.00    -0.265 OA
ATOM      9  C   UNL     1      -3.526  -0.305  -3.661  0.00  0.00    +0.157 C 
ENDROOT
BRANCH   2  10
ATOM     10  N   UNL     1       1.899  -1.578  -3.451  0.00  0.00    -0.343 N 
ATOM     11  H   UNL     1       2.415  -1.419  -2.646  0.00  0.00    +0.144 HD
ATOM     12  H   UNL     1       2.326  -1.962  -4.233  0.00  0.00    +0.144 HD
ENDBRANCH   2  10
BRANCH   1  13
ATOM     13  N   UNL     1       0.688  -0.476  -1.203  0.00  0.00    -0.326 N 
ATOM     14  H   UNL     1       1.647  -0.619  -1.192  0.00  0.00    +0.147 HD
BRANCH  13  16
ATOM     15  C   UNL     1      -0.158   1.507  -0.049  0.00  0.00    +0.038 C 
ATOM     16  C   UNL     1       0.001  -0.014   0.005  0.00  0.00    +0.154 C 
BRANCH  16  17
ATOM     17  C   UNL     1       0.811  -0.391   1.219  0.00  0.00    +0.233 C 
ATOM     18  O   UNL     1       1.859  -0.987   1.087  0.00  0.00    -0.274 OA
ATOM     19  N   UNL     1       0.371  -0.065   2.450  0.00  0.00    -0.317 N 
ATOM     20  C   UNL     1       1.159  -0.431   3.630  0.00  0.00    +0.128 C 
ATOM     21  H   UNL     1      -0.467   0.412   2.556  0.00  0.00    +0.148 HD
ENDBRANCH  16  17
ENDBRANCH  13  16
ENDBRANCH   1  13
BRANCH   3  22
ATOM     22  C   UNL     1       0.465  -2.061  -5.808  0.00  0.00    +0.131 C 
BRANCH  22  23
ATOM     23  C   UNL     1       0.360  -3.586  -5.748  0.00  0.00    +0.003 C 
ATOM     24  C   UNL     1      -1.109  -4.001  -5.842  0.00  0.00    +0.009 C 
ATOM     25  C   UNL     1       1.138  -4.197  -6.916  0.00  0.00    +0.009 C 
ENDBRANCH  22  23
ENDBRANCH   3  22
TORSDOF 6
