REMARK  Name = ZINC66717040
REMARK  9 active torsions:
REMARK  status: ('A' for Active; 'I' for Inactive)
REMARK    1  A    between atoms: C_1  and  C_2
REMARK    2  A    between atoms: C_5  and  C_9
REMARK    3  A    between atoms: C_6  and  C_8
REMARK    4  A    between atoms: C_9  and  C_10
REMARK    5  A    between atoms: C_10  and  C_12
REMARK    6  A    between atoms: C_10  and  N_13
REMARK    7  A    between atoms: N_16  and  N_17
REMARK    8  A    between atoms: N_17  and  C_18
REMARK    9  A    between atoms: C_18  and  C_25
REMARK                            x       y       z     vdW  Elec       q    Type
REMARK                         _______ _______ _______ _____ _____    ______ ____
ROOT
ATOM      1  N   UNL     1      -2.143  -4.420  -1.074  0.00  0.00    -0.296 N 
ATOM      2  C   UNL     1      -3.484  -4.311  -0.997  0.00  0.00    +0.314 C 
ATOM      3  O   UNL     1      -4.053  -4.532   0.055  0.00  0.00    -0.252 OA
ATOM      4  N   UNL     1      -4.196  -3.958  -2.086  0.00  0.00    -0.234 N 
ATOM      5  H   UNL     1      -1.690  -4.245  -1.914  0.00  0.00    +0.151 HD
ATOM      6  H   UNL     1      -5.161  -3.879  -2.030  0.00  0.00    +0.171 HD
ENDROOT
BRANCH   1   7
ATOM      7  C   UNL     1      -1.370  -4.804   0.109  0.00  0.00    +0.076 C 
ATOM      8  C   UNL     1      -1.341  -6.330   0.226  0.00  0.00    +0.028 C 
BRANCH   7   9
ATOM      9  C   UNL     1       0.059  -4.275  -0.021  0.00  0.00    +0.057 C 
BRANCH   9  14
ATOM     10  C   UNL     1      -0.018   1.503   0.010  0.00  0.00    +0.044 C 
ATOM     11  C   UNL     1       0.002  -0.004   0.002  0.00  0.00    -0.050 A 
ATOM     12  C   UNL     1       0.006  -0.689  -1.199  0.00  0.00    +0.003 A 
ATOM     13  C   UNL     1       0.025  -2.071  -1.207  0.00  0.00    +0.004 A 
ATOM     14  C   UNL     1       0.040  -2.768  -0.013  0.00  0.00    -0.043 A 
ATOM     15  C   UNL     1       0.037  -2.084   1.188  0.00  0.00    -0.047 A 
ATOM     16  C   UNL     1       0.023  -0.702   1.195  0.00  0.00    +0.007 A 
ATOM     17  C   UNL     1       0.054  -2.845   2.489  0.00  0.00    +0.044 C 
ENDBRANCH   9  14
ENDBRANCH   7   9
ENDBRANCH   1   7
BRANCH   4  18
ATOM     18  N   UNL     1      -3.557  -3.710  -3.268  0.00  0.00    -0.232 NA
ATOM     19  H   UNL     1      -2.853  -2.996  -3.156  0.00  0.00    +0.145 HD
BRANCH  18  20
ATOM     20  C   UNL     1      -4.517  -3.343  -4.318  0.00  0.00    +0.054 C 
ATOM     21  C   UNL     1      -5.556  -4.457  -4.442  0.00  0.00    +0.047 C 
ATOM     22  C   UNL     1      -6.120  -4.507  -5.890  0.00  0.00    +0.168 C 
ATOM     23  S   UNL     1      -4.568  -4.188  -6.837  0.00  0.00    -0.029 S 
ATOM     24  O   UNL     1      -3.828  -5.397  -6.942  0.00  0.00    -0.174 OA
ATOM     25  O   UNL     1      -4.880  -3.451  -8.011  0.00  0.00    -0.174 OA
ATOM     26  C   UNL     1      -3.743  -3.076  -5.623  0.00  0.00    +0.189 C 
ATOM     27  C   UNL     1      -5.231  -2.056  -3.899  0.00  0.00    +0.031 C 
ENDBRANCH  18  20
ENDBRANCH   4  18
TORSDOF 5
