REMARK  Name = ZINC47804461
REMARK  6 active torsions:
REMARK  status: ('A' for Active; 'I' for Inactive)
REMARK    1  A    between atoms: C_1  and  N_2
REMARK    2  A    between atoms: N_7  and  S_8
REMARK    3  A    between atoms: S_8  and  C_11
REMARK    4  A    between atoms: C_15  and  N_17
REMARK    5  A    between atoms: N_20  and  C_21
REMARK    6  A    between atoms: C_21  and  C_22
REMARK                            x       y       z     vdW  Elec       q    Type
REMARK                         _______ _______ _______ _____ _____    ______ ____
ROOT
ATOM      1  C   UNL     1       4.894  -0.408  -0.958  0.00  0.00    +0.114 A 
ATOM      2  C   UNL     1       5.282  -0.541  -2.279  0.00  0.00    +0.029 A 
ATOM      3  C   UNL     1       6.482  -0.003  -2.708  0.00  0.00    +0.004 A 
ATOM      4  C   UNL     1       7.296   0.669  -1.817  0.00  0.00    +0.023 A 
ATOM      5  C   UNL     1       6.909   0.805  -0.491  0.00  0.00    +0.037 A 
ATOM      6  C   UNL     1       5.701   0.269  -0.065  0.00  0.00    +0.052 A 
ENDROOT
BRANCH   5   7
ATOM      7  N   UNL     1       7.732   1.486   0.413  0.00  0.00    -0.269 N 
ATOM      8  C   UNL     1       7.778   1.102   1.704  0.00  0.00    +0.304 C 
ATOM      9  O   UNL     1       7.180   0.106   2.064  0.00  0.00    -0.253 OA
ATOM     10  N   UNL     1       8.486   1.822   2.597  0.00  0.00    -0.297 N 
ATOM     11  H   UNL     1       8.270   2.235   0.111  0.00  0.00    +0.156 HD
ATOM     12  H   UNL     1       8.963   2.617   2.310  0.00  0.00    +0.150 HD
BRANCH  10  13
ATOM     13  C   UNL     1       8.535   1.405   4.000  0.00  0.00    +0.137 C 
BRANCH  13  14
ATOM     14  C   UNL     1       9.399   2.386   4.794  0.00  0.00    +0.135 C 
ATOM     15  C   UNL     1       9.493   1.943   6.276  0.00  0.00    +0.035 C 
ATOM     16  C   UNL     1      10.831   2.609   6.699  0.00  0.00    +0.031 C 
ATOM     17  C   UNL     1      11.665   2.521   5.402  0.00  0.00    +0.160 C 
ATOM     18  O   UNL     1      10.751   2.367   4.308  0.00  0.00    -0.375 OA
ENDBRANCH  13  14
ENDBRANCH  10  13
ENDBRANCH   5   7
BRANCH   1  19
ATOM     19  S   UNL     1       3.365  -1.095  -0.416  0.00  0.00    +0.100 S 
ATOM     20  O   UNL     1       3.486  -1.301   0.985  0.00  0.00    -0.146 OA
ATOM     21  O   UNL     1       3.052  -2.149  -1.317  0.00  0.00    -0.146 OA
BRANCH  19  28
ATOM     22  C   UNL     1       0.060   2.155  -0.542  0.00  0.00    +0.130 C 
ATOM     23  N   UNL     1      -0.066   0.700  -0.431  0.00  0.00    -0.320 N 
ATOM     24  C   UNL     1      -1.333  -0.050  -0.446  0.00  0.00    +0.106 C 
ATOM     25  C   UNL     1      -1.057  -1.292   0.430  0.00  0.00    +0.026 C 
ATOM     26  C   UNL     1       0.468  -1.483   0.277  0.00  0.00    +0.075 C 
ATOM     27  C   UNL     1       0.977  -0.179  -0.303  0.00  0.00    +0.119 C 
ATOM     28  N   UNL     1       2.204   0.068  -0.626  0.00  0.00    -0.118 NA
ENDBRANCH  19  28
ENDBRANCH   1  19
TORSDOF 5
