REMARK  Name = ZINC48989303
REMARK  6 active torsions:
REMARK  status: ('A' for Active; 'I' for Inactive)
REMARK    1  A    between atoms: C_1  and  C_2
REMARK    2  A    between atoms: C_5  and  C_9
REMARK    3  A    between atoms: C_6  and  C_8
REMARK    4  A    between atoms: C_12  and  C_14
REMARK    5  A    between atoms: C_15  and  N_26
REMARK    6  A    between atoms: N_16  and  C_19
REMARK                            x       y       z     vdW  Elec       q    Type
REMARK                         _______ _______ _______ _____ _____    ______ ____
ROOT
ATOM      1  C   UNL     1       0.983  -6.918   2.683  0.00  0.00    +0.159 A 
ATOM      2  C   UNL     1       1.227  -8.280   2.713  0.00  0.00    +0.150 A 
ATOM      3  N   UNL     1       1.282  -8.630   4.030  0.00  0.00    -0.198 N 
ATOM      4  N   UNL     1       1.067  -7.457   4.766  0.00  0.00    -0.058 NA
ATOM      5  N   UNL     1       0.902  -6.478   3.949  0.00  0.00    -0.125 NA
ENDROOT
BRANCH   3   6
ATOM      6  C   UNL     1       1.509  -9.915   4.547  0.00  0.00    +0.069 A 
ATOM      7  C   UNL     1       1.016 -11.029   3.881  0.00  0.00    +0.031 A 
ATOM      8  C   UNL     1       1.241 -12.292   4.391  0.00  0.00    +0.040 A 
ATOM      9  C   UNL     1       1.956 -12.448   5.566  0.00  0.00    +0.124 A 
ATOM     10  C   UNL     1       2.448 -11.338   6.232  0.00  0.00    +0.040 A 
ATOM     11  C   UNL     1       2.231 -10.074   5.722  0.00  0.00    +0.031 A 
ATOM     12  F   UNL     1       2.174 -13.685   6.064  0.00  0.00    -0.205 F 
ENDBRANCH   3   6
BRANCH   1  16
ATOM     13  C   UNL     1       0.515  -4.207   0.180  0.00  0.00    +0.079 A 
ATOM     14  C   UNL     1       0.649  -4.960  -0.955  0.00  0.00    +0.075 A 
ATOM     15  S   UNL     1       0.931  -6.578  -0.249  0.00  0.00    -0.073 S 
ATOM     16  C   UNL     1       0.841  -6.091   1.469  0.00  0.00    +0.132 A 
ATOM     17  N   UNL     1       0.619  -4.790   1.362  0.00  0.00    -0.237 NA
BRANCH  13  22
ATOM     18  C   UNL     1      -0.476   1.454  -0.193  0.00  0.00    +0.044 C 
ATOM     19  C   UNL     1      -0.216  -0.028  -0.095  0.00  0.00    -0.050 A 
ATOM     20  C   UNL     1       0.783  -0.604  -0.859  0.00  0.00    +0.004 A 
ATOM     21  C   UNL     1       1.025  -1.960  -0.773  0.00  0.00    +0.010 A 
ATOM     22  C   UNL     1       0.260  -2.749   0.084  0.00  0.00    +0.004 A 
ATOM     23  C   UNL     1      -0.746  -2.163   0.851  0.00  0.00    -0.041 A 
ATOM     24  C   UNL     1      -0.975  -0.805   0.761  0.00  0.00    +0.007 A 
ATOM     25  C   UNL     1      -1.577  -3.009   1.780  0.00  0.00    +0.044 C 
ENDBRANCH  13  22
ENDBRANCH   1  16
BRANCH   2  26
ATOM     26  N   UNL     1       1.384  -9.121   1.621  0.00  0.00    -0.341 N 
ATOM     27  H   UNL     1       1.326  -8.764   0.722  0.00  0.00    +0.144 HD
ATOM     28  H   UNL     1       1.553 -10.067   1.758  0.00  0.00    +0.144 HD
ENDBRANCH   2  26
TORSDOF 4
