REMARK  Name = ZINC20465942
REMARK  12 active torsions:
REMARK  status: ('A' for Active; 'I' for Inactive)
REMARK    1  A    between atoms: C_1  and  C_2
REMARK    2  A    between atoms: C_2  and  C_3
REMARK    3  A    between atoms: C_2  and  N_4
REMARK    4  A    between atoms: N_7  and  C_8
REMARK    5  A    between atoms: C_8  and  C_9
REMARK    6  A    between atoms: C_11  and  N_21
REMARK    7  A    between atoms: C_13  and  O_20
REMARK    8  A    between atoms: C_15  and  C_18
REMARK    9  A    between atoms: C_18  and  O_19
REMARK   10  A    between atoms: N_21  and  C_22
REMARK   11  A    between atoms: N_21  and  C_23
REMARK   12  A    between atoms: C_23  and  C_24
REMARK                            x       y       z     vdW  Elec       q    Type
REMARK                         _______ _______ _______ _____ _____    ______ ____
ROOT
ATOM      1  C   UNL     1       1.264   1.406  -0.358  0.00  0.00    +0.125 C 
ATOM      2  C   UNL     1      -0.026   1.448  -1.207  0.00  0.00    -0.006 C 
ATOM      3  C   UNL     1      -1.162   1.278  -0.174  0.00  0.00    +0.134 C 
ATOM      4  C   UNL     1      -0.424   1.153   1.178  0.00  0.00    +0.171 C 
ATOM      5  O   UNL     1       0.850   1.806   0.966  0.00  0.00    -0.369 OA
ENDROOT
BRANCH   2   6
ATOM      6  N   UNL     1      -0.147   2.740  -1.897  0.00  0.00    +0.386 N 
ATOM      7  C   UNL     1      -0.188   3.848  -0.934  0.00  0.00    -0.095 C 
ATOM      8  H   UNL     1       0.745   2.871  -2.526  0.00  0.00    -0.081 HD
BRANCH   6   9
ATOM      9  C   UNL     1      -1.325   2.760  -2.774  0.00  0.00    -0.043 C 
BRANCH   9  10
ATOM     10  C   UNL     1      -1.284   3.991  -3.642  0.00  0.00    -0.064 A 
ATOM     11  C   UNL     1      -1.878   5.162  -3.211  0.00  0.00    +0.002 A 
ATOM     12  C   UNL     1      -1.836   6.292  -4.005  0.00  0.00    +0.000 A 
ATOM     13  C   UNL     1      -1.208   6.249  -5.236  0.00  0.00    +0.000 A 
ATOM     14  C   UNL     1      -0.617   5.077  -5.670  0.00  0.00    +0.000 A 
ATOM     15  C   UNL     1      -0.655   3.947  -4.873  0.00  0.00    +0.002 A 
ENDBRANCH   9  10
ENDBRANCH   6   9
ENDBRANCH   2   6
BRANCH   3  16
ATOM     16  O   UNL     1      -2.017   2.422  -0.176  0.00  0.00    -0.391 OA
ATOM     17  H   UNL     1      -2.881   2.465   0.504  0.00  0.00    +0.210 HD
ENDBRANCH   3  16
BRANCH   1  18
ATOM     18  C   UNL     1       2.298   2.388  -0.912  0.00  0.00    +0.135 C 
BRANCH  18  22
ATOM     19  N   UNL     1       5.766   2.888   0.202  0.00  0.00    -0.297 N 
ATOM     20  C   UNL     1       4.613   3.017  -0.483  0.00  0.00    +0.300 C 
ATOM     21  O   UNL     1       4.529   3.827  -1.386  0.00  0.00    -0.253 OA
ATOM     22  N   UNL     1       3.552   2.248  -0.168  0.00  0.00    -0.297 N 
ATOM     23  H   UNL     1       5.842   2.155   1.019  0.00  0.00    +0.150 HD
ATOM     24  H   UNL     1       3.628   1.515   0.649  0.00  0.00    +0.150 HD
BRANCH  19  26
ATOM     25  C   UNL     1       6.809   5.067   0.584  0.00  0.00    +0.027 C 
ATOM     26  C   UNL     1       6.919   3.724  -0.141  0.00  0.00    +0.068 C 
ATOM     27  C   UNL     1       8.207   3.018   0.287  0.00  0.00    +0.027 C 
ENDBRANCH  19  26
ENDBRANCH  18  22
ENDBRANCH   1  18
BRANCH   4  28
ATOM     28  C   UNL     1      -1.210   1.863   2.281  0.00  0.00    +0.190 C 
BRANCH  28  29
ATOM     29  O   UNL     1      -0.573   1.638   3.540  0.00  0.00    -0.392 OA
ATOM     30  H   UNL     1      -0.997   2.074   4.457  0.00  0.00    +0.210 HD
ENDBRANCH  28  29
ENDBRANCH   4  28
TORSDOF 9
