REMARK  Name = ZINC63743481
REMARK  7 active torsions:
REMARK  status: ('A' for Active; 'I' for Inactive)
REMARK    1  A    between atoms: C_1  and  C_2
REMARK    2  A    between atoms: C_7  and  S_8
REMARK    3  A    between atoms: S_8  and  N_11
REMARK    4  A    between atoms: N_11  and  C_12
REMARK    5  A    between atoms: C_16  and  C_18
REMARK    6  A    between atoms: C_18  and  C_19
REMARK    7  A    between atoms: C_19  and  C_20
REMARK                            x       y       z     vdW  Elec       q    Type
REMARK                         _______ _______ _______ _____ _____    ______ ____
ROOT
ATOM      1  C   UNL     1       1.215   2.187   2.136  0.00  0.00    +0.048 A 
ATOM      2  C   UNL     1       0.967   2.116   0.771  0.00  0.00    +0.024 A 
ATOM      3  C   UNL     1       1.006   3.263   0.003  0.00  0.00    +0.002 A 
ATOM      4  C   UNL     1       1.292   4.481   0.591  0.00  0.00    +0.004 A 
ATOM      5  C   UNL     1       1.540   4.556   1.949  0.00  0.00    -0.045 A 
ATOM      6  C   UNL     1       1.497   3.414   2.725  0.00  0.00    +0.028 A 
ENDROOT
BRANCH   1   7
ATOM      7  N   UNL     1       1.177   1.029   2.916  0.00  0.00    -0.216 N 
ATOM      8  H   UNL     1       1.882   0.853   3.558  0.00  0.00    +0.174 HD
BRANCH   7   9
ATOM      9  S   UNL     1      -0.075  -0.042   2.746  0.00  0.00    +0.073 S 
ATOM     10  O   UNL     1      -1.270   0.726   2.744  0.00  0.00    -0.150 OA
ATOM     11  O   UNL     1       0.157  -1.089   3.679  0.00  0.00    -0.150 OA
BRANCH   9  18
ATOM     12  C   UNL     1       2.239  -1.774   1.855  0.00  0.00    +0.046 C 
ATOM     13  C   UNL     1       1.164  -1.536   0.827  0.00  0.00    -0.024 A 
ATOM     14  C   UNL     1       1.272  -2.102  -0.430  0.00  0.00    +0.005 A 
ATOM     15  C   UNL     1       0.285  -1.884  -1.373  0.00  0.00    +0.000 A 
ATOM     16  C   UNL     1      -0.810  -1.100  -1.060  0.00  0.00    +0.002 A 
ATOM     17  C   UNL     1      -0.918  -0.535   0.197  0.00  0.00    +0.029 A 
ATOM     18  C   UNL     1       0.067  -0.757   1.142  0.00  0.00    +0.111 A 
ENDBRANCH   9  18
ENDBRANCH   7   9
ENDBRANCH   1   7
BRANCH   5  19
ATOM     19  C   UNL     1       1.853   5.886   2.586  0.00  0.00    +0.039 C 
BRANCH  19  20
ATOM     20  C   UNL     1       0.553   6.549   3.046  0.00  0.00    +0.051 C 
BRANCH  20  21
ATOM     21  C   UNL     1       0.870   7.899   3.692  0.00  0.00    +0.174 C 
ATOM     22  N   UNL     1       1.691   7.703   4.893  0.00  0.00    -0.363 N 
ATOM     23  C   UNL     1       1.021   8.173   5.905  0.00  0.00    +0.060 A 
ATOM     24  C   UNL     1       1.313   8.260   7.343  0.00  0.00    +0.027 A 
ATOM     25  C   UNL     1       0.407   8.813   8.173  0.00  0.00    +0.002 A 
ATOM     26  C   UNL     1      -0.826   9.318   7.722  0.00  0.00    +0.002 A 
ATOM     27  C   UNL     1      -1.193   9.287   6.426  0.00  0.00    +0.027 A 
ATOM     28  C   UNL     1      -0.283   8.708   5.428  0.00  0.00    +0.060 A 
ATOM     29  N   UNL     1      -0.369   8.547   4.139  0.00  0.00    -0.363 N 
ATOM     30  H   UNL     1       2.571   7.296   4.926  0.00  0.00    +0.162 HD
ATOM     31  H   UNL     1      -1.116   8.809   3.577  0.00  0.00    +0.162 HD
ENDBRANCH  20  21
ENDBRANCH  19  20
ENDBRANCH   5  19
TORSDOF 6
