REMARK  Name = ZINC40317425
REMARK  6 active torsions:
REMARK  status: ('A' for Active; 'I' for Inactive)
REMARK    1  A    between atoms: C_1  and  C_2
REMARK    2  A    between atoms: C_8  and  N_10
REMARK    3  A    between atoms: N_10  and  C_11
REMARK    4  A    between atoms: N_10  and  S_12
REMARK    5  A    between atoms: S_12  and  C_15
REMARK    6  A    between atoms: C_18  and  N_22
REMARK                            x       y       z     vdW  Elec       q    Type
REMARK                         _______ _______ _______ _____ _____    ______ ____
ROOT
ATOM      1  S   UNL     1       2.657   0.949   2.473  0.00  0.00    +0.064 S 
ATOM      2  O   UNL     1       3.736   1.716   1.957  0.00  0.00    -0.153 OA
ATOM      3  O   UNL     1       1.507   1.547   3.056  0.00  0.00    -0.153 OA
ENDROOT
BRANCH   1   4
ATOM      4  C   UNL     1       3.340  -0.124   3.693  0.00  0.00    +0.142 A 
ATOM      5  C   UNL     1       2.533  -0.629   4.697  0.00  0.00    +0.070 A 
ATOM      6  C   UNL     1       3.066  -1.471   5.656  0.00  0.00    +0.044 A 
ATOM      7  C   UNL     1       4.412  -1.809   5.610  0.00  0.00    +0.027 A 
ATOM      8  C   UNL     1       5.219  -1.300   4.601  0.00  0.00    +0.044 A 
ATOM      9  C   UNL     1       4.680  -0.463   3.642  0.00  0.00    +0.070 A 
ATOM     10 CL   UNL     1       5.687   0.168   2.377  0.00  0.00    -0.081 Cl
ATOM     11 CL   UNL     1       0.850  -0.206   4.753  0.00  0.00    -0.081 Cl
BRANCH   7  12
ATOM     12  N   UNL     1       4.953  -2.659   6.578  0.00  0.00    -0.358 N 
ATOM     13  H   UNL     1       4.388  -3.013   7.282  0.00  0.00    +0.142 HD
ATOM     14  H   UNL     1       5.893  -2.894   6.545  0.00  0.00    +0.142 HD
ENDBRANCH   7  12
ENDBRANCH   1   4
BRANCH   1  15
ATOM     15  N   UNL     1       2.116  -0.004   1.231  0.00  0.00    -0.176 NA
ATOM     16  C   UNL     1       3.013  -0.340   0.122  0.00  0.00    +0.132 C 
BRANCH  15  23
ATOM     17  C   UNL     1      -0.019   1.526   0.010  0.00  0.00    +0.009 C 
ATOM     18  C   UNL     1       0.002  -0.004   0.002  0.00  0.00    +0.005 C 
ATOM     19  C   UNL     1      -1.433  -0.534   0.013  0.00  0.00    +0.005 C 
ATOM     20  C   UNL     1      -1.413  -2.063   0.004  0.00  0.00    +0.000 C 
ATOM     21  C   UNL     1      -0.673  -2.570   1.244  0.00  0.00    +0.002 C 
ATOM     22  C   UNL     1       0.763  -2.041   1.233  0.00  0.00    +0.021 C 
ATOM     23  C   UNL     1       0.742  -0.511   1.242  0.00  0.00    +0.082 C 
ENDBRANCH  15  23
ENDBRANCH   1  15
TORSDOF 4
