REMARK  Name = ZINC49590874
REMARK  7 active torsions:
REMARK  status: ('A' for Active; 'I' for Inactive)
REMARK    1  A    between atoms: C_4  and  C_11
REMARK    2  A    between atoms: C_6  and  C_7
REMARK    3  A    between atoms: C_8  and  C_9
REMARK    4  A    between atoms: C_9  and  O_10
REMARK    5  A    between atoms: C_11  and  N_12
REMARK    6  A    between atoms: N_12  and  S_13
REMARK    7  A    between atoms: S_13  and  C_16
REMARK                            x       y       z     vdW  Elec       q    Type
REMARK                         _______ _______ _______ _____ _____    ______ ____
ROOT
ATOM      1  C   UNL     1      -0.017   1.391   0.010  0.00  0.00    +0.019 A 
ATOM      2  C   UNL     1       1.170   2.095   0.002  0.00  0.00    +0.040 A 
ATOM      3  C   UNL     1       2.379   1.418  -0.013  0.00  0.00    +0.128 A 
ATOM      4  C   UNL     1       2.403   0.033  -0.021  0.00  0.00    +0.004 A 
ATOM      5  C   UNL     1       1.223  -0.680  -0.014  0.00  0.00    +0.024 A 
ATOM      6  C   UNL     1       0.002  -0.004   0.002  0.00  0.00    +0.025 A 
ATOM      7  F   UNL     1       3.538   2.112  -0.022  0.00  0.00    -0.205 F 
ENDROOT
BRANCH   6   8
ATOM      8  C   UNL     1      -1.227  -0.739   0.010  0.00  0.00    -0.064 C 
ATOM      9  C   UNL     1      -2.234  -1.342   0.017  0.00  0.00    -0.069 C 
BRANCH   9  10
ATOM     10  C   UNL     1      -3.497  -2.098   0.025  0.00  0.00    +0.244 C 
BRANCH  10  11
ATOM     11  O   UNL     1      -3.214  -3.499   0.015  0.00  0.00    -0.383 OA
ATOM     12  H   UNL     1      -4.002  -4.059   0.020  0.00  0.00    +0.211 HD
ENDBRANCH  10  11
ENDBRANCH   9  10
ENDBRANCH   6   8
BRANCH   4  13
ATOM     13  C   UNL     1       3.722  -0.697  -0.038  0.00  0.00    +0.143 C 
BRANCH  13  14
ATOM     14  N   UNL     1       4.309  -0.613  -1.378  0.00  0.00    -0.185 NA
ATOM     15  H   UNL     1       3.763  -0.336  -2.130  0.00  0.00    +0.148 HD
BRANCH  14  16
ATOM     16  S   UNL     1       5.905  -0.991  -1.608  0.00  0.00    +0.062 S 
ATOM     17  O   UNL     1       6.162  -0.840  -2.997  0.00  0.00    -0.153 OA
ATOM     18  O   UNL     1       6.637  -0.283  -0.616  0.00  0.00    -0.153 OA
BRANCH  16  19
ATOM     19  C   UNL     1       6.092  -2.705  -1.244  0.00  0.00    +0.142 A 
ATOM     20  C   UNL     1       6.380  -3.235  -0.033  0.00  0.00    +0.133 A 
ATOM     21  N   UNL     1       6.437  -4.576  -0.174  0.00  0.00    -0.283 N 
ATOM     22  H   UNL     1       6.625  -5.216   0.530  0.00  0.00    +0.188 HD
ATOM     23  N   UNL     1       6.176  -4.880  -1.516  0.00  0.00    -0.180 NA
ATOM     24  C   UNL     1       5.963  -3.758  -2.155  0.00  0.00    +0.162 A 
ENDBRANCH  16  19
ENDBRANCH  14  16
ENDBRANCH  13  14
ENDBRANCH   4  13
TORSDOF 7
