REMARK  Name = ZINC39665357
REMARK  9 active torsions:
REMARK  status: ('A' for Active; 'I' for Inactive)
REMARK    1  A    between atoms: C_1  and  C_2
REMARK    2  A    between atoms: C_4  and  C_11
REMARK    3  A    between atoms: C_5  and  C_7
REMARK    4  A    between atoms: C_15  and  C_24
REMARK    5  A    between atoms: N_26  and  C_27
REMARK    6  A    between atoms: C_27  and  C_28
REMARK    7  A    between atoms: C_28  and  C_30
REMARK    8  A    between atoms: C_28  and  O_31
REMARK    9  A    between atoms: O_31  and  C_32
REMARK                            x       y       z     vdW  Elec       q    Type
REMARK                         _______ _______ _______ _____ _____    ______ ____
ROOT
ATOM      1  C   UNL     1      -0.345  -1.571  -0.510  0.00  0.00    +0.250 C 
ATOM      2  O   UNL     1       0.304  -2.572  -0.272  0.00  0.00    -0.270 OA
ATOM      3  N   UNL     1      -1.667  -1.548  -0.247  0.00  0.00    -0.296 N 
ATOM      4  C   UNL     1      -2.642  -0.486  -0.592  0.00  0.00    +0.121 C 
ATOM      5  C   UNL     1      -3.917  -1.250  -1.017  0.00  0.00    +0.100 C 
ATOM      6  C   UNL     1      -3.801  -2.620  -0.329  0.00  0.00    -0.004 C 
ATOM      7  C   UNL     1      -2.475  -2.580   0.445  0.00  0.00    +0.115 C 
ATOM      8  C   UNL     1      -4.968  -2.829   0.632  0.00  0.00    -0.010 C 
ATOM      9  C   UNL     1      -4.863  -4.221   1.260  0.00  0.00    -0.082 C 
ATOM     10  N   UNL     1      -4.884  -5.240   0.204  0.00  0.00    +0.379 N 
ATOM     11  C   UNL     1      -3.707  -5.089  -0.661  0.00  0.00    -0.082 C 
ATOM     12  C   UNL     1      -3.764  -3.734  -1.371  0.00  0.00    -0.010 C 
ATOM     13  H   UNL     1      -4.876  -6.158   0.623  0.00  0.00    -0.086 HD
ATOM     14  H   UNL     1      -5.721  -5.133  -0.348  0.00  0.00    -0.086 HD
ENDROOT
BRANCH   1  18
ATOM     15  C   UNL     1       0.551   3.139  -2.252  0.00  0.00    +0.086 C 
ATOM     16  C   UNL     1       0.689   1.694  -1.848  0.00  0.00    +0.103 A 
ATOM     17  C   UNL     1      -0.281   0.941  -1.308  0.00  0.00    +0.058 A 
ATOM     18  C   UNL     1       0.313  -0.385  -1.085  0.00  0.00    +0.087 A 
ATOM     19  C   UNL     1       1.602  -0.288  -1.523  0.00  0.00    +0.220 A 
ATOM     20  O   UNL     1       1.801   0.953  -1.976  0.00  0.00    -0.455 OA
BRANCH  19  21
ATOM     21  C   UNL     1       2.624  -1.395  -1.504  0.00  0.00    +0.451 C 
ATOM     22  F   UNL     1       2.559  -2.111  -2.705  0.00  0.00    -0.163 F 
ATOM     23  F   UNL     1       3.903  -0.846  -1.358  0.00  0.00    -0.163 F 
ATOM     24  F   UNL     1       2.361  -2.256  -0.433  0.00  0.00    -0.163 F 
ENDBRANCH  19  21
ENDBRANCH   1  18
BRANCH   5  25
ATOM     25  C   UNL     1      -3.954  -1.414  -2.515  0.00  0.00    +0.218 C 
ATOM     26  O   UNL     1      -2.920  -1.452  -3.147  0.00  0.00    -0.275 OA
ATOM     27  N   UNL     1      -5.138  -1.518  -3.151  0.00  0.00    -0.312 N 
ATOM     28  H   UNL     1      -5.965  -1.412  -2.657  0.00  0.00    +0.149 HD
BRANCH  27  29
ATOM     29  C   UNL     1      -5.173  -1.793  -4.590  0.00  0.00    +0.148 C 
BRANCH  29  30
ATOM     30  C   UNL     1      -6.621  -1.741  -5.083  0.00  0.00    +0.187 C 
ATOM     31  C   UNL     1      -6.671  -2.139  -6.560  0.00  0.00    +0.053 C 
BRANCH  30  32
ATOM     32  O   UNL     1      -7.129  -0.414  -4.929  0.00  0.00    -0.488 OA
BRANCH  32  33
ATOM     33  C   UNL     1      -8.476  -0.279  -4.813  0.00  0.00    +0.121 A 
ATOM     34  C   UNL     1      -9.300  -1.387  -4.953  0.00  0.00    +0.045 A 
ATOM     35  C   UNL     1     -10.669  -1.247  -4.834  0.00  0.00    +0.004 A 
ATOM     36  C   UNL     1     -11.219  -0.005  -4.577  0.00  0.00    +0.000 A 
ATOM     37  C   UNL     1     -10.400   1.101  -4.438  0.00  0.00    +0.004 A 
ATOM     38  C   UNL     1      -9.030   0.965  -4.550  0.00  0.00    +0.045 A 
ENDBRANCH  32  33
ENDBRANCH  30  32
ENDBRANCH  29  30
ENDBRANCH  27  29
ENDBRANCH   5  25
TORSDOF 7
