REMARK  Name = ZINC11955221
REMARK  6 active torsions:
REMARK  status: ('A' for Active; 'I' for Inactive)
REMARK    1  A    between atoms: C_4  and  N_14
REMARK    2  A    between atoms: C_6  and  N_7
REMARK    3  A    between atoms: C_15  and  C_17
REMARK    4  A    between atoms: C_17  and  C_18
REMARK    5  A    between atoms: C_18  and  C_19
REMARK    6  A    between atoms: C_19  and  N_39
REMARK                            x       y       z     vdW  Elec       q    Type
REMARK                         _______ _______ _______ _____ _____    ______ ____
ROOT
ATOM      1  C   UNL     1       0.961  -4.819  -1.060  0.00  0.00    +0.026 A 
ATOM      2  C   UNL     1       1.529  -4.063  -2.068  0.00  0.00    +0.024 A 
ATOM      3  C   UNL     1       1.406  -2.687  -2.056  0.00  0.00    +0.062 A 
ATOM      4  C   UNL     1       0.710  -2.059  -1.030  0.00  0.00    +0.054 A 
ATOM      5  C   UNL     1       0.143  -2.815  -0.014  0.00  0.00    +0.049 A 
ATOM      6  C   UNL     1       0.264  -4.197  -0.032  0.00  0.00    +0.053 A 
ATOM      7 CL   UNL     1       2.121  -1.741  -3.324  0.00  0.00    -0.082 Cl
ENDROOT
BRANCH   6   8
ATOM      8  N   UNL     1      -0.310  -4.963   0.987  0.00  0.00    -0.207 N 
ATOM      9  C   UNL     1      -1.455  -4.593   1.838  0.00  0.00    +0.133 C 
ATOM     10  C   UNL     1      -2.229  -5.850   2.286  0.00  0.00    +0.045 C 
ATOM     11  C   UNL     1      -1.131  -6.855   2.747  0.00  0.00    +0.190 C 
ATOM     12  S   UNL     1       0.167  -6.487   1.496  0.00  0.00    +0.046 S 
ATOM     13  O   UNL     1       0.025  -7.328   0.360  0.00  0.00    -0.155 OA
ATOM     14  O   UNL     1       1.430  -6.300   2.122  0.00  0.00    -0.155 OA
ENDBRANCH   6   8
BRANCH   4  15
ATOM     15  N   UNL     1       0.585  -0.664  -1.018  0.00  0.00    -0.284 N 
ATOM     16  C   UNL     1       0.587   0.003   0.153  0.00  0.00    +0.217 C 
ATOM     17  O   UNL     1       0.614  -0.610   1.200  0.00  0.00    -0.275 OA
ATOM     18  H   UNL     1       0.498  -0.178  -1.853  0.00  0.00    +0.155 HD
BRANCH  16  19
ATOM     19  C   UNL     1       0.555   1.509   0.162  0.00  0.00    +0.094 C 
BRANCH  19  20
ATOM     20  C   UNL     1       0.563   2.011   1.607  0.00  0.00    -0.010 C 
BRANCH  20  21
ATOM     21  C   UNL     1       0.531   3.541   1.617  0.00  0.00    -0.086 C 
BRANCH  21  24
ATOM     22  H   UNL     1       1.335   3.660   3.508  0.00  0.00    -0.090 HD
ATOM     23  H   UNL     1       0.518   5.030   3.037  0.00  0.00    -0.090 HD
ATOM     24  N   UNL     1       0.517   4.012   3.013  0.00  0.00    +0.378 N 
ATOM     25  H   UNL     1      -0.330   3.666   3.478  0.00  0.00    -0.090 HD
ENDBRANCH  21  24
ENDBRANCH  20  21
ENDBRANCH  19  20
ENDBRANCH  16  19
ENDBRANCH   4  15
TORSDOF 6
