REMARK  Name = ZINC59384808
REMARK  8 active torsions:
REMARK  status: ('A' for Active; 'I' for Inactive)
REMARK    1  A    between atoms: C_1  and  C_2
REMARK    2  A    between atoms: C_3  and  C_17
REMARK    3  A    between atoms: C_4  and  C_10
REMARK    4  A    between atoms: N_19  and  N_20
REMARK    5  A    between atoms: C_21  and  C_22
REMARK    6  A    between atoms: C_25  and  N_28
REMARK    7  A    between atoms: N_28  and  C_29
REMARK    8  A    between atoms: N_28  and  C_30
REMARK                            x       y       z     vdW  Elec       q    Type
REMARK                         _______ _______ _______ _____ _____    ______ ____
ROOT
ATOM      1  C   UNL     1      -0.823  -1.304  -2.648  0.00  0.00    +0.061 C 
ATOM      2  C   UNL     1      -0.319  -1.333  -1.228  0.00  0.00    +0.017 C 
ATOM      3  C   UNL     1      -1.079  -0.810  -0.243  0.00  0.00    +0.057 C 
ATOM      4  C   UNL     1      -0.534  -0.859   1.170  0.00  0.00    +0.139 C 
ATOM      5  N   UNL     1       0.789  -1.479   1.354  0.00  0.00    -0.315 N 
ATOM      6  C   UNL     1       1.429  -1.959   0.269  0.00  0.00    +0.135 C 
ATOM      7  S   UNL     1       2.968  -2.682   0.468  0.00  0.00    -0.019 S 
ATOM      8  N   UNL     1       0.898  -1.893  -0.959  0.00  0.00    -0.300 N 
ATOM      9  H   UNL     1       1.191  -1.540   2.234  0.00  0.00    +0.149 HD
ATOM     10  H   UNL     1       1.407  -2.261  -1.698  0.00  0.00    +0.154 HD
ENDROOT
BRANCH   4  11
ATOM     11  C   UNL     1      -1.522  -1.614   2.022  0.00  0.00    -0.023 A 
ATOM     12  C   UNL     1      -1.624  -2.988   1.909  0.00  0.00    +0.007 A 
ATOM     13  C   UNL     1      -2.530  -3.680   2.691  0.00  0.00    +0.020 A 
ATOM     14  C   UNL     1      -3.334  -2.998   3.586  0.00  0.00    +0.041 A 
ATOM     15  C   UNL     1      -3.231  -1.623   3.699  0.00  0.00    +0.020 A 
ATOM     16  C   UNL     1      -2.321  -0.932   2.921  0.00  0.00    +0.007 A 
ATOM     17 CL   UNL     1      -4.472  -3.866   4.568  0.00  0.00    -0.084 Cl
ENDBRANCH   4  11
BRANCH   3  18
ATOM     18  C   UNL     1      -2.342  -0.233  -0.521  0.00  0.00    +0.263 C 
ATOM     19  O   UNL     1      -2.465   0.978  -0.551  0.00  0.00    -0.269 OA
ATOM     20  N   UNL     1      -3.408  -1.025  -0.752  0.00  0.00    -0.203 N 
ATOM     21  H   UNL     1      -3.328  -1.987  -0.655  0.00  0.00    +0.178 HD
BRANCH  20  22
ATOM     22  N   UNL     1      -4.632  -0.459  -1.131  0.00  0.00    -0.187 NA
ATOM     23  C   UNL     1      -5.659  -1.222  -1.353  0.00  0.00    +0.138 C 
BRANCH  23  24
ATOM     24  C   UNL     1      -6.947  -0.626  -1.753  0.00  0.00    -0.005 A 
ATOM     25  C   UNL     1      -7.063   0.759  -1.898  0.00  0.00    +0.011 A 
ATOM     26  C   UNL     1      -8.268   1.312  -2.272  0.00  0.00    +0.024 A 
ATOM     27  C   UNL     1      -9.368   0.493  -2.504  0.00  0.00    +0.029 A 
ATOM     28  C   UNL     1      -9.256  -0.885  -2.360  0.00  0.00    +0.024 A 
ATOM     29  C   UNL     1      -8.053  -1.446  -1.992  0.00  0.00    +0.011 A 
BRANCH  27  30
ATOM     30  N   UNL     1     -10.587   1.057  -2.881  0.00  0.00    -0.336 N 
ATOM     31  C   UNL     1     -10.707   2.509  -3.033  0.00  0.00    +0.129 C 
ATOM     32  C   UNL     1     -11.747   0.197  -3.126  0.00  0.00    +0.129 C 
ENDBRANCH  27  30
ENDBRANCH  23  24
ENDBRANCH  20  22
ENDBRANCH   3  18
TORSDOF 5
