REMARK  Name = ZINC46864362
REMARK  5 active torsions:
REMARK  status: ('A' for Active; 'I' for Inactive)
REMARK    1  A    between atoms: C_1  and  N_2
REMARK    2  A    between atoms: C_6  and  C_7
REMARK    3  A    between atoms: N_9  and  N_10
REMARK    4  A    between atoms: C_11  and  C_13
REMARK    5  A    between atoms: N_15  and  C_18
REMARK                            x       y       z     vdW  Elec       q    Type
REMARK                         _______ _______ _______ _____ _____    ______ ____
ROOT
ATOM      1  N   UNL     1      -0.395   1.369   4.115  0.00  0.00    -0.229 N 
ATOM      2  C   UNL     1      -0.598   2.672   4.394  0.00  0.00    +0.282 C 
ATOM      3  O   UNL     1      -0.777   3.466   3.491  0.00  0.00    -0.267 OA
ATOM      4  H   UNL     1      -0.251   0.736   4.836  0.00  0.00    +0.173 HD
ENDROOT
BRANCH   2   5
ATOM      5  C   UNL     1      -0.602   3.135   5.795  0.00  0.00    +0.169 A 
ATOM      6  C   UNL     1      -0.800   4.421   6.210  0.00  0.00    +0.149 A 
ATOM      7  N   UNL     1      -0.726   4.412   7.559  0.00  0.00    -0.219 N 
ATOM      8  N   UNL     1      -0.478   3.086   7.941  0.00  0.00    -0.060 NA
ATOM      9  N   UNL     1      -0.416   2.361   6.878  0.00  0.00    -0.124 NA
BRANCH   7  10
ATOM     10  C   UNL     1      -0.870   5.515   8.412  0.00  0.00    +0.067 A 
ATOM     11  C   UNL     1      -1.120   6.775   7.884  0.00  0.00    +0.028 A 
ATOM     12  C   UNL     1      -1.261   7.860   8.727  0.00  0.00    +0.002 A 
ATOM     13  C   UNL     1      -1.153   7.693  10.095  0.00  0.00    +0.000 A 
ATOM     14  C   UNL     1      -0.903   6.440  10.624  0.00  0.00    +0.002 A 
ATOM     15  C   UNL     1      -0.767   5.350   9.786  0.00  0.00    +0.028 A 
ENDBRANCH   7  10
ENDBRANCH   2   5
BRANCH   1  18
ATOM     16  C   UNL     1      -0.187  -0.374   2.507  0.00  0.00    +0.277 C 
ATOM     17  O   UNL     1      -0.100  -1.183   3.412  0.00  0.00    -0.267 OA
ATOM     18  N   UNL     1      -0.391   0.929   2.785  0.00  0.00    -0.229 N 
ATOM     19  H   UNL     1      -0.534   1.563   2.065  0.00  0.00    +0.173 HD
BRANCH  16  25
ATOM     20  C   UNL     1       0.068  -3.305   1.538  0.00  0.00    +0.149 C 
ATOM     21  N   UNL     1       0.042  -2.118   0.680  0.00  0.00    -0.345 N 
ATOM     22  C   UNL     1       0.119  -2.119  -0.674  0.00  0.00    +0.101 A 
ATOM     23  C   UNL     1       0.063  -0.840  -1.117  0.00  0.00    +0.036 A 
ATOM     24  C   UNL     1      -0.054  -0.004  -0.001  0.00  0.00    +0.047 A 
ATOM     25  C   UNL     1      -0.072  -0.816   1.113  0.00  0.00    +0.107 A 
ATOM     26 BR   UNL     1       0.131  -0.283  -2.922  0.00  0.00    -0.049 Br
ENDBRANCH  16  25
ENDBRANCH   1  18
TORSDOF 4
