REMARK  Name = ZINC35083023
REMARK  7 active torsions:
REMARK  status: ('A' for Active; 'I' for Inactive)
REMARK    1  A    between atoms: C_5  and  N_7
REMARK    2  A    between atoms: C_8  and  C_10
REMARK    3  A    between atoms: C_10  and  S_11
REMARK    4  A    between atoms: S_11  and  C_12
REMARK    5  A    between atoms: C_12  and  C_13
REMARK    6  A    between atoms: C_13  and  C_15
REMARK    7  A    between atoms: C_13  and  N_18
REMARK                            x       y       z     vdW  Elec       q    Type
REMARK                         _______ _______ _______ _____ _____    ______ ____
ROOT
ATOM      1  N   UNK     1       1.157  -2.094  -0.021  0.00  0.00    -0.283 N 
ATOM      2  C   UNK     1      -0.012  -2.755   0.089  0.00  0.00    +0.227 C 
ATOM      3  O   UNK     1      -1.057  -2.141   0.103  0.00  0.00    -0.275 OA
ATOM      4  H   UNK     1       1.987  -2.587  -0.113  0.00  0.00    +0.155 HD
ENDROOT
BRANCH   1   9
ATOM      5  C   UNK     1       0.157   1.379   0.648  0.00  0.00    +0.004 A 
ATOM      6  C   UNK     1       1.141   2.113   0.075  0.00  0.00    +0.031 A 
ATOM      7  C   UNK     1       2.223   1.469  -0.585  0.00  0.00    +0.102 A 
ATOM      8  C   UNK     1       2.243   0.012  -0.626  0.00  0.00    +0.121 A 
ATOM      9  C   UNK     1       1.174  -0.698  -0.002  0.00  0.00    +0.062 A 
ATOM     10  C   UNK     1       0.170  -0.013   0.611  0.00  0.00    +0.025 A 
ATOM     11  N   UNK     1       3.301  -0.481  -1.268  0.00  0.00    -0.189 NA
ATOM     12  S   UNK     1       4.151   0.798  -1.750  0.00  0.00    +0.117 S 
ATOM     13  N   UNK     1       3.269   2.025  -1.198  0.00  0.00    -0.191 NA
ENDBRANCH   1   9
BRANCH   2  14
ATOM     14  C   UNK     1      -0.020  -4.259   0.194  0.00  0.00    +0.165 C 
BRANCH  14  15
ATOM     15  S   UNK     1      -1.731  -4.846   0.328  0.00  0.00    -0.153 S 
BRANCH  15  16
ATOM     16  C   UNK     1      -1.567  -6.649   0.445  0.00  0.00    +0.064 C 
BRANCH  16  17
ATOM     17  C   UNK     1      -2.956  -7.280   0.565  0.00  0.00    +0.050 C 
BRANCH  17  18
ATOM     18  N   UNK     1      -3.624  -6.770   1.770  0.00  0.00    +0.388 N 
ATOM     19  H   UNK     1      -3.714  -5.767   1.705  0.00  0.00    -0.089 HD
ATOM     20  H   UNK     1      -4.539  -7.186   1.849  0.00  0.00    -0.089 HD
ATOM     21  H   UNK     1      -3.076  -7.006   2.583  0.00  0.00    -0.089 HD
ENDBRANCH  17  18
BRANCH  17  22
ATOM     22  C   UNK     1      -2.821  -8.778   0.661  0.00  0.00    +0.343 C 
ATOM     23  O   UNK     1      -2.708  -9.311   1.752  0.00  0.00    -0.248 OA
ATOM     24  O   UNK     1      -2.823  -9.457  -0.351  0.00  0.00    -0.248 OA
ENDBRANCH  17  22
ENDBRANCH  16  17
ENDBRANCH  15  16
ENDBRANCH  14  15
ENDBRANCH   2  14
TORSDOF 7
