REMARK  Name = ZINC61821569
REMARK  3 active torsions:
REMARK  status: ('A' for Active; 'I' for Inactive)
REMARK    1  A    between atoms: C_3  and  N_10
REMARK    2  A    between atoms: C_6  and  C_7
REMARK    3  A    between atoms: C_7  and  N_9
REMARK                            x       y       z     vdW  Elec       q    Type
REMARK                         _______ _______ _______ _____ _____    ______ ____
ROOT
ATOM      1  C   UNL     1      -0.009   1.381  -0.220  0.00  0.00    +0.015 A 
ATOM      2  C   UNL     1       1.186   2.050  -0.228  0.00  0.00    +0.044 A 
ATOM      3  C   UNL     1       2.367   1.344  -0.013  0.00  0.00    +0.121 A 
ATOM      4  N   UNL     1       2.350   0.035   0.199  0.00  0.00    -0.240 NA
ATOM      5  C   UNL     1       1.224  -0.647   0.215  0.00  0.00    +0.123 A 
ATOM      6  C   UNL     1       0.002  -0.004   0.007  0.00  0.00    +0.021 A 
ENDROOT
BRANCH   3   7
ATOM      7  N   UNL     1       3.577   2.018  -0.022  0.00  0.00    -0.315 N 
ATOM      8  C   UNL     1       4.847   1.278  -0.044  0.00  0.00    +0.107 C 
ATOM      9  C   UNL     1       5.720   1.762   1.118  0.00  0.00    +0.026 C 
ATOM     10  C   UNL     1       5.877   3.282   1.035  0.00  0.00    -0.026 C 
ATOM     11  C   UNL     1       6.774   3.764   2.177  0.00  0.00    +0.007 C 
ATOM     12  C   UNL     1       8.149   3.102   2.059  0.00  0.00    +0.001 C 
ATOM     13  C   UNL     1       8.783   3.478   0.719  0.00  0.00    +0.000 C 
ATOM     14  C   UNL     1       7.886   2.995  -0.423  0.00  0.00    +0.001 C 
ATOM     15  C   UNL     1       6.511   3.657  -0.305  0.00  0.00    +0.007 C 
ATOM     16  C   UNL     1       4.503   3.946   1.153  0.00  0.00    +0.026 C 
ATOM     17  C   UNL     1       3.616   3.487  -0.015  0.00  0.00    +0.107 C 
ENDBRANCH   3   7
BRANCH   6  18
ATOM     18  C   UNL     1      -1.258  -0.768   0.026  0.00  0.00    +0.078 C 
ATOM     19  S   UNL     1      -2.542  -0.328  -1.018  0.00  0.00    -0.035 S 
BRANCH  18  20
ATOM     20  N   UNL     1      -1.400  -1.813   0.865  0.00  0.00    -0.352 N 
ATOM     21  H   UNL     1      -0.673  -2.062   1.456  0.00  0.00    +0.143 HD
ATOM     22  H   UNL     1      -2.229  -2.316   0.877  0.00  0.00    +0.143 HD
ENDBRANCH  18  20
ENDBRANCH   6  18
TORSDOF 3
