REMARK  Name = ZINC37457096
REMARK  6 active torsions:
REMARK  status: ('A' for Active; 'I' for Inactive)
REMARK    1  A    between atoms: C_1  and  C_2
REMARK    2  A    between atoms: C_2  and  C_3
REMARK    3  A    between atoms: C_6  and  C_9
REMARK    4  A    between atoms: C_6  and  N_12
REMARK    5  A    between atoms: C_13  and  C_15
REMARK    6  A    between atoms: N_20  and  C_22
REMARK                            x       y       z     vdW  Elec       q    Type
REMARK                         _______ _______ _______ _____ _____    ______ ____
ROOT
ATOM      1  C   UNL     1      -1.433  -0.534   0.013  0.00  0.00    -0.011 C 
ATOM      2  C   UNL     1      -2.110  -0.145   1.329  0.00  0.00    +0.006 C 
ATOM      3  C   UNL     1      -3.546  -0.675   1.340  0.00  0.00    +0.037 C 
ATOM      4  C   UNL     1      -3.528  -2.199   1.206  0.00  0.00    +0.136 C 
ATOM      5  C   UNL     1      -2.851  -2.587  -0.110  0.00  0.00    +0.037 C 
ATOM      6  C   UNL     1      -1.416  -2.058  -0.121  0.00  0.00    +0.006 C 
ENDROOT
BRANCH   4   7
ATOM      7  N   UNL     1      -2.785  -2.779   2.327  0.00  0.00    -0.299 N 
ATOM      8  C   UNL     1      -2.638  -4.116   2.418  0.00  0.00    +0.219 C 
ATOM      9  O   UNL     1      -3.121  -4.838   1.572  0.00  0.00    -0.275 OA
ATOM     10  H   UNL     1      -2.398  -2.201   3.003  0.00  0.00    +0.150 HD
BRANCH   8  11
ATOM     11  C   UNL     1      -1.874  -4.713   3.572  0.00  0.00    +0.101 C 
ATOM     12  C   UNL     1      -0.387  -4.288   3.529  0.00  0.00    +0.110 C 
ATOM     13  C   UNL     1       0.362  -5.516   3.998  0.00  0.00    +0.216 C 
ATOM     14  O   UNL     1       1.515  -5.524   4.375  0.00  0.00    -0.276 OA
ATOM     15  N   UNL     1      -0.435  -6.596   3.937  0.00  0.00    -0.304 N 
ATOM     16  C   UNL     1      -1.768  -6.247   3.430  0.00  0.00    +0.120 C 
ATOM     17  C   UNL     1      -0.027  -7.948   4.327  0.00  0.00    +0.132 C 
ENDBRANCH   8  11
ENDBRANCH   4   7
BRANCH   4  18
ATOM     18  C   UNL     1      -4.942  -2.720   1.216  0.00  0.00    +0.379 C 
ATOM     19  O   UNL     1      -5.732  -2.359   0.361  0.00  0.00    -0.244 OA
ATOM     20  O   UNL     1      -5.296  -3.504   2.080  0.00  0.00    -0.244 OA
ENDBRANCH   4  18
BRANCH   1  22
ATOM     21  C   UNL     1      -0.019   1.526   0.010  0.00  0.00    +0.004 C 
ATOM     22  C   UNL     1       0.002  -0.004   0.002  0.00  0.00    -0.000 C 
ENDBRANCH   1  22
TORSDOF 4
