REMARK  Name = ZINC37959021
REMARK  2 active torsions:
REMARK  status: ('A' for Active; 'I' for Inactive)
REMARK    1  A    between atoms: C_11  and  C_12
REMARK    2  A    between atoms: C_11  and  N_15
REMARK                            x       y       z     vdW  Elec       q    Type
REMARK                         _______ _______ _______ _____ _____    ______ ____
ROOT
ATOM      1  C   UNL     1       0.604   2.240  -0.062  0.00  0.00    +0.000 A 
ATOM      2  C   UNL     1       1.930   2.621  -0.152  0.00  0.00    +0.000 A 
ATOM      3  C   UNL     1       2.921   1.662  -0.131  0.00  0.00    +0.006 A 
ATOM      4  C   UNL     1       2.598   0.313  -0.026  0.00  0.00    -0.013 A 
ATOM      5  C   UNL     1       1.280  -0.065   0.045  0.00  0.00    -0.042 A 
ATOM      6  C   UNL     1       0.283   0.903   0.038  0.00  0.00    +0.004 A 
ATOM      7  C   UNL     1       0.848  -1.506   0.102  0.00  0.00    +0.035 C 
ATOM      8  C   UNL     1       1.602  -2.260   1.200  0.00  0.00    +0.005 C 
ATOM      9  C   UNL     1       2.829  -2.906   0.565  0.00  0.00    +0.003 C 
ATOM     10  C   UNL     1       3.351  -2.019  -0.566  0.00  0.00    +0.039 C 
ATOM     11  C   UNL     1       3.747  -0.665   0.020  0.00  0.00    +0.149 C 
ENDROOT
BRANCH  11  12
ATOM     12  N   UNL     1       4.165  -0.850   1.416  0.00  0.00    -0.286 NA
ATOM     13  C   UNL     1       5.253  -1.726   1.502  0.00  0.00    +0.084 C 
ATOM     14  C   UNL     1       5.577  -2.083   2.971  0.00  0.00    -0.004 C 
ATOM     15  C   UNL     1       6.278  -0.911   3.611  0.00  0.00    -0.081 C 
ATOM     16  N   UNL     1       5.355   0.008   4.312  0.00  0.00    +0.380 N 
ATOM     17  C   UNL     1       4.112   0.262   3.557  0.00  0.00    -0.067 C 
ATOM     18  C   UNL     1       4.372   0.453   2.084  0.00  0.00    +0.067 C 
ATOM     19  H   UNL     1       5.116  -0.392   5.207  0.00  0.00    -0.086 HD
ATOM     20  H   UNL     1       5.826   0.887   4.467  0.00  0.00    -0.086 HD
ENDBRANCH  11  12
BRANCH  11  21
ATOM     21  C   UNL     1       4.902  -0.105  -0.769  0.00  0.00    +0.380 C 
ATOM     22  O   UNL     1       5.972   0.100  -0.221  0.00  0.00    -0.244 OA
ATOM     23  O   UNL     1       4.767   0.143  -1.955  0.00  0.00    -0.244 OA
ENDBRANCH  11  21
TORSDOF 2
