REMARK  Name = ZINC52838746
REMARK  8 active torsions:
REMARK  status: ('A' for Active; 'I' for Inactive)
REMARK    1  A    between atoms: C_1  and  C_2
REMARK    2  A    between atoms: C_2  and  C_3
REMARK    3  A    between atoms: C_5  and  C_10
REMARK    4  A    between atoms: C_6  and  N_9
REMARK    5  A    between atoms: N_7  and  N_8
REMARK    6  A    between atoms: C_13  and  N_16
REMARK    7  A    between atoms: N_16  and  C_17
REMARK    8  A    between atoms: N_16  and  C_18
REMARK                            x       y       z     vdW  Elec       q    Type
REMARK                         _______ _______ _______ _____ _____    ______ ____
ROOT
ATOM      1  C   UNL     1      -1.412  -0.526   0.013  0.00  0.00    +0.106 A 
ATOM      2  N   UNL     1      -2.161  -0.700  -1.038  0.00  0.00    -0.340 N 
ATOM      3  C   UNL     1      -3.364  -1.181  -0.655  0.00  0.00    +0.088 A 
ATOM      4  C   UNL     1      -3.348  -1.306   0.706  0.00  0.00    +0.139 A 
ATOM      5  N   UNL     1      -2.110  -0.896   1.122  0.00  0.00    -0.241 N 
ATOM      6  H   UNL     1      -1.897  -0.514  -1.953  0.00  0.00    +0.167 HD
ENDROOT
BRANCH   3   7
ATOM      7  C   UNL     1      -4.497  -1.512  -1.550  0.00  0.00    +0.002 A 
ATOM      8  C   UNL     1      -5.789  -1.101  -1.221  0.00  0.00    +0.012 A 
ATOM      9  C   UNL     1      -6.843  -1.410  -2.056  0.00  0.00    +0.024 A 
ATOM     10  C   UNL     1      -6.618  -2.130  -3.224  0.00  0.00    +0.029 A 
ATOM     11  C   UNL     1      -5.332  -2.540  -3.553  0.00  0.00    +0.024 A 
ATOM     12  C   UNL     1      -4.274  -2.229  -2.725  0.00  0.00    +0.012 A 
BRANCH  10  13
ATOM     13  N   UNL     1      -7.688  -2.441  -4.068  0.00  0.00    -0.336 N 
ATOM     14  C   UNL     1      -9.044  -2.010  -3.722  0.00  0.00    +0.129 C 
ATOM     15  C   UNL     1      -7.452  -3.200  -5.299  0.00  0.00    +0.129 C 
ENDBRANCH  10  13
ENDBRANCH   3   7
BRANCH   5  16
ATOM     16  N   UNL     1      -1.659  -0.862   2.412  0.00  0.00    -0.295 N 
ATOM     17  H   UNL     1      -1.864   0.027   2.842  0.00  0.00    +0.163 HD
ATOM     18  H   UNL     1      -2.046  -1.622   2.950  0.00  0.00    +0.163 HD
ENDBRANCH   5  16
BRANCH   4  19
ATOM     19  N   UNL     1      -4.386  -1.766   1.511  0.00  0.00    -0.342 N 
ATOM     20  H   UNL     1      -5.227  -2.037   1.110  0.00  0.00    +0.144 HD
ATOM     21  H   UNL     1      -4.269  -1.816   2.473  0.00  0.00    +0.144 HD
ENDBRANCH   4  19
BRANCH   1  23
ATOM     22  C   UNL     1      -0.019   1.526   0.010  0.00  0.00    +0.012 C 
ATOM     23  C   UNL     1       0.002  -0.004   0.002  0.00  0.00    +0.071 C 
ENDBRANCH   1  23
TORSDOF 5
