REMARK  Name = ZINC40774092
REMARK  5 active torsions:
REMARK  status: ('A' for Active; 'I' for Inactive)
REMARK    1  A    between atoms: C_1  and  C_2
REMARK    2  A    between atoms: C_7  and  C_8
REMARK    3  A    between atoms: C_8  and  N_9
REMARK    4  A    between atoms: C_10  and  C_12
REMARK    5  A    between atoms: C_12  and  C_23
REMARK                            x       y       z     vdW  Elec       q    Type
REMARK                         _______ _______ _______ _____ _____    ______ ____
ROOT
ATOM      1  C   UNL     1      -2.982   1.611   4.282  0.00  0.00    +0.170 C 
ATOM      2  C   UNL     1      -3.063   1.998   5.736  0.00  0.00    +0.242 C 
ATOM      3  O   UNL     1      -2.040   2.308   6.309  0.00  0.00    -0.273 OA
ATOM      4  N   UNL     1      -4.202   2.017   6.421  0.00  0.00    -0.283 N 
ATOM      5  C   UNL     1      -5.448   1.587   5.974  0.00  0.00    +0.047 A 
ATOM      6  C   UNL     1      -6.590   1.982   6.663  0.00  0.00    +0.024 A 
ATOM      7  C   UNL     1      -7.838   1.576   6.233  0.00  0.00    +0.002 A 
ATOM      8  C   UNL     1      -7.968   0.773   5.114  0.00  0.00    +0.001 A 
ATOM      9  C   UNL     1      -6.841   0.370   4.422  0.00  0.00    +0.016 A 
ATOM     10  C   UNL     1      -5.586   0.771   4.851  0.00  0.00    +0.031 A 
ATOM     11  S   UNL     1      -4.142   0.242   3.985  0.00  0.00    -0.098 S 
ATOM     12  C   UNL     1      -3.361   2.806   3.405  0.00  0.00    +0.043 C 
ATOM     13  H   UNL     1      -4.161   2.367   7.325  0.00  0.00    +0.155 HD
ENDROOT
BRANCH   1  15
ATOM     14  N   UNL     1      -1.338   0.477   2.823  0.00  0.00    -0.310 N 
ATOM     15  C   UNL     1      -1.579   1.167   3.955  0.00  0.00    +0.238 C 
ATOM     16  O   UNL     1      -0.668   1.431   4.710  0.00  0.00    -0.274 OA
ATOM     17  H   UNL     1      -2.067   0.266   2.219  0.00  0.00    +0.149 HD
BRANCH  14  18
ATOM     18  C   UNL     1       0.025   0.045   2.504  0.00  0.00    +0.139 C 
BRANCH  18  25
ATOM     19  C   UNL     1      -0.018   1.503   0.010  0.00  0.00    +0.044 C 
ATOM     20  C   UNL     1       0.002  -0.004   0.002  0.00  0.00    -0.046 A 
ATOM     21  C   UNL     1       0.006  -0.689  -1.199  0.00  0.00    +0.003 A 
ATOM     22  C   UNL     1       0.025  -2.071  -1.207  0.00  0.00    +0.000 A 
ATOM     23  C   UNL     1       0.040  -2.768  -0.013  0.00  0.00    +0.000 A 
ATOM     24  C   UNL     1       0.037  -2.084   1.188  0.00  0.00    +0.005 A 
ATOM     25  C   UNL     1       0.023  -0.702   1.195  0.00  0.00    -0.027 A 
ENDBRANCH  18  25
ENDBRANCH  14  18
ENDBRANCH   1  15
TORSDOF 3
