REMARK  Name = ZINC26451930
REMARK  6 active torsions:
REMARK  status: ('A' for Active; 'I' for Inactive)
REMARK    1  A    between atoms: C_1  and  C_2
REMARK    2  A    between atoms: C_6  and  N_9
REMARK    3  A    between atoms: C_7  and  C_8
REMARK    4  A    between atoms: C_13  and  C_15
REMARK    5  A    between atoms: C_15  and  N_16
REMARK    6  A    between atoms: C_21  and  C_23
REMARK                            x       y       z     vdW  Elec       q    Type
REMARK                         _______ _______ _______ _____ _____    ______ ____
ROOT
ATOM      1  N   UNL     1       0.050  -2.797   2.393  0.00  0.00    -0.269 N 
ATOM      2  C   UNL     1      -0.034  -4.143   2.385  0.00  0.00    +0.310 C 
ATOM      3  O   UNL     1      -0.031  -4.746   1.331  0.00  0.00    -0.252 OA
ATOM      4  N   UNL     1      -0.121  -4.818   3.548  0.00  0.00    -0.239 N 
ATOM      5  C   UNL     1      -0.206  -6.163   3.541  0.00  0.00    +0.234 C 
ATOM      6  O   UNL     1      -0.203  -6.766   2.489  0.00  0.00    -0.274 OA
ATOM      7  H   UNL     1       0.131  -2.321   3.234  0.00  0.00    +0.156 HD
ATOM      8  H   UNL     1      -0.123  -4.337   4.390  0.00  0.00    +0.159 HD
ENDROOT
BRANCH   1  14
ATOM      9  C   UNL     1       1.201   1.236  -0.173  0.00  0.00    +0.044 C 
ATOM     10  C   UNL     1       0.573  -0.131  -0.085  0.00  0.00    -0.046 A 
ATOM     11  C   UNL     1      -0.033  -0.686  -1.198  0.00  0.00    +0.004 A 
ATOM     12  C   UNL     1      -0.611  -1.939  -1.121  0.00  0.00    +0.002 A 
ATOM     13  C   UNL     1      -0.585  -2.642   0.068  0.00  0.00    +0.023 A 
ATOM     14  C   UNL     1       0.022  -2.088   1.187  0.00  0.00    +0.038 A 
ATOM     15  C   UNL     1       0.607  -0.831   1.105  0.00  0.00    -0.026 A 
ATOM     16  C   UNL     1       1.273  -0.229   2.315  0.00  0.00    +0.046 C 
ENDBRANCH   1  14
BRANCH   5  17
ATOM     17  C   UNL     1      -0.303  -6.919   4.841  0.00  0.00    +0.181 C 
BRANCH  17  18
ATOM     18  N   UNL     1      -0.384  -8.360   4.565  0.00  0.00    -0.287 NA
ATOM     19  C   UNL     1      -1.639  -8.696   3.878  0.00  0.00    +0.113 C 
ATOM     20  C   UNL     1      -1.654 -10.193   3.557  0.00  0.00    +0.175 C 
ATOM     21  O   UNL     1      -1.484 -10.936   4.767  0.00  0.00    -0.377 OA
ATOM     22  C   UNL     1      -0.271 -10.634   5.462  0.00  0.00    +0.178 C 
ATOM     23  C   UNL     1      -0.241  -9.142   5.802  0.00  0.00    +0.080 C 
ATOM     24  C   UNL     1       1.089  -8.797   6.474  0.00  0.00    +0.026 C 
ENDBRANCH  17  18
ENDBRANCH   5  17
TORSDOF 3
