REMARK  Name = ZINC43143577
REMARK  8 active torsions:
REMARK  status: ('A' for Active; 'I' for Inactive)
REMARK    1  A    between atoms: C_1  and  C_2
REMARK    2  A    between atoms: C_7  and  N_8
REMARK    3  A    between atoms: N_11  and  C_12
REMARK    4  A    between atoms: C_12  and  C_13
REMARK    5  A    between atoms: C_13  and  C_15
REMARK    6  A    between atoms: C_13  and  N_20
REMARK    7  A    between atoms: N_20  and  C_21
REMARK    8  A    between atoms: N_20  and  C_22
REMARK                            x       y       z     vdW  Elec       q    Type
REMARK                         _______ _______ _______ _____ _____    ______ ____
ROOT
ATOM      1  N   UNL     1       0.326   0.097   2.466  0.00  0.00    -0.269 N 
ATOM      2  C   UNL     1       0.119  -0.606   3.597  0.00  0.00    +0.304 C 
ATOM      3  O   UNL     1       0.058  -1.820   3.556  0.00  0.00    -0.253 OA
ATOM      4  N   UNL     1      -0.021   0.037   4.773  0.00  0.00    -0.300 N 
ATOM      5  H   UNL     1       0.444   1.059   2.507  0.00  0.00    +0.156 HD
ATOM      6  H   UNL     1       0.027   1.005   4.806  0.00  0.00    +0.150 HD
ENDROOT
BRANCH   1  13
ATOM      7  C   UNL     1      -0.699   1.450   0.182  0.00  0.00    +0.045 C 
ATOM      8  C   UNL     1      -0.119   0.063   0.092  0.00  0.00    -0.029 A 
ATOM      9  C   UNL     1      -0.068  -0.587  -1.126  0.00  0.00    +0.006 A 
ATOM     10  C   UNL     1       0.465  -1.860  -1.211  0.00  0.00    +0.015 A 
ATOM     11  C   UNL     1       0.949  -2.487  -0.076  0.00  0.00    +0.020 A 
ATOM     12  C   UNL     1       0.901  -1.842   1.145  0.00  0.00    +0.039 A 
ATOM     13  C   UNL     1       0.371  -0.561   1.231  0.00  0.00    +0.039 A 
ATOM     14 BR   UNL     1       1.676  -4.229  -0.197  0.00  0.00    -0.050 Br
ENDBRANCH   1  13
BRANCH   4  15
ATOM     15  C   UNL     1      -0.246  -0.727   6.003  0.00  0.00    +0.095 C 
BRANCH  15  16
ATOM     16  C   UNL     1      -0.491   0.238   7.165  0.00  0.00    -0.014 C 
BRANCH  16  17
ATOM     17  C   UNL     1       0.744   1.070   7.396  0.00  0.00    -0.022 A 
ATOM     18  C   UNL     1       1.002   2.341   7.004  0.00  0.00    +0.009 A 
ATOM     19  C   UNL     1       2.218   2.910   7.333  0.00  0.00    +0.008 A 
ATOM     20  C   UNL     1       3.116   2.180   8.039  0.00  0.00    +0.045 A 
ATOM     21  S   UNL     1       2.242   0.639   8.265  0.00  0.00    -0.103 S 
ENDBRANCH  16  17
BRANCH  16  22
ATOM     22  N   UNL     1      -0.801  -0.528   8.380  0.00  0.00    +0.382 N 
ATOM     23  C   UNL     1      -1.129   0.399   9.472  0.00  0.00    -0.096 C 
ATOM     24  C   UNL     1      -1.948  -1.409   8.124  0.00  0.00    -0.096 C 
ATOM     25  H   UNL     1      -0.001  -1.084   8.640  0.00  0.00    -0.082 HD
ENDBRANCH  16  22
ENDBRANCH  15  16
ENDBRANCH   4  15
TORSDOF 5
