REMARK  Name = ZINC67472575
REMARK  3 active torsions:
REMARK  status: ('A' for Active; 'I' for Inactive)
REMARK    1  A    between atoms: C_5  and  N_7
REMARK    2  A    between atoms: N_10  and  N_11
REMARK    3  A    between atoms: C_12  and  C_14
REMARK                            x       y       z     vdW  Elec       q    Type
REMARK                         _______ _______ _______ _____ _____    ______ ____
ROOT
ATOM      1  N   UNL     1       1.237  -2.080  -0.022  0.00  0.00    -0.267 N 
ATOM      2  C   UNL     1       0.086  -2.773   0.087  0.00  0.00    +0.320 C 
ATOM      3  O   UNL     1      -0.979  -2.186   0.101  0.00  0.00    -0.251 OA
ATOM      4  N   UNL     1       0.115  -4.118   0.180  0.00  0.00    -0.218 N 
ATOM      5  H   UNL     1       2.079  -2.552  -0.116  0.00  0.00    +0.156 HD
ATOM      6  H   UNL     1      -0.714  -4.616   0.259  0.00  0.00    +0.174 HD
ENDROOT
BRANCH   1  11
ATOM      7  C   UNL     1       0.154   1.371   0.643  0.00  0.00    +0.002 A 
ATOM      8  C   UNL     1       1.174   2.086   0.043  0.00  0.00    +0.002 A 
ATOM      9  C   UNL     1       2.215   1.422  -0.579  0.00  0.00    +0.022 A 
ATOM     10  C   UNL     1       2.239   0.041  -0.603  0.00  0.00    +0.062 A 
ATOM     11  C   UNL     1       1.216  -0.681   0.000  0.00  0.00    +0.053 A 
ATOM     12  C   UNL     1       0.172  -0.010   0.624  0.00  0.00    +0.025 A 
ATOM     13 CL   UNL     1       3.546  -0.793  -1.385  0.00  0.00    -0.082 Cl
ENDBRANCH   1  11
BRANCH   4  14
ATOM     14  N   UNL     1       1.341  -4.795   0.164  0.00  0.00    -0.229 N 
ATOM     15  C   UNL     1       1.370  -6.139   0.257  0.00  0.00    +0.267 C 
ATOM     16  O   UNL     1       0.331  -6.765   0.355  0.00  0.00    -0.268 OA
ATOM     17  H   UNL     1       2.169  -4.296   0.085  0.00  0.00    +0.173 HD
BRANCH  15  18
ATOM     18  C   UNL     1       2.652  -6.847   0.240  0.00  0.00    +0.076 A 
ATOM     19  C   UNL     1       2.900  -8.209   0.317  0.00  0.00    +0.022 A 
ATOM     20  C   UNL     1       4.222  -8.579   0.275  0.00  0.00    +0.024 A 
ATOM     21  C   UNL     1       5.173  -7.617   0.164  0.00  0.00    +0.056 A 
ATOM     22  S   UNL     1       4.301  -6.182   0.106  0.00  0.00    -0.077 S 
ATOM     23 BR   UNL     1       7.049  -7.841   0.085  0.00  0.00    -0.043 Br
ENDBRANCH  15  18
ENDBRANCH   4  14
TORSDOF 3
