REMARK  Name = ZINC37879362
REMARK  3 active torsions:
REMARK  status: ('A' for Active; 'I' for Inactive)
REMARK    1  A    between atoms: C_5  and  N_7
REMARK    2  A    between atoms: N_7  and  C_8
REMARK    3  A    between atoms: C_13  and  O_15
REMARK                            x       y       z     vdW  Elec       q    Type
REMARK                         _______ _______ _______ _____ _____    ______ ____
ROOT
ATOM      1  N   UNL     1       1.237  -2.078  -0.021  0.00  0.00    -0.335 N 
ATOM      2  H   UNL     1       2.085  -2.549  -0.033  0.00  0.00    +0.147 HD
ENDROOT
BRANCH   1   7
ATOM      3  C   UNL     1      -0.017   1.377   0.010  0.00  0.00    +0.002 A 
ATOM      4  C   UNL     1       1.170   2.086   0.002  0.00  0.00    +0.001 A 
ATOM      5  C   UNL     1       2.380   1.417  -0.013  0.00  0.00    +0.017 A 
ATOM      6  C   UNL     1       2.406   0.035  -0.021  0.00  0.00    +0.039 A 
ATOM      7  C   UNL     1       1.215  -0.681  -0.013  0.00  0.00    +0.042 A 
ATOM      8  C   UNL     1       0.002  -0.004   0.002  0.00  0.00    +0.024 A 
ATOM      9 BR   UNL     1       4.061  -0.880  -0.043  0.00  0.00    -0.048 Br
ENDBRANCH   1   7
BRANCH   1  10
ATOM     10  C   UNL     1      -0.019  -2.831  -0.013  0.00  0.00    +0.127 C 
ATOM     11  C   UNL     1      -0.520  -3.064  -1.456  0.00  0.00    +0.184 C 
ATOM     12  O   UNL     1      -0.016  -4.369  -1.815  0.00  0.00    -0.375 OA
ATOM     13  C   UNL     1      -0.184  -5.181  -0.633  0.00  0.00    +0.193 C 
ATOM     14  C   UNL     1       0.206  -4.254   0.544  0.00  0.00    +0.162 C 
BRANCH  14  15
ATOM     15  O   UNL     1      -0.639  -4.490   1.672  0.00  0.00    -0.388 OA
ATOM     16  H   UNL     1      -0.539  -5.369   2.062  0.00  0.00    +0.210 HD
ENDBRANCH  14  15
ENDBRANCH   1  10
TORSDOF 3
