REMARK  Name = ZINC63355132
REMARK  7 active torsions:
REMARK  status: ('A' for Active; 'I' for Inactive)
REMARK    1  A    between atoms: C_1  and  C_2
REMARK    2  A    between atoms: C_2  and  C_3
REMARK    3  A    between atoms: C_6  and  C_9
REMARK    4  A    between atoms: C_9  and  C_31
REMARK    5  A    between atoms: N_10  and  N_11
REMARK    6  A    between atoms: C_12  and  C_14
REMARK    7  A    between atoms: C_16  and  C_25
REMARK                            x       y       z     vdW  Elec       q    Type
REMARK                         _______ _______ _______ _____ _____    ______ ____
ROOT
ATOM      1  C   UNL     1       2.415  -2.860  -9.266  0.00  0.00    +0.199 C 
ATOM      2  C   UNL     1       3.356  -1.912  -9.975  0.00  0.00    -0.000 C 
ATOM      3  C   UNL     1       3.035  -2.002 -11.319  0.00  0.00    +0.005 A 
ATOM      4  C   UNL     1       3.557  -1.365 -12.471  0.00  0.00    +0.025 A 
ATOM      5  C   UNL     1       3.037  -1.651 -13.690  0.00  0.00    +0.019 A 
ATOM      6  C   UNL     1       1.990  -2.567 -13.845  0.00  0.00    +0.017 A 
ATOM      7  C   UNL     1       1.442  -3.214 -12.790  0.00  0.00    +0.027 A 
ATOM      8  C   UNL     1       1.932  -2.968 -11.479  0.00  0.00    +0.044 A 
ATOM      9  N   UNL     1       1.578  -3.458 -10.310  0.00  0.00    -0.370 N 
ATOM     10 BR   UNL     1       3.744  -0.791 -15.219  0.00  0.00    -0.050 Br
ATOM     11  H   UNL     1       0.875  -4.111 -10.163  0.00  0.00    +0.161 HD
ENDROOT
BRANCH   2  12
ATOM     12  C   UNL     1       4.390  -1.073  -9.367  0.00  0.00    -0.019 A 
ATOM     13  C   UNL     1       5.371  -1.647  -8.544  0.00  0.00    +0.008 A 
ATOM     14  C   UNL     1       6.340  -0.849  -7.977  0.00  0.00    +0.001 A 
ATOM     15  C   UNL     1       6.348   0.515  -8.216  0.00  0.00    +0.000 A 
ATOM     16  C   UNL     1       5.384   1.091  -9.026  0.00  0.00    +0.001 A 
ATOM     17  C   UNL     1       4.410   0.308  -9.607  0.00  0.00    +0.008 A 
ENDBRANCH   2  12
BRANCH   1  19
ATOM     18  N   UNL     1       1.974  -1.939  -7.013  0.00  0.00    -0.205 N 
ATOM     19  C   UNL     1       1.558  -2.103  -8.284  0.00  0.00    +0.259 C 
ATOM     20  O   UNL     1       0.493  -1.642  -8.638  0.00  0.00    -0.271 OA
ATOM     21  H   UNL     1       2.791  -2.367  -6.711  0.00  0.00    +0.177 HD
BRANCH  18  23
ATOM     22  C   UNL     1       1.629  -0.993  -4.903  0.00  0.00    +0.063 C 
ATOM     23  N   UNL     1       1.228  -1.151  -6.127  0.00  0.00    -0.184 NA
ATOM     24  C   UNL     1       2.897  -1.658  -4.434  0.00  0.00    +0.068 C 
BRANCH  22  28
ATOM     25  C   UNL     1      -0.634   1.394  -2.220  0.00  0.00    -0.048 A 
ATOM     26  C   UNL     1      -1.064   1.228  -3.525  0.00  0.00    +0.004 A 
ATOM     27  C   UNL     1      -0.334   0.454  -4.402  0.00  0.00    +0.010 A 
ATOM     28  C   UNL     1       0.843  -0.163  -3.971  0.00  0.00    -0.003 A 
ATOM     29  C   UNL     1       1.271   0.008  -2.653  0.00  0.00    +0.010 A 
ATOM     30  C   UNL     1       0.533   0.790  -1.788  0.00  0.00    +0.004 A 
BRANCH  25  32
ATOM     31  C   UNL     1      -0.958   3.692  -1.347  0.00  0.00    +0.009 C 
ATOM     32  C   UNL     1      -1.438   2.241  -1.268  0.00  0.00    +0.032 C 
ENDBRANCH  25  32
ENDBRANCH  22  28
ENDBRANCH  18  23
ENDBRANCH   1  19
TORSDOF 5
