REMARK  Name = ZINC37657621
REMARK  8 active torsions:
REMARK  status: ('A' for Active; 'I' for Inactive)
REMARK    1  A    between atoms: C_1  and  C_2
REMARK    2  A    between atoms: C_4  and  N_12
REMARK    3  A    between atoms: C_7  and  S_8
REMARK    4  A    between atoms: S_8  and  N_11
REMARK    5  A    between atoms: N_12  and  S_13
REMARK    6  A    between atoms: S_13  and  C_16
REMARK    7  A    between atoms: C_16  and  C_17
REMARK    8  A    between atoms: C_16  and  C_18
REMARK                            x       y       z     vdW  Elec       q    Type
REMARK                         _______ _______ _______ _____ _____    ______ ____
ROOT
ATOM      1  C   UNL     1      -0.124   1.204   0.559  0.00  0.00    +0.046 C 
ATOM      2  C   UNL     1      -0.016  -0.291   0.401  0.00  0.00    -0.022 A 
ATOM      3  C   UNL     1      -0.041  -0.855  -0.860  0.00  0.00    +0.029 A 
ATOM      4  C   UNL     1       0.059  -2.233  -1.004  0.00  0.00    +0.048 A 
ATOM      5  C   UNL     1       0.184  -3.039   0.121  0.00  0.00    +0.026 A 
ATOM      6  C   UNL     1       0.208  -2.468   1.378  0.00  0.00    +0.030 A 
ATOM      7  C   UNL     1       0.114  -1.095   1.518  0.00  0.00    +0.108 A 
ENDROOT
BRANCH   7   8
ATOM      8  S   UNL     1       0.152  -0.371   3.123  0.00  0.00    +0.056 S 
ATOM      9  O   UNL     1      -0.945   0.529   3.189  0.00  0.00    -0.153 OA
ATOM     10  O   UNL     1       0.319  -1.438   4.047  0.00  0.00    -0.153 OA
BRANCH   8  11
ATOM     11  N   UNL     1       1.526   0.550   3.212  0.00  0.00    -0.204 NA
ATOM     12  H   UNL     1       1.545   1.339   3.775  0.00  0.00    +0.144 HD
ATOM     13  H   UNL     1       2.311   0.300   2.701  0.00  0.00    +0.144 HD
ENDBRANCH   8  11
ENDBRANCH   7   8
BRANCH   4  14
ATOM     14  N   UNL     1       0.034  -2.807  -2.277  0.00  0.00    -0.220 N 
ATOM     15  H   UNL     1      -0.633  -2.526  -2.923  0.00  0.00    +0.173 HD
BRANCH  14  16
ATOM     16  S   UNL     1       1.143  -3.967  -2.684  0.00  0.00    +0.045 S 
ATOM     17  O   UNL     1       1.013  -4.962  -1.678  0.00  0.00    -0.155 OA
ATOM     18  O   UNL     1       0.866  -4.272  -4.045  0.00  0.00    -0.155 OA
BRANCH  16  19
ATOM     19  C   UNL     1       2.753  -3.143  -2.544  0.00  0.00    +0.145 C 
ATOM     20  C   UNL     1       3.855  -4.093  -3.015  0.00  0.00    +0.033 C 
ATOM     21  C   UNL     1       2.759  -1.884  -3.414  0.00  0.00    +0.033 C 
ENDBRANCH  16  19
ENDBRANCH  14  16
ENDBRANCH   4  14
TORSDOF 5
