REMARK  Name = ZINC26892023
REMARK  4 active torsions:
REMARK  status: ('A' for Active; 'I' for Inactive)
REMARK    1  A    between atoms: C_1  and  C_2
REMARK    2  A    between atoms: C_14  and  C_15
REMARK    3  A    between atoms: C_14  and  O_16
REMARK    4  A    between atoms: C_21  and  O_27
REMARK                            x       y       z     vdW  Elec       q    Type
REMARK                         _______ _______ _______ _____ _____    ______ ____
ROOT
ATOM      1  C   UNL     1      -0.013   1.086   0.008  0.00  0.00    +0.014 C 
ATOM      2  C   UNL     1      -0.729   1.579   1.267  0.00  0.00    -0.000 C 
ATOM      3  C   UNL     1       0.011   1.073   2.506  0.00  0.00    +0.010 C 
ATOM      4  C   UNL     1      -0.705   1.565   3.765  0.00  0.00    +0.007 C 
ATOM      5  C   UNL     1      -0.727   3.095   3.774  0.00  0.00    +0.024 C 
ATOM      6  C   UNL     1      -1.469   3.600   2.534  0.00  0.00    -0.001 C 
ATOM      7  C   UNL     1      -0.750   3.109   1.275  0.00  0.00    +0.001 C 
ATOM      8  C   UNL     1      -1.489   3.616   0.035  0.00  0.00    +0.004 C 
ATOM      9  C   UNL     1      -2.924   3.086   0.045  0.00  0.00    +0.003 C 
ATOM     10  C   UNL     1      -2.904   1.556   0.038  0.00  0.00    +0.035 C 
ATOM     11  C   UNL     1      -2.164   1.049   1.278  0.00  0.00    +0.069 C 
ATOM     12  C   UNL     1      -2.143  -0.480   1.271  0.00  0.00    +0.042 C 
ATOM     13  C   UNL     1      -1.496   5.130   2.542  0.00  0.00    +0.004 C 
ATOM     14  C   UNL     1      -2.208   5.624   3.803  0.00  0.00    +0.007 C 
ATOM     15  C   UNL     1      -1.453   5.122   5.038  0.00  0.00    +0.028 C 
ATOM     16  C   UNL     1      -1.446   3.590   5.030  0.00  0.00    +0.073 C 
ATOM     17  C   UNL     1      -0.739   3.060   6.276  0.00  0.00    +0.043 C 
ATOM     18  C   UNL     1       0.727   3.504   6.263  0.00  0.00    +0.077 C 
ATOM     19  C   UNL     1       0.770   5.009   6.114  0.00  0.00    +0.134 C 
ATOM     20  O   UNL     1       1.413   5.689   6.878  0.00  0.00    -0.297 OA
ATOM     21  C   UNL     1      -0.010   5.639   4.983  0.00  0.00    +0.080 C 
ENDROOT
BRANCH  11  22
ATOM     22  O   UNL     1      -2.833   1.511   2.453  0.00  0.00    -0.388 OA
ATOM     23  H   UNL     1      -3.881   1.230   2.636  0.00  0.00    +0.210 HD
ENDBRANCH  11  22
BRANCH  16  24
ATOM     24  O   UNL     1      -2.791   3.109   5.025  0.00  0.00    -0.388 OA
ATOM     25  H   UNL     1      -3.469   3.362   5.853  0.00  0.00    +0.210 HD
ENDBRANCH  16  24
TORSDOF 2
