REMARK  Name = ZINC64960846
REMARK  3 active torsions:
REMARK  status: ('A' for Active; 'I' for Inactive)
REMARK    1  A    between atoms: C_1  and  C_2
REMARK    2  A    between atoms: C_5  and  C_8
REMARK    3  A    between atoms: C_11  and  C_15
REMARK                            x       y       z     vdW  Elec       q    Type
REMARK                         _______ _______ _______ _____ _____    ______ ____
ROOT
ATOM      1  C   UNL     1       0.059  -4.275  -0.021  0.00  0.00    +0.180 C 
ATOM      2  N   UNL     1      -0.668  -4.815   1.159  0.00  0.00    -0.265 NA
ATOM      3  C   UNL     1      -1.085  -6.164   0.696  0.00  0.00    +0.247 C 
ATOM      4  O   UNL     1      -1.431  -5.987  -0.690  0.00  0.00    -0.274 OA
ATOM      5  N   UNL     1      -0.706  -4.800  -1.176  0.00  0.00    -0.177 NA
ATOM      6  H   UNL     1      -0.058  -4.880   1.960  0.00  0.00    +0.127 HD
ATOM      7  H   UNL     1      -0.091  -5.037  -1.940  0.00  0.00    +0.156 HD
ENDROOT
BRANCH   3   8
ATOM      8  C   UNL     1      -2.279  -6.641   1.480  0.00  0.00    +0.061 A 
ATOM      9  H   UNL     1      -4.448  -5.510   3.595  0.00  0.00    +0.165 HD
ATOM     10  C   UNL     1      -2.935  -5.789   2.295  0.00  0.00    +0.094 A 
ATOM     11  N   UNL     1      -4.014  -6.163   3.024  0.00  0.00    -0.360 N 
ATOM     12  C   UNL     1      -4.509  -7.447   2.975  0.00  0.00    +0.050 A 
ATOM     13  C   UNL     1      -5.618  -7.820   3.728  0.00  0.00    +0.026 A 
ATOM     14  C   UNL     1      -6.089  -9.113   3.656  0.00  0.00    +0.002 A 
ATOM     15  C   UNL     1      -5.468 -10.049   2.839  0.00  0.00    +0.001 A 
ATOM     16  C   UNL     1      -4.377  -9.703   2.091  0.00  0.00    +0.014 A 
ATOM     17  C   UNL     1      -3.885  -8.399   2.150  0.00  0.00    +0.045 A 
ATOM     18  C   UNL     1      -2.716  -7.981   1.357  0.00  0.00    +0.196 A 
ATOM     19  O   UNL     1      -2.140  -8.766   0.621  0.00  0.00    -0.287 OA
ENDBRANCH   3   8
BRANCH   1  24
ATOM     20  C   UNL     1      -0.018   1.503   0.010  0.00  0.00    +0.044 C 
ATOM     21  C   UNL     1       0.002  -0.004   0.002  0.00  0.00    -0.050 A 
ATOM     22  C   UNL     1       0.006  -0.689  -1.199  0.00  0.00    +0.004 A 
ATOM     23  C   UNL     1       0.025  -2.071  -1.206  0.00  0.00    +0.007 A 
ATOM     24  C   UNL     1       0.040  -2.768  -0.013  0.00  0.00    -0.014 A 
ATOM     25  C   UNL     1       0.037  -2.084   1.188  0.00  0.00    +0.007 A 
ATOM     26  C   UNL     1       0.023  -0.702   1.195  0.00  0.00    +0.004 A 
ENDBRANCH   1  24
TORSDOF 2
