REMARK  Name = ZINC19874412
REMARK  2 active torsions:
REMARK  status: ('A' for Active; 'I' for Inactive)
REMARK    1  A    between atoms: C_6  and  N_7
REMARK    2  A    between atoms: C_12  and  C_14
REMARK                            x       y       z     vdW  Elec       q    Type
REMARK                         _______ _______ _______ _____ _____    ______ ____
ROOT
ATOM      1  C   UNL     1      -1.090  -1.052  -0.019  0.00  0.00    +0.024 A 
ATOM      2  C   UNL     1       0.101  -0.360   0.075  0.00  0.00    +0.025 A 
ATOM      3  C   UNL     1       1.302  -0.994  -0.223  0.00  0.00    +0.040 A 
ATOM      4  C   UNL     1       1.309  -2.324  -0.612  0.00  0.00    -0.024 A 
ATOM      5  C   UNL     1       0.114  -3.016  -0.708  0.00  0.00    +0.028 A 
ATOM      6  C   UNL     1      -1.085  -2.384  -0.413  0.00  0.00    +0.025 A 
ATOM      7  C   UNL     1       2.593  -3.044  -0.929  0.00  0.00    +0.038 C 
ATOM      8  C   UNL     1       3.700  -2.043  -1.261  0.00  0.00    +0.024 C 
ATOM      9  C   UNL     1       3.774  -0.996  -0.147  0.00  0.00    +0.114 C 
ATOM     10  N   UNL     1       2.498  -0.268  -0.124  0.00  0.00    -0.267 N 
ATOM     11  C   UNL     1       2.478   1.076  -0.015  0.00  0.00    +0.252 C 
ATOM     12  O   UNL     1       1.416   1.664   0.051  0.00  0.00    -0.270 OA
ENDROOT
BRANCH  11  13
ATOM     13  C   UNL     1       3.746   1.833   0.023  0.00  0.00    +0.054 A 
ATOM     14  C   UNL     1       4.747   1.479   0.930  0.00  0.00    +0.052 A 
ATOM     15  C   UNL     1       5.928   2.195   0.965  0.00  0.00    +0.124 A 
ATOM     16  C   UNL     1       6.124   3.255   0.094  0.00  0.00    +0.039 A 
ATOM     17  C   UNL     1       5.137   3.610  -0.807  0.00  0.00    +0.019 A 
ATOM     18  C   UNL     1       3.950   2.906  -0.848  0.00  0.00    +0.030 A 
ATOM     19 BR   UNL     1       2.601   3.393  -2.081  0.00  0.00    -0.050 Br
ATOM     20  F   UNL     1       6.895   1.858   1.846  0.00  0.00    -0.205 F 
ENDBRANCH  11  13
BRANCH   6  21
ATOM     21  N   UNL     1      -2.290  -3.088  -0.512  0.00  0.00    -0.358 N 
ATOM     22  H   UNL     1      -2.287  -4.143  -0.824  0.00  0.00    +0.142 HD
ATOM     23  H   UNL     1      -3.241  -2.586  -0.279  0.00  0.00    +0.142 HD
ENDBRANCH   6  21
TORSDOF 2
