REMARK  Name = ZINC50657244
REMARK  8 active torsions:
REMARK  status: ('A' for Active; 'I' for Inactive)
REMARK    1  A    between atoms: C_1  and  N_2
REMARK    2  A    between atoms: N_2  and  C_3
REMARK    3  A    between atoms: C_4  and  S_12
REMARK    4  A    between atoms: S_12  and  N_15
REMARK    5  A    between atoms: N_15  and  C_16
REMARK    6  A    between atoms: C_16  and  C_17
REMARK    7  A    between atoms: C_17  and  S_18
REMARK    8  A    between atoms: S_18  and  N_21
REMARK                            x       y       z     vdW  Elec       q    Type
REMARK                         _______ _______ _______ _____ _____    ______ ____
ROOT
ATOM      1  S   UNL     1       0.057  -3.239  -0.061  0.00  0.00    +0.078 S 
ATOM      2  O   UNL     1      -0.990  -2.605   0.662  0.00  0.00    -0.151 OA
ATOM      3  O   UNL     1      -0.146  -4.430  -0.808  0.00  0.00    -0.151 OA
ENDROOT
BRANCH   1   5
ATOM      4  C   UNL     1       0.608  -0.691  -1.058  0.00  0.00    +0.165 A 
ATOM      5  C   UNL     1       0.689  -2.040  -1.187  0.00  0.00    +0.220 A 
ATOM      6  N   UNL     1       1.355  -2.293  -2.358  0.00  0.00    -0.282 N 
ATOM      7  C   UNL     1       1.714  -3.452  -2.981  0.00  0.00    +0.094 A 
ATOM      8  C   UNL     1       2.380  -3.424  -4.155  0.00  0.00    +0.018 A 
ATOM      9  C   UNL     1       2.712  -2.197  -4.752  0.00  0.00    +0.005 A 
ATOM     10  C   UNL     1       2.359  -1.034  -4.140  0.00  0.00    +0.047 A 
ATOM     11  C   UNL     1       1.664  -1.080  -2.916  0.00  0.00    +0.141 A 
ATOM     12  N   UNL     1       1.200  -0.127  -2.117  0.00  0.00    -0.211 NA
BRANCH   4  14
ATOM     13  C   UNL     1      -0.018   1.461   0.010  0.00  0.00    +0.127 C 
ATOM     14  N   UNL     1       0.002  -0.004   0.002  0.00  0.00    -0.329 N 
ATOM     15  H   UNL     1      -0.404  -0.499   0.731  0.00  0.00    +0.147 HD
ENDBRANCH   4  14
ENDBRANCH   1   5
BRANCH   1  16
ATOM     16  N   UNL     1       1.257  -3.563   1.033  0.00  0.00    -0.187 NA
ATOM     17  H   UNL     1       1.654  -4.448   1.069  0.00  0.00    +0.148 HD
BRANCH  16  18
ATOM     18  C   UNL     1       1.720  -2.515   1.946  0.00  0.00    +0.130 C 
BRANCH  18  19
ATOM     19  C   UNL     1       2.536  -3.147   3.075  0.00  0.00    +0.201 C 
BRANCH  19  20
ATOM     20  S   UNL     1       3.109  -1.849   4.206  0.00  0.00    +0.028 S 
ATOM     21  O   UNL     1       4.062  -1.019   3.555  0.00  0.00    -0.158 OA
ATOM     22  O   UNL     1       2.006  -1.280   4.897  0.00  0.00    -0.158 OA
BRANCH  20  23
ATOM     23  N   UNL     1       3.971  -2.649   5.371  0.00  0.00    -0.208 NA
ATOM     24  H   UNL     1       4.065  -3.614   5.328  0.00  0.00    +0.144 HD
ATOM     25  H   UNL     1       4.382  -2.154   6.097  0.00  0.00    +0.144 HD
ENDBRANCH  20  23
ENDBRANCH  19  20
ENDBRANCH  18  19
ENDBRANCH  16  18
ENDBRANCH   1  16
TORSDOF 7
