REMARK  Name = ZINC43284207
REMARK  8 active torsions:
REMARK  status: ('A' for Active; 'I' for Inactive)
REMARK    1  A    between atoms: C_1  and  C_2
REMARK    2  A    between atoms: C_2  and  C_3
REMARK    3  A    between atoms: C_3  and  C_5
REMARK    4  A    between atoms: C_3  and  N_22
REMARK    5  A    between atoms: C_5  and  C_7
REMARK    6  A    between atoms: C_5  and  S_13
REMARK    7  A    between atoms: S_13  and  C_14
REMARK    8  A    between atoms: C_18  and  N_20
REMARK                            x       y       z     vdW  Elec       q    Type
REMARK                         _______ _______ _______ _____ _____    ______ ____
ROOT
ATOM      1  C   UNL     1       0.550  -2.023   1.372  0.00  0.00    +0.076 C 
ENDROOT
BRANCH   1   2
ATOM      2  C   UNL     1       1.130  -2.316   2.732  0.00  0.00    +0.003 A 
ATOM      3  C   UNL     1       2.122  -3.176   3.070  0.00  0.00    +0.013 A 
ATOM      4  C   UNL     1       2.494  -3.282   4.397  0.00  0.00    +0.023 A 
ATOM      5  C   UNL     1       1.855  -2.523   5.321  0.00  0.00    +0.055 A 
ATOM      6  S   UNL     1       0.694  -1.615   4.315  0.00  0.00    -0.085 S 
ATOM      7 BR   UNL     1       2.129  -2.441   7.191  0.00  0.00    -0.043 Br
ENDBRANCH   1   2
BRANCH   1   8
ATOM      8  C   UNL     1       0.749  -0.543   1.041  0.00  0.00    -0.057 C 
BRANCH   8   9
ATOM      9  N   UNL     1       2.178  -0.212   1.114  0.00  0.00    +0.381 N 
ATOM     10  H   UNL     1       2.309   0.765   0.896  0.00  0.00    -0.090 HD
ATOM     11  H   UNL     1       2.519  -0.397   2.046  0.00  0.00    -0.090 HD
ATOM     12  H   UNL     1       2.688  -0.776   0.451  0.00  0.00    -0.090 HD
ENDBRANCH   8   9
BRANCH   8  14
ATOM     13  C   UNL     1       0.305   1.240  -0.652  0.00  0.00    +0.002 C 
ATOM     14  C   UNL     1       0.232  -0.262  -0.371  0.00  0.00    -0.018 C 
ENDBRANCH   8  14
ENDBRANCH   1   8
BRANCH   1  15
ATOM     15  S   UNL     1      -1.222  -2.410   1.374  0.00  0.00    -0.079 S 
BRANCH  15  16
ATOM     16  C   UNL     1      -1.275  -4.165   1.522  0.00  0.00    +0.192 A 
ATOM     17  N   UNL     1      -0.140  -4.849   1.500  0.00  0.00    -0.207 NA
ATOM     18  C   UNL     1      -0.141  -6.176   1.610  0.00  0.00    +0.122 A 
ATOM     19  C   UNL     1      -1.355  -6.843   1.748  0.00  0.00    +0.086 A 
ATOM     20  C   UNL     1      -2.526  -6.090   1.767  0.00  0.00    +0.122 A 
ATOM     21  N   UNL     1      -2.448  -4.766   1.657  0.00  0.00    -0.207 NA
ATOM     22  N   UNL     1       1.050  -6.884   1.586  0.00  0.00    -0.343 N 
ATOM     23  H   UNL     1       1.892  -6.412   1.489  0.00  0.00    +0.144 HD
ATOM     24  H   UNL     1       1.042  -7.850   1.666  0.00  0.00    +0.144 HD
BRANCH  20  25
ATOM     25  N   UNL     1      -3.758  -6.712   1.902  0.00  0.00    -0.343 N 
ATOM     26  H   UNL     1      -3.808  -7.677   1.985  0.00  0.00    +0.144 HD
ATOM     27  H   UNL     1      -4.570  -6.182   1.914  0.00  0.00    +0.144 HD
ENDBRANCH  20  25
ENDBRANCH  15  16
ENDBRANCH   1  15
TORSDOF 7
