REMARK  Name = ZINC00087277
REMARK  3 active torsions:
REMARK  status: ('A' for Active; 'I' for Inactive)
REMARK    1  A    between atoms: C_1  and  C_2
REMARK    2  A    between atoms: C_6  and  S_9
REMARK    3  A    between atoms: S_9  and  N_12
REMARK                            x       y       z     vdW  Elec       q    Type
REMARK                         _______ _______ _______ _____ _____    ______ ____
ROOT
ATOM      1  C   UNL     1      -0.013   1.086   0.008  0.00  0.00    +0.047 C 
ATOM      2  C   UNL     1      -0.718   1.572   1.248  0.00  0.00    -0.012 A 
ATOM      3  C   UNL     1      -2.084   1.790   1.226  0.00  0.00    +0.045 A 
ATOM      4  C   UNL     1      -2.732   2.231   2.366  0.00  0.00    +0.022 A 
ATOM      5  C   UNL     1      -2.013   2.464   3.524  0.00  0.00    +0.031 A 
ATOM      6  C   UNL     1      -0.647   2.253   3.544  0.00  0.00    +0.124 A 
ATOM      7  C   UNL     1       0.001   1.806   2.406  0.00  0.00    +0.072 A 
ATOM      8 CL   UNL     1       1.716   1.540   2.432  0.00  0.00    -0.081 Cl
ATOM      9 CL   UNL     1      -2.986   1.502  -0.229  0.00  0.00    -0.083 Cl
ENDROOT
BRANCH   6  10
ATOM     10  S   UNL     1       0.268   2.551   5.020  0.00  0.00    +0.057 S 
ATOM     11  O   UNL     1       1.388   3.344   4.649  0.00  0.00    -0.153 OA
ATOM     12  O   UNL     1      -0.669   2.968   6.002  0.00  0.00    -0.153 OA
BRANCH  10  13
ATOM     13  N   UNL     1       0.868   1.093   5.527  0.00  0.00    -0.203 NA
ATOM     14  H   UNL     1       0.681   0.288   5.019  0.00  0.00    +0.144 HD
ATOM     15  H   UNL     1       1.406   1.044   6.332  0.00  0.00    +0.144 HD
ENDBRANCH  10  13
ENDBRANCH   6  10
TORSDOF 2
