REMARK  Name = ZINC04469725
REMARK  7 active torsions:
REMARK  status: ('A' for Active; 'I' for Inactive)
REMARK    1  A    between atoms: C_1  and  C_2
REMARK    2  A    between atoms: C_2  and  C_4
REMARK    3  A    between atoms: C_2  and  S_14
REMARK    4  A    between atoms: N_6  and  C_7
REMARK    5  A    between atoms: S_14  and  C_15
REMARK    6  A    between atoms: C_18  and  C_21
REMARK    7  A    between atoms: N_19  and  N_20
REMARK                            x       y       z     vdW  Elec       q    Type
REMARK                         _______ _______ _______ _____ _____    ______ ____
ROOT
ATOM      1  C   UNL     1      -3.885  -5.121   0.299  0.00  0.00    +0.209 A 
ATOM      2  N   UNL     1      -4.939  -4.446  -0.102  0.00  0.00    -0.121 NA
ATOM      3  N   UNL     1      -5.987  -5.187  -0.042  0.00  0.00    -0.127 NA
ATOM      4  C   UNL     1      -5.667  -6.380   0.403  0.00  0.00    +0.182 A 
ATOM      5  N   UNL     1      -4.310  -6.377   0.630  0.00  0.00    -0.224 N 
ENDROOT
BRANCH   4   6
ATOM      6  C   UNL     1      -6.590  -7.516   0.614  0.00  0.00    +0.021 A 
ATOM      7  C   UNL     1      -6.185  -8.617   1.370  0.00  0.00    +0.013 A 
ATOM      8  C   UNL     1      -7.052  -9.672   1.566  0.00  0.00    +0.021 A 
ATOM      9  C   UNL     1      -8.319  -9.643   1.008  0.00  0.00    +0.041 A 
ATOM     10  C   UNL     1      -8.725  -8.556   0.254  0.00  0.00    +0.021 A 
ATOM     11  C   UNL     1      -7.869  -7.493   0.054  0.00  0.00    +0.013 A 
ATOM     12 CL   UNL     1      -9.402 -10.977   1.255  0.00  0.00    -0.084 Cl
ENDBRANCH   4   6
BRANCH   5  13
ATOM     13  N   UNL     1      -3.548  -7.411   1.092  0.00  0.00    -0.295 N 
ATOM     14  H   UNL     1      -3.497  -7.402   2.099  0.00  0.00    +0.163 HD
ATOM     15  H   UNL     1      -3.897  -8.296   0.756  0.00  0.00    +0.163 HD
ENDBRANCH   5  13
BRANCH   1  16
ATOM     16  S   UNL     1      -2.231  -4.521   0.388  0.00  0.00    -0.072 S 
BRANCH  16  18
ATOM     17  C   UNL     1      -2.932  -2.863  -1.666  0.00  0.00    +0.029 C 
ATOM     18  C   UNL     1      -2.478  -2.829  -0.206  0.00  0.00    +0.137 C 
BRANCH  18  19
ATOM     19  C   UNL     1      -1.183  -2.066  -0.100  0.00  0.00    +0.230 C 
ATOM     20  O   UNL     1      -0.126  -2.660  -0.113  0.00  0.00    -0.274 OA
ATOM     21  N   UNL     1      -1.200  -0.722   0.009  0.00  0.00    -0.282 N 
ATOM     22  H   UNL     1      -2.045  -0.254   0.100  0.00  0.00    +0.155 HD
BRANCH  21  23
ATOM     23  C   UNL     1       0.001  -0.003  -0.009  0.00  0.00    +0.069 A 
ATOM     24  C   UNL     1       1.122  -0.537  -0.630  0.00  0.00    +0.026 A 
ATOM     25  C   UNL     1       2.306   0.175  -0.647  0.00  0.00    +0.002 A 
ATOM     26  C   UNL     1       2.376   1.419  -0.047  0.00  0.00    +0.003 A 
ATOM     27  C   UNL     1       1.263   1.955   0.573  0.00  0.00    +0.040 A 
ATOM     28  C   UNL     1       0.074   1.248   0.594  0.00  0.00    +0.144 A 
ATOM     29  F   UNL     1      -1.016   1.774   1.194  0.00  0.00    -0.204 F 
ENDBRANCH  21  23
ENDBRANCH  18  19
ENDBRANCH  16  18
ENDBRANCH   1  16
TORSDOF 6
