REMARK  Name = ZINC24843308
REMARK  8 active torsions:
REMARK  status: ('A' for Active; 'I' for Inactive)
REMARK    1  A    between atoms: C_1  and  C_2
REMARK    2  A    between atoms: C_4  and  C_25
REMARK    3  A    between atoms: C_8  and  N_24
REMARK    4  A    between atoms: C_9  and  C_11
REMARK    5  A    between atoms: N_13  and  N_14
REMARK    6  A    between atoms: C_15  and  C_17
REMARK    7  A    between atoms: C_19  and  C_23
REMARK    8  A    between atoms: C_20  and  C_22
REMARK                            x       y       z     vdW  Elec       q    Type
REMARK                         _______ _______ _______ _____ _____    ______ ____
ROOT
ATOM      1  C   UNL     1      -3.017   3.203   1.713  0.00  0.00    +0.044 C 
ATOM      2  C   UNL     1      -1.660   2.570   1.544  0.00  0.00    -0.037 A 
ATOM      3  C   UNL     1      -1.508   1.207   1.649  0.00  0.00    +0.025 A 
ATOM      4  C   UNL     1      -0.257   0.627   1.498  0.00  0.00    +0.014 A 
ATOM      5  N   UNL     1       0.799   1.374   1.242  0.00  0.00    -0.353 N 
ATOM      6  C   UNL     1       0.704   2.681   1.126  0.00  0.00    +0.088 A 
ATOM      7  C   UNL     1      -0.523   3.368   1.268  0.00  0.00    +0.030 A 
ATOM      8  C   UNL     1      -0.444   4.812   1.109  0.00  0.00    +0.054 A 
ATOM      9  C   UNL     1       0.785   5.374   0.842  0.00  0.00    +0.098 A 
ATOM     10  S   UNL     1       1.880   3.969   0.794  0.00  0.00    -0.064 S 
ATOM     11  C   UNL     1      -0.105  -0.867   1.623  0.00  0.00    +0.063 C 
ATOM     12  H   UNL     1       1.787   0.905   1.119  0.00  0.00    +0.166 HD
ENDROOT
BRANCH   9  13
ATOM     13  C   UNL     1       1.103   6.742   0.649  0.00  0.00    +0.269 C 
ATOM     14  O   UNL     1       0.227   7.585   0.714  0.00  0.00    -0.268 OA
ATOM     15  N   UNL     1       2.374   7.109   0.394  0.00  0.00    -0.230 N 
ATOM     16  H   UNL     1       3.165   6.348   0.335  0.00  0.00    +0.173 HD
BRANCH  15  17
ATOM     17  N   UNL     1       2.688   8.461   0.204  0.00  0.00    -0.230 N 
ATOM     18  C   UNL     1       3.959   8.829  -0.052  0.00  0.00    +0.267 C 
ATOM     19  O   UNL     1       4.835   7.986  -0.117  0.00  0.00    -0.268 OA
ATOM     20  H   UNL     1       1.896   9.223   0.263  0.00  0.00    +0.173 HD
BRANCH  18  21
ATOM     21  C   UNL     1       4.287  10.243  -0.251  0.00  0.00    +0.076 A 
ATOM     22  C   UNL     1       5.516  10.826  -0.520  0.00  0.00    +0.024 A 
ATOM     23  C   UNL     1       5.543  12.191  -0.663  0.00  0.00    -0.040 A 
ATOM     24  C   UNL     1       4.387  12.894  -0.535  0.00  0.00    -0.010 A 
ATOM     25  S   UNL     1       3.208  11.664  -0.217  0.00  0.00    -0.089 S 
ATOM     26  C   UNL     1       4.180  14.382  -0.650  0.00  0.00    +0.052 C 
ATOM     27  C   UNL     1       6.839  12.901  -0.956  0.00  0.00    +0.044 C 
ENDBRANCH  18  21
ENDBRANCH  15  17
ENDBRANCH   9  13
BRANCH   8  28
ATOM     28  N   UNL     1      -1.578   5.604   1.225  0.00  0.00    -0.356 N 
ATOM     29  H   UNL     1      -1.502   6.694   1.102  0.00  0.00    +0.142 HD
ATOM     30  H   UNL     1      -2.552   5.141   1.439  0.00  0.00    +0.142 HD
ENDBRANCH   8  28
TORSDOF 4
