REMARK  Name = ZINC49175311
REMARK  5 active torsions:
REMARK  status: ('A' for Active; 'I' for Inactive)
REMARK    1  A    between atoms: C_1  and  N_2
REMARK    2  A    between atoms: C_3  and  C_5
REMARK    3  A    between atoms: C_5  and  N_6
REMARK    4  A    between atoms: C_7  and  C_9
REMARK    5  A    between atoms: C_11  and  C_15
REMARK                            x       y       z     vdW  Elec       q    Type
REMARK                         _______ _______ _______ _____ _____    ______ ____
ROOT
ATOM      1  N   UNL     1       1.291  -2.644  -2.232  0.00  0.00    -0.301 N 
ATOM      2  C   UNL     1       1.430  -3.966  -2.453  0.00  0.00    +0.263 C 
ATOM      3  O   UNL     1       0.986  -4.767  -1.653  0.00  0.00    -0.269 OA
ATOM      4  H   UNL     1       1.645  -2.005  -2.870  0.00  0.00    +0.150 HD
ENDROOT
BRANCH   2   5
ATOM      5  C   UNL     1       2.119  -4.440  -3.663  0.00  0.00    +0.134 A 
ATOM      6  C   UNL     1       2.336  -5.757  -4.035  0.00  0.00    +0.071 A 
ATOM      7  C   UNL     1       3.024  -5.690  -5.249  0.00  0.00    +0.081 A 
ATOM      8  N   UNL     1       3.188  -4.427  -5.549  0.00  0.00    -0.177 NA
ATOM      9  N   UNL     1       2.668  -3.670  -4.650  0.00  0.00    -0.271 N 
ATOM     10  H   UNL     1       2.667  -2.700  -4.668  0.00  0.00    +0.189 HD
ATOM     11 BR   UNL     1       1.812  -7.314  -3.098  0.00  0.00    -0.046 Br
BRANCH   7  12
ATOM     12  C   UNL     1       3.494  -6.864  -6.068  0.00  0.00    +0.041 C 
ATOM     13  C   UNL     1       4.404  -6.572  -7.263  0.00  0.00    +0.010 C 
ATOM     14  C   UNL     1       2.952  -6.994  -7.493  0.00  0.00    +0.010 C 
ENDBRANCH   7  12
ENDBRANCH   2   5
BRANCH   1  15
ATOM     15  C   UNL     1       0.606  -2.171  -1.026  0.00  0.00    +0.200 C 
BRANCH  15  18
ATOM     16  C   UNL     1      -0.018   1.461   0.010  0.00  0.00    +0.128 C 
ATOM     17  N   UNL     1       0.002  -0.004   0.002  0.00  0.00    -0.317 N 
ATOM     18  C   UNL     1       0.585  -0.664  -1.018  0.00  0.00    +0.230 C 
ATOM     19  O   UNL     1       1.093  -0.046  -1.929  0.00  0.00    -0.274 OA
ATOM     20  H   UNL     1      -0.404  -0.499   0.731  0.00  0.00    +0.148 HD
ENDBRANCH  15  18
ENDBRANCH   1  15
TORSDOF 4
