REMARK  Name = ZINC15372729
REMARK  8 active torsions:
REMARK  status: ('A' for Active; 'I' for Inactive)
REMARK    1  A    between atoms: C_1  and  C_2
REMARK    2  A    between atoms: N_4  and  C_5
REMARK    3  A    between atoms: C_5  and  C_6
REMARK    4  A    between atoms: C_6  and  N_7
REMARK    5  A    between atoms: C_8  and  C_10
REMARK    6  A    between atoms: C_15  and  N_16
REMARK    7  A    between atoms: N_16  and  S_17
REMARK    8  A    between atoms: S_17  and  C_20
REMARK                            x       y       z     vdW  Elec       q    Type
REMARK                         _______ _______ _______ _____ _____    ______ ____
ROOT
ATOM      1  C   UNL     1      -0.932  -1.425  -3.748  0.00  0.00    +0.059 A 
ATOM      2  C   UNL     1      -0.082  -2.139  -4.595  0.00  0.00    +0.015 A 
ATOM      3  C   UNL     1       0.580  -3.253  -4.126  0.00  0.00    +0.001 A 
ATOM      4  C   UNL     1       0.406  -3.669  -2.815  0.00  0.00    +0.002 A 
ATOM      5  C   UNL     1      -0.426  -2.971  -1.964  0.00  0.00    +0.025 A 
ATOM      6  C   UNL     1      -1.105  -1.849  -2.421  0.00  0.00    +0.060 A 
ENDROOT
BRANCH   1   8
ATOM      7  N   UNL     1      -1.473   0.172  -5.519  0.00  0.00    -0.310 N 
ATOM      8  C   UNL     1      -1.643  -0.232  -4.244  0.00  0.00    +0.246 C 
ATOM      9  O   UNL     1      -2.382   0.388  -3.503  0.00  0.00    -0.270 OA
ATOM     10  H   UNL     1      -0.884  -0.322  -6.110  0.00  0.00    +0.149 HD
BRANCH   7  11
ATOM     11  C   UNL     1      -2.179   1.357  -6.012  0.00  0.00    +0.123 C 
BRANCH  11  12
ATOM     12  C   UNL     1      -1.815   1.595  -7.478  0.00  0.00    +0.123 C 
BRANCH  12  16
ATOM     13  C   UNL     1      -3.077   4.403  -9.753  0.00  0.00    +0.109 C 
ATOM     14  C   UNL     1      -2.351   3.184  -9.246  0.00  0.00    +0.210 C 
ATOM     15  O   UNL     1      -1.614   2.566  -9.985  0.00  0.00    -0.276 OA
ATOM     16  N   UNL     1      -2.521   2.780  -7.971  0.00  0.00    -0.314 N 
ATOM     17  H   UNL     1      -3.110   3.275  -7.380  0.00  0.00    +0.149 HD
ENDBRANCH  12  16
ENDBRANCH  11  12
ENDBRANCH   7  11
ENDBRANCH   1   8
BRANCH   6  18
ATOM     18  N   UNL     1      -1.947  -1.147  -1.568  0.00  0.00    -0.216 N 
ATOM     19  H   UNL     1      -2.763  -0.749  -1.911  0.00  0.00    +0.174 HD
BRANCH  18  20
ATOM     20  S   UNL     1      -1.559  -0.991   0.034  0.00  0.00    +0.072 S 
ATOM     21  O   UNL     1      -1.330  -2.304   0.526  0.00  0.00    -0.150 OA
ATOM     22  O   UNL     1      -2.529  -0.122   0.604  0.00  0.00    -0.150 OA
BRANCH  20  23
ATOM     23  C   UNL     1      -0.015  -0.145   0.116  0.00  0.00    +0.110 A 
ATOM     24  C   UNL     1       1.166  -0.863   0.110  0.00  0.00    +0.030 A 
ATOM     25  C   UNL     1       2.378  -0.200   0.174  0.00  0.00    +0.023 A 
ATOM     26  C   UNL     1       2.408   1.181   0.244  0.00  0.00    +0.059 A 
ATOM     27  C   UNL     1       1.225   1.899   0.249  0.00  0.00    +0.061 A 
ATOM     28  C   UNL     1       0.013   1.235   0.185  0.00  0.00    +0.050 A 
ATOM     29 CL   UNL     1       1.262   3.633   0.336  0.00  0.00    -0.082 Cl
ATOM     30 CL   UNL     1       3.930   2.013   0.325  0.00  0.00    -0.082 Cl
ENDBRANCH  20  23
ENDBRANCH  18  20
ENDBRANCH   6  18
TORSDOF 7
