REMARK  Name = ZINC00238479
REMARK  6 active torsions:
REMARK  status: ('A' for Active; 'I' for Inactive)
REMARK    1  A    between atoms: C_6  and  C_7
REMARK    2  A    between atoms: C_7  and  C_8
REMARK    3  A    between atoms: C_8  and  C_10
REMARK    4  A    between atoms: C_11  and  O_18
REMARK    5  A    between atoms: C_13  and  O_17
REMARK    6  A    between atoms: C_15  and  O_16
REMARK                            x       y       z     vdW  Elec       q    Type
REMARK                         _______ _______ _______ _____ _____    ______ ____
ROOT
ATOM      1  C   UNL     1      -2.507   3.876   0.047  0.00  0.00    +0.174 C 
ATOM      2  O   UNL     1      -2.517   5.090   0.055  0.00  0.00    -0.291 OA
ENDROOT
BRANCH   1   3
ATOM      3  C   UNL     1      -1.236   3.156   0.031  0.00  0.00    +0.101 A 
ATOM      4  C   UNL     1      -1.220   1.748   0.017  0.00  0.00    +0.134 A 
ATOM      5  C   UNL     1      -0.013   1.076   0.008  0.00  0.00    +0.091 A 
ATOM      6  C   UNL     1       1.182   1.785   0.000  0.00  0.00    +0.124 A 
ATOM      7  C   UNL     1       1.177   3.174   0.008  0.00  0.00    +0.091 A 
ATOM      8  C   UNL     1      -0.020   3.865   0.024  0.00  0.00    +0.134 A 
BRANCH   8   9
ATOM      9  O   UNL     1      -0.023   5.221   0.032  0.00  0.00    -0.506 OA
ATOM     10  H   UNL     1      -0.032   5.619  -0.849  0.00  0.00    +0.292 HD
ENDBRANCH   8   9
BRANCH   6  11
ATOM     11  O   UNL     1       2.363   1.116  -0.015  0.00  0.00    -0.507 OA
ATOM     12  H   UNL     1       2.696   0.926  -0.902  0.00  0.00    +0.292 HD
ENDBRANCH   6  11
BRANCH   4  13
ATOM     13  O   UNL     1      -2.385   1.054   0.019  0.00  0.00    -0.506 OA
ATOM     14  H   UNL     1      -2.719   0.848   0.903  0.00  0.00    +0.292 HD
ENDBRANCH   4  13
ENDBRANCH   1   3
BRANCH   1  15
ATOM     15  C   UNL     1      -3.807   3.112   0.055  0.00  0.00    +0.115 C 
BRANCH  15  21
ATOM     16  C   UNL     1      -5.479   4.514   1.278  0.00  0.00    +0.008 A 
ATOM     17  C   UNL     1      -6.534   5.409   1.301  0.00  0.00    +0.050 A 
ATOM     18  C   UNL     1      -7.076   5.863   0.111  0.00  0.00    +0.162 A 
ATOM     19  C   UNL     1      -6.558   5.425  -1.100  0.00  0.00    +0.162 A 
ATOM     20  C   UNL     1      -5.499   4.534  -1.120  0.00  0.00    +0.053 A 
ATOM     21  C   UNL     1      -4.960   4.083   0.072  0.00  0.00    -0.036 A 
ATOM     22  O   UNL     1      -7.098   5.879  -2.268  0.00  0.00    -0.488 OA
ATOM     23  C   UNL     1      -8.426   5.435  -2.556  0.00  0.00    +0.232 C 
ATOM     24  C   UNL     1      -9.452   6.321  -1.866  0.00  0.00    +0.082 C 
ATOM     25  C   UNL     1      -9.369   6.232  -0.351  0.00  0.00    +0.232 C 
ATOM     26  O   UNL     1      -8.120   6.741   0.120  0.00  0.00    -0.488 OA
ENDBRANCH  15  21
ENDBRANCH   1  15
TORSDOF 6
