REMARK  Name = ZINC50973455
REMARK  5 active torsions:
REMARK  status: ('A' for Active; 'I' for Inactive)
REMARK    1  A    between atoms: C_1  and  C_2
REMARK    2  A    between atoms: C_5  and  S_18
REMARK    3  A    between atoms: C_7  and  N_8
REMARK    4  A    between atoms: C_9  and  C_11
REMARK    5  A    between atoms: S_18  and  N_21
REMARK                            x       y       z     vdW  Elec       q    Type
REMARK                         _______ _______ _______ _____ _____    ______ ____
ROOT
ATOM      1  C   UNL     1      -1.264   1.184   0.181  0.00  0.00    +0.045 C 
ATOM      2  C   UNL     1      -0.584  -0.158   0.084  0.00  0.00    -0.029 A 
ATOM      3  C   UNL     1      -0.568  -0.840  -1.117  0.00  0.00    +0.007 A 
ATOM      4  C   UNL     1       0.055  -2.071  -1.206  0.00  0.00    +0.029 A 
ATOM      5  C   UNL     1       0.666  -2.622  -0.095  0.00  0.00    +0.107 A 
ATOM      6  C   UNL     1       0.655  -1.945   1.108  0.00  0.00    +0.052 A 
ATOM      7  C   UNL     1       0.034  -0.706   1.201  0.00  0.00    +0.038 A 
ENDROOT
BRANCH   7   8
ATOM      8  N   UNL     1       0.025  -0.015   2.417  0.00  0.00    -0.283 N 
ATOM      9  C   UNL     1      -0.056  -0.694   3.578  0.00  0.00    +0.246 C 
ATOM     10  O   UNL     1      -0.040  -1.907   3.573  0.00  0.00    -0.273 OA
ATOM     11  H   UNL     1       0.078   0.954   2.425  0.00  0.00    +0.155 HD
BRANCH   9  12
ATOM     12  C   UNL     1      -0.168   0.052   4.882  0.00  0.00    +0.204 C 
ATOM     13  C   UNL     1      -1.493   0.818   4.921  0.00  0.00    +0.041 C 
ATOM     14  C   UNL     1      -1.626   1.525   6.273  0.00  0.00    +0.005 C 
ATOM     15  C   UNL     1      -1.522   0.485   7.393  0.00  0.00    +0.028 C 
ATOM     16  C   UNL     1      -0.196  -0.267   7.259  0.00  0.00    +0.161 C 
ATOM     17  O   UNL     1      -0.123  -0.876   5.968  0.00  0.00    -0.367 OA
ENDBRANCH   9  12
ENDBRANCH   7   8
BRANCH   5  18
ATOM     18  S   UNL     1       1.459  -4.191  -0.214  0.00  0.00    +0.056 S 
ATOM     19  O   UNL     1       1.482  -4.736   1.098  0.00  0.00    -0.153 OA
ATOM     20  O   UNL     1       0.858  -4.868  -1.310  0.00  0.00    -0.153 OA
BRANCH  18  21
ATOM     21  N   UNL     1       3.036  -3.912  -0.638  0.00  0.00    -0.204 NA
ATOM     22  H   UNL     1       3.349  -3.003  -0.769  0.00  0.00    +0.144 HD
ATOM     23  H   UNL     1       3.646  -4.657  -0.755  0.00  0.00    +0.144 HD
ENDBRANCH  18  21
ENDBRANCH   5  18
TORSDOF 4
