REMARK  Name = ZINC49977304
REMARK  6 active torsions:
REMARK  status: ('A' for Active; 'I' for Inactive)
REMARK    1  A    between atoms: C_1  and  C_2
REMARK    2  A    between atoms: C_5  and  N_9
REMARK    3  A    between atoms: C_6  and  C_8
REMARK    4  A    between atoms: N_9  and  C_10
REMARK    5  A    between atoms: C_11  and  C_13
REMARK    6  A    between atoms: C_15  and  N_21
REMARK                            x       y       z     vdW  Elec       q    Type
REMARK                         _______ _______ _______ _____ _____    ______ ____
ROOT
ATOM      1  N   UNL     1      -0.028  -4.106   0.415  0.00  0.00    -0.270 N 
ATOM      2  C   UNL     1       1.203  -4.750   0.882  0.00  0.00    +0.138 C 
ATOM      3  C   UNL     1      -1.120  -4.851   0.152  0.00  0.00    +0.253 C 
ATOM      4  O   UNL     1      -2.110  -4.331  -0.325  0.00  0.00    -0.270 OA
ENDROOT
BRANCH   1   9
ATOM      5  C   UNL     1      -0.199   1.520  -0.284  0.00  0.00    +0.044 C 
ATOM      6  C   UNL     1      -0.153   0.026  -0.098  0.00  0.00    -0.050 A 
ATOM      7  C   UNL     1       0.231  -0.789  -1.148  0.00  0.00    +0.005 A 
ATOM      8  C   UNL     1       0.273  -2.159  -0.981  0.00  0.00    +0.024 A 
ATOM      9  C   UNL     1      -0.069  -2.719   0.243  0.00  0.00    +0.039 A 
ATOM     10  C   UNL     1      -0.454  -1.898   1.295  0.00  0.00    -0.029 A 
ATOM     11  C   UNL     1      -0.489  -0.528   1.123  0.00  0.00    +0.008 A 
ATOM     12  C   UNL     1      -0.827  -2.501   2.625  0.00  0.00    +0.045 C 
ENDBRANCH   1   9
BRANCH   3  13
ATOM     13  C   UNL     1      -1.114  -6.298   0.443  0.00  0.00    +0.074 A 
ATOM     14  C   UNL     1      -0.569  -6.770   1.640  0.00  0.00    +0.041 A 
ATOM     15  C   UNL     1      -0.567  -8.127   1.907  0.00  0.00    +0.061 A 
ATOM     16  C   UNL     1      -1.105  -9.021   0.983  0.00  0.00    +0.147 A 
ATOM     17  C   UNL     1      -1.645  -8.556  -0.203  0.00  0.00    +0.079 A 
ATOM     18  C   UNL     1      -1.658  -7.200  -0.476  0.00  0.00    +0.138 A 
ATOM     19  F   UNL     1      -2.191  -6.749  -1.633  0.00  0.00    -0.205 F 
ATOM     20  F   UNL     1      -1.100 -10.346   1.246  0.00  0.00    -0.203 F 
BRANCH  15  21
ATOM     21  N   UNL     1      -0.022  -8.604   3.105  0.00  0.00    -0.356 N 
ATOM     22  H   UNL     1       0.353  -7.982   3.748  0.00  0.00    +0.142 HD
ATOM     23  H   UNL     1      -0.020  -9.556   3.292  0.00  0.00    +0.142 HD
ENDBRANCH  15  21
ENDBRANCH   3  13
TORSDOF 3
