REMARK  Name = ZINC09562004
REMARK  6 active torsions:
REMARK  status: ('A' for Active; 'I' for Inactive)
REMARK    1  A    between atoms: C_5  and  C_8
REMARK    2  A    between atoms: C_8  and  O_10
REMARK    3  A    between atoms: O_10  and  C_11
REMARK    4  A    between atoms: C_11  and  C_12
REMARK    5  A    between atoms: N_14  and  C_15
REMARK    6  A    between atoms: C_16  and  C_23
REMARK                            x       y       z     vdW  Elec       q    Type
REMARK                         _______ _______ _______ _____ _____    ______ ____
ROOT
ATOM      1  C   UNL     1      -3.667   3.456  -2.445  0.00  0.00    +0.255 C 
ATOM      2  O   UNL     1      -3.027   3.099  -3.412  0.00  0.00    -0.272 OA
ATOM      3  N   UNL     1      -4.832   4.112  -2.613  0.00  0.00    -0.277 N 
ATOM      4  H   UNL     1      -5.343   4.398  -1.839  0.00  0.00    +0.155 HD
ENDROOT
BRANCH   3   5
ATOM      5  C   UNL     1      -5.300   4.379  -3.890  0.00  0.00    +0.084 A 
ATOM      6  C   UNL     1      -6.464   5.030  -4.262  0.00  0.00    +0.068 A 
ATOM      7  C   UNL     1      -6.725   5.187  -5.692  0.00  0.00    -0.023 A 
ATOM      8  C   UNL     1      -5.789   4.663  -6.505  0.00  0.00    -0.004 A 
ATOM      9  S   UNL     1      -4.573   3.974  -5.408  0.00  0.00    -0.077 S 
ATOM     10  C   UNL     1      -6.128   4.861  -7.957  0.00  0.00    +0.043 C 
ATOM     11  C   UNL     1      -7.204   5.970  -7.958  0.00  0.00    +0.010 C 
ATOM     12  C   UNL     1      -7.824   5.807  -6.556  0.00  0.00    +0.037 C 
BRANCH   6  13
ATOM     13  C   UNL     1      -7.399   5.546  -3.258  0.00  0.00    +0.244 C 
ATOM     14  O   UNL     1      -7.275   6.681  -2.837  0.00  0.00    -0.270 OA
ATOM     15  N   UNL     1      -8.397   4.763  -2.801  0.00  0.00    -0.325 N 
ATOM     16  H   UNL     1      -8.496   3.858  -3.136  0.00  0.00    +0.145 HD
ATOM     17  H   UNL     1      -9.016   5.104  -2.136  0.00  0.00    +0.145 HD
ENDBRANCH   6  13
ENDBRANCH   3   5
BRANCH   1  18
ATOM     18  C   UNL     1      -3.158   3.166  -1.057  0.00  0.00    +0.328 C 
BRANCH  18  19
ATOM     19  O   UNL     1      -1.895   2.454  -1.143  0.00  0.00    -0.452 OA
BRANCH  19  20
ATOM     20  C   UNL     1      -1.303   2.118   0.020  0.00  0.00    +0.343 C 
ATOM     21  O   UNL     1      -1.827   2.410   1.076  0.00  0.00    -0.245 OA
BRANCH  20  26
ATOM     22  C   UNL     1       2.388   1.418  -0.014  0.00  0.00    +0.022 A 
ATOM     23  C   UNL     1       2.399   0.034  -0.021  0.00  0.00    +0.023 A 
ATOM     24  C   UNL     1       1.210  -0.675  -0.013  0.00  0.00    +0.060 A 
ATOM     25  C   UNL     1       0.002  -0.004   0.002  0.00  0.00    +0.075 A 
ATOM     26  C   UNL     1      -0.017   1.393   0.010  0.00  0.00    +0.097 A 
ATOM     27  C   UNL     1       1.188   2.102   0.002  0.00  0.00    +0.056 A 
ATOM     28 CL   UNL     1       1.177   3.838   0.011  0.00  0.00    -0.083 Cl
ATOM     29 CL   UNL     1      -1.488  -0.895   0.011  0.00  0.00    -0.081 Cl
ATOM     30 CL   UNL     1       1.238  -2.410  -0.023  0.00  0.00    -0.082 Cl
ENDBRANCH  20  26
ENDBRANCH  19  20
ENDBRANCH  18  19
ENDBRANCH   1  18
TORSDOF 6
