REMARK  Name = ZINC52094417
REMARK  3 active torsions:
REMARK  status: ('A' for Active; 'I' for Inactive)
REMARK    1  A    between atoms: C_3  and  C_9
REMARK    2  A    between atoms: C_9  and  C_11
REMARK    3  A    between atoms: C_9  and  N_24
REMARK                            x       y       z     vdW  Elec       q    Type
REMARK                         _______ _______ _______ _____ _____    ______ ____
ROOT
ATOM      1  C   UNL     1       3.671   2.186  -0.023  0.00  0.00    -0.011 C 
ENDROOT
BRANCH   1   2
ATOM      2  C   UNL     1       4.215   2.239  -1.427  0.00  0.00    -0.042 A 
ATOM      3  C   UNL     1       4.125   3.409  -2.156  0.00  0.00    +0.031 A 
ATOM      4  C   UNL     1       4.625   3.458  -3.448  0.00  0.00    +0.067 A 
ATOM      5  C   UNL     1       5.218   2.324  -4.008  0.00  0.00    +0.068 A 
ATOM      6  C   UNL     1       5.304   1.154  -3.269  0.00  0.00    +0.043 A 
ATOM      7  C   UNL     1       4.808   1.116  -1.980  0.00  0.00    +0.022 A 
ATOM      8 BR   UNL     1       4.933  -0.477  -0.969  0.00  0.00    -0.050 Br
ATOM      9  N   UNL     1       5.618   2.673  -5.295  0.00  0.00    -0.306 N 
ATOM     10  H   UNL     1       6.061   2.088  -5.930  0.00  0.00    +0.170 HD
ATOM     11  C   UNL     1       5.284   3.959  -5.510  0.00  0.00    +0.325 A 
ATOM     12  O   UNL     1       5.493   4.576  -6.538  0.00  0.00    -0.247 OA
ATOM     13  N   UNL     1       4.684   4.460  -4.414  0.00  0.00    -0.306 N 
ATOM     14  H   UNL     1       4.348   5.365  -4.314  0.00  0.00    +0.170 HD
ENDBRANCH   1   2
BRANCH   1  17
ATOM     15  C   UNL     1       0.257   1.155  -1.261  0.00  0.00    +0.038 A 
ATOM     16  C   UNL     1       1.550   1.642  -1.235  0.00  0.00    +0.006 A 
ATOM     17  C   UNL     1       2.261   1.656  -0.050  0.00  0.00    -0.039 A 
ATOM     18  C   UNL     1       1.678   1.182   1.113  0.00  0.00    +0.046 A 
ATOM     19  C   UNL     1       0.384   0.694   1.089  0.00  0.00    +0.058 A 
ATOM     20  C   UNL     1      -0.327   0.681  -0.099  0.00  0.00    +0.125 A 
ATOM     21  F   UNL     1      -1.591   0.205  -0.124  0.00  0.00    -0.205 F 
ATOM     22 CL   UNL     1       2.572   1.198   2.601  0.00  0.00    -0.083 Cl
ENDBRANCH   1  17
BRANCH   1  23
ATOM     23  N   UNL     1       3.675   3.537   0.555  0.00  0.00    +0.385 N 
ATOM     24  H   UNL     1       4.620   3.892   0.573  0.00  0.00    -0.089 HD
ATOM     25  H   UNL     1       3.098   4.145  -0.007  0.00  0.00    -0.089 HD
ATOM     26  H   UNL     1       3.312   3.502   1.495  0.00  0.00    -0.089 HD
ENDBRANCH   1  23
TORSDOF 3
