REMARK  Name = ZINC12859878
REMARK  3 active torsions:
REMARK  status: ('A' for Active; 'I' for Inactive)
REMARK    1  A    between atoms: C_7  and  C_11
REMARK    2  A    between atoms: N_13  and  S_14
REMARK    3  A    between atoms: S_14  and  N_17
REMARK                            x       y       z     vdW  Elec       q    Type
REMARK                         _______ _______ _______ _____ _____    ______ ____
ROOT
ATOM      1  C   UNL     1      -1.207   2.333   0.021  0.00  0.00    +0.266 C 
ATOM      2  O   UNL     1      -2.318   1.838   0.024  0.00  0.00    -0.269 OA
ATOM      3  N   UNL     1      -1.066   3.674   0.027  0.00  0.00    -0.171 N 
ATOM      4  H   UNL     1      -0.180   4.069   0.025  0.00  0.00    +0.178 HD
ENDROOT
BRANCH   1  11
ATOM      5  C   UNL     1      -0.627  -2.315  -0.003  0.00  0.00    +0.001 A 
ATOM      6  C   UNL     1       0.712  -2.679  -0.018  0.00  0.00    +0.002 A 
ATOM      7  C   UNL     1       1.700  -1.718  -0.023  0.00  0.00    +0.026 A 
ATOM      8  C   UNL     1       1.357  -0.370  -0.013  0.00  0.00    +0.047 A 
ATOM      9  C   UNL     1       0.002  -0.004   0.002  0.00  0.00    +0.012 A 
ATOM     10  C   UNL     1      -0.986  -0.985   0.007  0.00  0.00    +0.011 A 
ATOM     11  C   UNL     1      -0.018   1.470   0.010  0.00  0.00    +0.063 A 
ATOM     12  C   UNL     1       1.284   1.874  -0.000  0.00  0.00    +0.096 A 
ATOM     13  N   UNL     1       2.100   0.793  -0.014  0.00  0.00    -0.360 N 
ATOM     14  H   UNL     1       3.069   0.830  -0.023  0.00  0.00    +0.165 HD
ENDBRANCH   1  11
BRANCH   3  15
ATOM     15  S   UNL     1      -2.406   4.647   0.039  0.00  0.00    +0.114 S 
ATOM     16  O   UNL     1      -1.934   5.987   0.071  0.00  0.00    -0.138 OA
ATOM     17  O   UNL     1      -3.266   4.166  -0.985  0.00  0.00    -0.138 OA
BRANCH  15  18
ATOM     18  N   UNL     1      -3.188   4.386   1.476  0.00  0.00    -0.164 NA
ATOM     19  C   UNL     1      -4.236   3.382   1.710  0.00  0.00    +0.111 C 
ATOM     20  C   UNL     1      -4.683   3.521   3.181  0.00  0.00    +0.018 C 
ATOM     21  C   UNL     1      -4.269   4.975   3.531  0.00  0.00    +0.018 C 
ATOM     22  C   UNL     1      -2.953   5.126   2.729  0.00  0.00    +0.111 C 
ENDBRANCH  15  18
ENDBRANCH   3  15
TORSDOF 3
