REMARK  Name = ZINC12497182
REMARK  10 active torsions:
REMARK  status: ('A' for Active; 'I' for Inactive)
REMARK    1  A    between atoms: C_1  and  O_2
REMARK    2  A    between atoms: O_2  and  C_3
REMARK    3  A    between atoms: C_8  and  C_9
REMARK    4  A    between atoms: N_17  and  C_20
REMARK    5  A    between atoms: C_26  and  C_27
REMARK    6  A    between atoms: C_26  and  C_35
REMARK    7  A    between atoms: C_27  and  C_28
REMARK    8  A    between atoms: C_31  and  O_34
REMARK    9  A    between atoms: C_35  and  O_37
REMARK   10  A    between atoms: O_37  and  C_38
REMARK                            x       y       z     vdW  Elec       q    Type
REMARK                         _______ _______ _______ _____ _____    ______ ____
ROOT
ATOM      1  C   UNL     1       5.645   0.744  -2.196  0.00  0.00    -0.023 C 
ATOM      2  C   UNL     1       6.326   1.691  -1.223  0.00  0.00    +0.077 C 
ATOM      3  C   UNL     1       5.471   2.982  -1.517  0.00  0.00    +0.086 C 
ATOM      4  C   UNL     1       6.289   4.015  -0.931  0.00  0.00    +0.229 C 
ATOM      5  O   UNL     1       5.916   5.030  -0.384  0.00  0.00    -0.275 OA
ATOM      6  N   UNL     1       7.583   3.599  -1.128  0.00  0.00    -0.210 N 
ATOM      7  C   UNL     1       7.664   2.292  -1.521  0.00  0.00    +0.229 C 
ATOM      8  O   UNL     1       8.622   1.735  -2.010  0.00  0.00    -0.275 OA
ATOM      9  C   UNL     1       4.096   2.456  -1.465  0.00  0.00    +0.048 C 
ATOM     10  N   UNL     1       4.223   1.176  -2.230  0.00  0.00    +0.396 N 
ATOM     11  H   UNL     1       3.631   0.456  -1.801  0.00  0.00    -0.083 HD
ATOM     12  H   UNL     1       3.930   1.325  -3.203  0.00  0.00    -0.083 HD
ENDROOT
BRANCH   1  18
ATOM     13  C   UNL     1       7.379   0.110  -3.892  0.00  0.00    +0.122 A 
ATOM     14  C   UNL     1       7.944   0.222  -5.155  0.00  0.00    +0.046 A 
ATOM     15  C   UNL     1       7.402   1.096  -6.077  0.00  0.00    +0.004 A 
ATOM     16  C   UNL     1       6.294   1.854  -5.745  0.00  0.00    +0.000 A 
ATOM     17  C   UNL     1       5.727   1.740  -4.490  0.00  0.00    +0.005 A 
ATOM     18  C   UNL     1       6.265   0.867  -3.564  0.00  0.00    -0.019 A 
BRANCH  13  20
ATOM     19  C   UNL     1       9.061  -1.494  -3.389  0.00  0.00    +0.277 C 
ATOM     20  O   UNL     1       7.914  -0.745  -2.981  0.00  0.00    -0.495 OA
ENDBRANCH  13  20
ENDBRANCH   1  18
BRANCH   6  21
ATOM     21  C   UNL     1       8.701   4.426  -0.945  0.00  0.00    +0.044 A 
ATOM     22  C   UNL     1       8.532   5.746  -0.550  0.00  0.00    +0.024 A 
ATOM     23  C   UNL     1       9.636   6.556  -0.366  0.00  0.00    +0.002 A 
ATOM     24  C   UNL     1      10.906   6.057  -0.586  0.00  0.00    +0.000 A 
ATOM     25  C   UNL     1      11.077   4.744  -0.985  0.00  0.00    +0.002 A 
ATOM     26  C   UNL     1       9.978   3.928  -1.165  0.00  0.00    +0.024 A 
ENDBRANCH   6  21
BRANCH   9  27
ATOM     27  C   UNL     1       3.131   3.398  -2.138  0.00  0.00    +0.297 C 
ATOM     28  O   UNL     1       3.370   4.582  -2.176  0.00  0.00    -0.252 OA
BRANCH  27  29
ATOM     29  O   UNL     1       2.007   2.922  -2.694  0.00  0.00    -0.469 OA
ATOM     30  C   UNL     1       1.124   3.887  -3.325  0.00  0.00    +0.280 C 
ENDBRANCH  27  29
ENDBRANCH   9  27
BRANCH   9  31
ATOM     31  C   UNL     1       3.671   2.186  -0.020  0.00  0.00    +0.034 C 
BRANCH  31  32
ATOM     32  C   UNL     1       2.377   1.414  -0.013  0.00  0.00    -0.048 A 
ATOM     33  C   UNL     1       1.171   2.089   0.002  0.00  0.00    +0.007 A 
ATOM     34  C   UNL     1      -0.017   1.383   0.010  0.00  0.00    +0.045 A 
ATOM     35  C   UNL     1       0.002  -0.004   0.002  0.00  0.00    +0.117 A 
ATOM     36  C   UNL     1       1.214  -0.679  -0.013  0.00  0.00    +0.045 A 
ATOM     37  C   UNL     1       2.399   0.031  -0.021  0.00  0.00    +0.007 A 
BRANCH  35  38
ATOM     38  O   UNL     1      -1.165  -0.701   0.010  0.00  0.00    -0.507 OA
ATOM     39  H   UNL     1      -1.511  -0.897  -0.871  0.00  0.00    +0.292 HD
ENDBRANCH  35  38
ENDBRANCH  31  32
ENDBRANCH   9  31
TORSDOF 8
