REMARK  Name = ZINC16698583
REMARK  8 active torsions:
REMARK  status: ('A' for Active; 'I' for Inactive)
REMARK    1  A    between atoms: C_1  and  C_2
REMARK    2  A    between atoms: C_3  and  C_14
REMARK    3  A    between atoms: C_5  and  C_7
REMARK    4  A    between atoms: C_14  and  O_16
REMARK    5  A    between atoms: O_16  and  C_17
REMARK    6  A    between atoms: C_17  and  C_18
REMARK    7  A    between atoms: N_20  and  C_21
REMARK    8  A    between atoms: C_22  and  C_26
REMARK                            x       y       z     vdW  Elec       q    Type
REMARK                         _______ _______ _______ _____ _____    ______ ____
ROOT
ATOM      1  O   UNL     1      -2.403   1.001   0.019  0.00  0.00    -0.451 OA
ENDROOT
BRANCH   1   2
ATOM      2  C   UNL     1      -3.656   1.500   0.028  0.00  0.00    +0.348 C 
ATOM      3  O   UNL     1      -3.832   2.703   0.035  0.00  0.00    -0.244 OA
BRANCH   2   6
ATOM      4  C   UNL     1      -6.659   2.305   0.048  0.00  0.00    +0.067 C 
ATOM      5  C   UNL     1      -6.165   0.881   0.036  0.00  0.00    +0.060 A 
ATOM      6  C   UNL     1      -4.805   0.592   0.028  0.00  0.00    +0.119 A 
ATOM      7  S   UNL     1      -4.849  -1.194   0.011  0.00  0.00    -0.060 S 
ATOM      8  C   UNL     1      -6.576  -1.379   0.024  0.00  0.00    +0.109 A 
ATOM      9  N   UNL     1      -7.000  -0.122   0.034  0.00  0.00    -0.243 NA
BRANCH   8  10
ATOM     10  C   UNL     1      -7.372  -2.623   0.020  0.00  0.00    +0.007 A 
ATOM     11  C   UNL     1      -8.767  -2.562   0.032  0.00  0.00    +0.012 A 
ATOM     12  C   UNL     1      -9.505  -3.727   0.023  0.00  0.00    +0.020 A 
ATOM     13  C   UNL     1      -8.866  -4.956   0.013  0.00  0.00    +0.041 A 
ATOM     14  C   UNL     1      -7.482  -5.022   0.006  0.00  0.00    +0.020 A 
ATOM     15  C   UNL     1      -6.733  -3.865   0.009  0.00  0.00    +0.012 A 
ATOM     16 CL   UNL     1      -9.802  -6.418   0.009  0.00  0.00    -0.084 Cl
ENDBRANCH   8  10
ENDBRANCH   2   6
ENDBRANCH   1   2
BRANCH   1  17
ATOM     17  C   UNL     1      -1.330   1.944   0.019  0.00  0.00    +0.328 C 
BRANCH  17  18
ATOM     18  C   UNL     1      -0.014   1.209   0.009  0.00  0.00    +0.255 C 
ATOM     19  O   UNL     1       0.002  -0.004   0.002  0.00  0.00    -0.272 OA
ATOM     20  N   UNL     1       1.143   1.898   0.001  0.00  0.00    -0.277 N 
ATOM     21  H   UNL     1       1.130   2.868   0.007  0.00  0.00    +0.155 HD
BRANCH  20  22
ATOM     22  C   UNL     1       2.354   1.221  -0.014  0.00  0.00    +0.084 A 
ATOM     23  C   UNL     1       3.639   1.750  -0.029  0.00  0.00    +0.065 A 
ATOM     24  C   UNL     1       4.730   0.805  -0.038  0.00  0.00    +0.022 A 
ATOM     25  C   UNL     1       4.410  -0.501  -0.043  0.00  0.00    +0.048 A 
ATOM     26  S   UNL     1       2.630  -0.488  -0.026  0.00  0.00    -0.081 S 
BRANCH  23  27
ATOM     27  C   UNL     1       3.875   3.198  -0.031  0.00  0.00    +0.244 C 
ATOM     28  O   UNL     1       2.932   3.968  -0.019  0.00  0.00    -0.270 OA
ATOM     29  N   UNL     1       5.135   3.675  -0.046  0.00  0.00    -0.325 N 
ATOM     30  H   UNL     1       5.886   3.061  -0.055  0.00  0.00    +0.145 HD
ATOM     31  H   UNL     1       5.291   4.632  -0.047  0.00  0.00    +0.145 HD
ENDBRANCH  23  27
ENDBRANCH  20  22
ENDBRANCH  17  18
ENDBRANCH   1  17
TORSDOF 7
