REMARK  Name = ZINC43743395
REMARK  11 active torsions:
REMARK  status: ('A' for Active; 'I' for Inactive)
REMARK    1  A    between atoms: C_1  and  C_2
REMARK    2  A    between atoms: C_2  and  C_3
REMARK    3  A    between atoms: C_3  and  O_5
REMARK    4  A    between atoms: O_5  and  C_6
REMARK    5  A    between atoms: C_9  and  C_36
REMARK    6  A    between atoms: C_13  and  C_21
REMARK    7  A    between atoms: C_15  and  C_16
REMARK    8  A    between atoms: C_15  and  O_20
REMARK    9  A    between atoms: C_16  and  C_18
REMARK   10  A    between atoms: C_18  and  O_19
REMARK   11  A    between atoms: C_25  and  C_34
REMARK                            x       y       z     vdW  Elec       q    Type
REMARK                         _______ _______ _______ _____ _____    ______ ____
ROOT
ATOM      1  C   UNL     1      -3.098  -2.563   0.229  0.00  0.00    +0.215 C 
ATOM      2  C   UNL     1      -3.468  -2.518  -1.262  0.00  0.00    +0.058 C 
ATOM      3  C   UNL     1      -4.936  -2.885  -1.371  0.00  0.00    +0.011 C 
ATOM      4  C   UNL     1      -5.075  -4.357  -0.899  0.00  0.00    +0.005 C 
ATOM      5  C   UNL     1      -6.501  -4.694  -1.348  0.00  0.00    +0.011 C 
ATOM      6  C   UNL     1      -6.585  -4.043  -2.756  0.00  0.00    +0.026 C 
ATOM      7  C   UNL     1      -5.528  -2.911  -2.777  0.00  0.00    +0.134 C 
ATOM      8  C   UNL     1      -7.982  -3.462  -2.983  0.00  0.00    +0.011 C 
ATOM      9  C   UNL     1      -4.818  -4.374   0.597  0.00  0.00    +0.035 C 
ATOM     10  C   UNL     1      -3.381  -3.933   0.838  0.00  0.00    +0.163 C 
ATOM     11  C   UNL     1      -3.122  -3.880   2.347  0.00  0.00    +0.045 C 
ATOM     12  C   UNL     1      -1.727  -3.437   2.627  0.00  0.00    -0.009 C 
ATOM     13  C   UNL     1      -0.879  -4.102   3.397  0.00  0.00    +0.047 C 
ATOM     14  C   UNL     1      -1.297  -5.364   4.029  0.00  0.00    +0.179 C 
ATOM     15  O   UNL     1      -0.546  -5.967   4.772  0.00  0.00    -0.288 OA
ATOM     16  C   UNL     1      -2.644  -5.881   3.740  0.00  0.00    +0.051 C 
ATOM     17  C   UNL     1      -3.475  -5.202   2.961  0.00  0.00    -0.053 C 
ATOM     18  C   UNL     1      -4.842  -5.786   2.662  0.00  0.00    +0.032 C 
ATOM     19  C   UNL     1      -5.043  -5.783   1.148  0.00  0.00    +0.011 C 
ATOM     20  C   UNL     1      -4.056  -2.824   2.942  0.00  0.00    +0.023 C 
ATOM     21  F   UNL     1      -2.516  -4.876   0.273  0.00  0.00    -0.237 F 
ATOM     22  C   UNL     1      -5.768  -1.967  -0.475  0.00  0.00    +0.015 C 
ENDROOT
BRANCH   7  23
ATOM     23  C   UNL     1      -4.455  -3.217  -3.790  0.00  0.00    +0.190 C 
ATOM     24  O   UNL     1      -3.510  -3.903  -3.480  0.00  0.00    -0.292 OA
BRANCH  23  25
ATOM     25  C   UNL     1      -4.561  -2.668  -5.189  0.00  0.00    +0.233 C 
BRANCH  25  26
ATOM     26  O   UNL     1      -3.432  -3.095  -5.955  0.00  0.00    -0.387 OA
ATOM     27  H   UNL     1      -3.434  -2.777  -6.869  0.00  0.00    +0.210 HD
ENDBRANCH  25  26
ENDBRANCH  23  25
ENDBRANCH   7  23
BRANCH   7  28
ATOM     28  O   UNL     1      -6.149  -1.659  -3.075  0.00  0.00    -0.380 OA
ATOM     29  H   UNL     1      -6.543  -1.616  -3.957  0.00  0.00    +0.211 HD
ENDBRANCH   7  28
BRANCH   1  30
ATOM     30  O   UNL     1      -1.708  -2.268   0.373  0.00  0.00    -0.458 OA
BRANCH  30  31
ATOM     31  C   UNL     1      -1.371  -0.976   0.512  0.00  0.00    +0.307 C 
ATOM     32  O   UNL     1      -2.228  -0.124   0.510  0.00  0.00    -0.251 OA
BRANCH  31  34
ATOM     33  C   UNL     1       0.185   0.933   0.807  0.00  0.00    +0.015 C 
ATOM     34  C   UNL     1       0.077  -0.587   0.669  0.00  0.00    +0.117 C 
ENDBRANCH  31  34
ENDBRANCH  30  31
ENDBRANCH   1  30
TORSDOF 7
