REMARK  Name = ZINC45281884
REMARK  6 active torsions:
REMARK  status: ('A' for Active; 'I' for Inactive)
REMARK    1  A    between atoms: C_4  and  C_7
REMARK    2  A    between atoms: C_7  and  C_8
REMARK    3  A    between atoms: C_7  and  C_18
REMARK    4  A    between atoms: C_7  and  N_21
REMARK    5  A    between atoms: C_8  and  N_9
REMARK    6  A    between atoms: N_12  and  C_15
REMARK                            x       y       z     vdW  Elec       q    Type
REMARK                         _______ _______ _______ _____ _____    ______ ____
ROOT
ATOM      1  C   UNL     1       3.222  -1.311   2.006  0.00  0.00    +0.132 C 
ENDROOT
BRANCH   1   5
ATOM      2  C   UNL     1      -0.808   0.098   1.883  0.00  0.00    +0.000 A 
ATOM      3  C   UNL     1      -0.299  -0.438   3.051  0.00  0.00    +0.000 A 
ATOM      4  C   UNL     1       1.005  -0.893   3.091  0.00  0.00    +0.006 A 
ATOM      5  C   UNL     1       1.800  -0.815   1.962  0.00  0.00    -0.018 A 
ATOM      6  C   UNL     1       1.290  -0.280   0.794  0.00  0.00    +0.006 A 
ATOM      7  C   UNL     1      -0.014   0.177   0.754  0.00  0.00    +0.000 A 
ENDBRANCH   1   5
BRANCH   1   8
ATOM      8  C   UNL     1       4.135  -0.185   2.420  0.00  0.00    +0.236 C 
ATOM      9  O   UNL     1       4.692   0.485   1.576  0.00  0.00    -0.274 OA
ATOM     10  N   UNL     1       4.331   0.077   3.727  0.00  0.00    -0.327 N 
ATOM     11  H   UNL     1       3.885  -0.458   4.402  0.00  0.00    +0.145 HD
ATOM     12  H   UNL     1       4.918   0.802   3.993  0.00  0.00    +0.145 HD
ENDBRANCH   1   8
BRANCH   1  13
ATOM     13  N   UNL     1       3.328  -2.409   2.977  0.00  0.00    -0.313 NA
ATOM     14  H   UNL     1       3.127  -2.086   3.911  0.00  0.00    +0.119 HD
ATOM     15  H   UNL     1       2.725  -3.176   2.721  0.00  0.00    +0.119 HD
ENDBRANCH   1  13
BRANCH   1  16
ATOM     16  C   UNL     1       3.630  -1.815   0.620  0.00  0.00    +0.120 C 
BRANCH  16  17
ATOM     17  N   UNL     1       5.043  -2.215   0.640  0.00  0.00    -0.303 NA
ATOM     18  C   UNL     1       5.607  -2.227  -0.717  0.00  0.00    +0.066 C 
ATOM     19  C   UNL     1       7.092  -2.590  -0.646  0.00  0.00    -0.063 C 
ATOM     20  N   UNL     1       7.243  -3.911  -0.023  0.00  0.00    +0.383 N 
ATOM     21  C   UNL     1       6.698  -3.877   1.340  0.00  0.00    -0.063 C 
ATOM     22  C   UNL     1       5.210  -3.525   1.286  0.00  0.00    +0.066 C 
ATOM     23  H   UNL     1       6.745  -4.599  -0.567  0.00  0.00    -0.081 HD
BRANCH  20  24
ATOM     24  C   UNL     1       8.668  -4.268   0.028  0.00  0.00    -0.069 C 
ATOM     25  C   UNL     1       9.142  -5.415  -0.866  0.00  0.00    -0.017 C 
ATOM     26  C   UNL     1       9.036  -5.617   0.647  0.00  0.00    -0.017 C 
ENDBRANCH  20  24
ENDBRANCH  16  17
ENDBRANCH   1  16
TORSDOF 6
