REMARK  Name = ZINC52096674
REMARK  8 active torsions:
REMARK  status: ('A' for Active; 'I' for Inactive)
REMARK    1  A    between atoms: C_1  and  C_2
REMARK    2  A    between atoms: C_5  and  C_18
REMARK    3  A    between atoms: C_7  and  N_8
REMARK    4  A    between atoms: N_8  and  S_9
REMARK    5  A    between atoms: S_9  and  C_12
REMARK    6  A    between atoms: N_14  and  C_17
REMARK    7  A    between atoms: C_19  and  C_20
REMARK    8  A    between atoms: C_20  and  N_21
REMARK                            x       y       z     vdW  Elec       q    Type
REMARK                         _______ _______ _______ _____ _____    ______ ____
ROOT
ATOM      1  C   UNL     1      -0.018   1.503   0.010  0.00  0.00    +0.046 C 
ATOM      2  C   UNL     1       0.002  -0.004   0.002  0.00  0.00    -0.026 A 
ATOM      3  C   UNL     1       0.006  -0.686  -1.200  0.00  0.00    +0.006 A 
ATOM      4  C   UNL     1       0.024  -2.066  -1.216  0.00  0.00    +0.017 A 
ATOM      5  C   UNL     1       0.040  -2.778  -0.015  0.00  0.00    +0.027 A 
ATOM      6  C   UNL     1       0.036  -2.090   1.198  0.00  0.00    +0.043 A 
ATOM      7  C   UNL     1       0.023  -0.703   1.203  0.00  0.00    +0.078 A 
ENDROOT
BRANCH   5   8
ATOM      8  C   UNL     1       0.058  -4.210  -0.028  0.00  0.00    -0.068 C 
ATOM      9  C   UNL     1       0.073  -5.383  -0.040  0.00  0.00    -0.117 C 
BRANCH   9  10
ATOM     10  C   UNL     1       0.092  -6.855  -0.053  0.00  0.00    +0.005 C 
BRANCH  10  11
ATOM     11  N   UNL     1       0.106  -7.358   1.327  0.00  0.00    +0.385 N 
ATOM     12  H   UNL     1       0.928  -7.015   1.802  0.00  0.00    -0.089 HD
ATOM     13  H   UNL     1      -0.720  -7.037   1.810  0.00  0.00    -0.089 HD
ATOM     14  H   UNL     1       0.119  -8.367   1.317  0.00  0.00    -0.089 HD
ENDBRANCH  10  11
ENDBRANCH   9  10
ENDBRANCH   5   8
BRANCH   7  15
ATOM     15  N   UNL     1       0.025  -0.009   2.415  0.00  0.00    -0.096 NA
BRANCH  15  16
ATOM     16  S   UNL     1       0.050  -0.842   3.846  0.00  0.00    +0.108 S 
ATOM     17  O   UNL     1      -1.185  -1.540   3.932  0.00  0.00    -0.147 OA
ATOM     18  O   UNL     1       1.305  -1.506   3.908  0.00  0.00    -0.147 OA
BRANCH  16  19
ATOM     19  C   UNL     1       0.046   0.350   5.144  0.00  0.00    +0.195 A 
ATOM     20  C   UNL     1       1.133   0.905   5.712  0.00  0.00    +0.134 A 
ATOM     21  N   UNL     1       0.681   1.772   6.669  0.00  0.00    -0.340 N 
ATOM     22  C   UNL     1      -0.668   1.718   6.652  0.00  0.00    +0.175 A 
ATOM     23  N   UNL     1      -1.041   0.869   5.734  0.00  0.00    -0.330 N 
ATOM     24  C   UNL     1       1.506   2.605   7.548  0.00  0.00    +0.150 C 
ATOM     25  H   UNL     1      -1.959   0.647   5.514  0.00  0.00    +0.168 HD
ENDBRANCH  16  19
ENDBRANCH  15  16
ENDBRANCH   7  15
TORSDOF 6
