REMARK  Name = ZINC18163483
REMARK  9 active torsions:
REMARK  status: ('A' for Active; 'I' for Inactive)
REMARK    1  A    between atoms: C_1  and  C_2
REMARK    2  A    between atoms: C_2  and  N_3
REMARK    3  A    between atoms: N_3  and  C_4
REMARK    4  A    between atoms: N_3  and  C_7
REMARK    5  A    between atoms: C_4  and  C_5
REMARK    6  A    between atoms: C_5  and  O_6
REMARK    7  A    between atoms: C_10  and  N_13
REMARK    8  A    between atoms: N_13  and  C_14
REMARK    9  A    between atoms: N_21  and  C_24
REMARK                            x       y       z     vdW  Elec       q    Type
REMARK                         _______ _______ _______ _____ _____    ______ ____
ROOT
ATOM      1  C   UNL     1       6.889  -1.098  -0.145  0.00  0.00    +0.090 C 
ATOM      2  C   UNL     1       8.268  -1.210  -0.165  0.00  0.00    +0.113 C 
ATOM      3  C   UNL     1       9.016  -1.705   1.005  0.00  0.00    +0.256 C 
ATOM      4  O   UNL     1       8.437  -2.030   2.025  0.00  0.00    -0.270 OA
ATOM      5  N   UNL     1      10.359  -1.788   0.914  0.00  0.00    -0.263 N 
ATOM      6  C   UNL     1      11.009  -1.433  -0.203  0.00  0.00    +0.151 C 
ATOM      7  S   UNL     1      12.715  -1.571  -0.228  0.00  0.00    -0.018 S 
ATOM      8  N   UNL     1      10.393  -0.975  -1.303  0.00  0.00    -0.215 N 
ATOM      9  C   UNL     1       9.052  -0.846  -1.358  0.00  0.00    +0.263 C 
ATOM     10  O   UNL     1       8.505  -0.435  -2.364  0.00  0.00    -0.269 OA
ATOM     11  H   UNL     1      10.866  -2.111   1.675  0.00  0.00    +0.157 HD
ENDROOT
BRANCH   8  12
ATOM     12  C   UNL     1      11.162  -0.629  -2.423  0.00  0.00    +0.078 A 
ATOM     13  C   UNL     1      11.441  -1.579  -3.396  0.00  0.00    +0.027 A 
ATOM     14  C   UNL     1      12.198  -1.235  -4.499  0.00  0.00    +0.002 A 
ATOM     15  C   UNL     1      12.678   0.055  -4.636  0.00  0.00    +0.003 A 
ATOM     16  C   UNL     1      12.402   1.005  -3.670  0.00  0.00    +0.040 A 
ATOM     17  C   UNL     1      11.640   0.669  -2.566  0.00  0.00    +0.145 A 
ATOM     18  F   UNL     1      11.365   1.599  -1.625  0.00  0.00    -0.204 F 
ENDBRANCH   8  12
BRANCH   1  19
ATOM     19  N   UNL     1       6.215  -1.276   1.009  0.00  0.00    -0.320 N 
ATOM     20  H   UNL     1       6.698  -1.451   1.832  0.00  0.00    +0.152 HD
BRANCH  19  24
ATOM     21  C   UNL     1       2.051  -1.067   1.043  0.00  0.00    +0.030 A 
ATOM     22  C   UNL     1       2.743  -1.319   2.221  0.00  0.00    +0.025 A 
ATOM     23  C   UNL     1       4.122  -1.388   2.209  0.00  0.00    +0.025 A 
ATOM     24  C   UNL     1       4.817  -1.206   1.021  0.00  0.00    +0.031 A 
ATOM     25  C   UNL     1       4.124  -0.954  -0.157  0.00  0.00    +0.025 A 
ATOM     26  C   UNL     1       2.746  -0.889  -0.146  0.00  0.00    +0.025 A 
BRANCH  21  27
ATOM     27  N   UNL     1       0.654  -0.997   1.055  0.00  0.00    -0.328 N 
BRANCH  27  29
ATOM     28  C   UNL     1      -0.258   0.772  -0.366  0.00  0.00    +0.024 C 
ATOM     29  C   UNL     1      -0.076  -0.736  -0.188  0.00  0.00    +0.102 C 
ENDBRANCH  27  29
BRANCH  27  30
ATOM     30  C   UNL     1      -0.078  -1.184   2.309  0.00  0.00    +0.133 C 
BRANCH  30  31
ATOM     31  C   UNL     1      -0.406  -2.668   2.492  0.00  0.00    +0.174 C 
BRANCH  31  32
ATOM     32  O   UNL     1       0.806  -3.408   2.648  0.00  0.00    -0.393 OA
ATOM     33  H   UNL     1       0.674  -4.358   2.768  0.00  0.00    +0.209 HD
ENDBRANCH  31  32
ENDBRANCH  30  31
ENDBRANCH  27  30
ENDBRANCH  21  27
ENDBRANCH  19  24
ENDBRANCH   1  19
TORSDOF 8
