REMARK  Name = ZINC63572190
REMARK  6 active torsions:
REMARK  status: ('A' for Active; 'I' for Inactive)
REMARK    1  A    between atoms: C_1  and  C_2
REMARK    2  A    between atoms: C_2  and  C_3
REMARK    3  A    between atoms: C_8  and  N_9
REMARK    4  A    between atoms: C_25  and  C_27
REMARK    5  A    between atoms: C_30  and  O_33
REMARK    6  A    between atoms: O_33  and  C_34
REMARK                            x       y       z     vdW  Elec       q    Type
REMARK                         _______ _______ _______ _____ _____    ______ ____
ROOT
ATOM      1  N   UNL     1       3.084  -1.985   0.420  0.00  0.00    -0.269 N 
ATOM      2  C   UNL     1       4.369  -1.605   0.275  0.00  0.00    +0.307 C 
ATOM      3  O   UNL     1       4.980  -1.902  -0.734  0.00  0.00    -0.252 OA
ATOM      4  N   UNL     1       4.976  -0.897   1.247  0.00  0.00    -0.276 N 
ATOM      5  C   UNL     1       4.283  -0.669   2.519  0.00  0.00    +0.114 C 
ATOM      6  C   UNL     1       4.169   0.845   2.776  0.00  0.00    +0.052 C 
ATOM      7  C   UNL     1       5.522   1.439   2.473  0.00  0.00    -0.035 C 
ATOM      8  C   UNL     1       6.313   2.231   3.185  0.00  0.00    +0.001 A 
ATOM      9  C   UNL     1       6.114   2.907   4.478  0.00  0.00    +0.030 A 
ATOM     10  C   UNL     1       7.162   3.643   4.937  0.00  0.00    +0.042 A 
ATOM     11  C   UNL     1       8.372   3.773   4.246  0.00  0.00    +0.022 A 
ATOM     12  C   UNL     1       8.637   3.194   3.049  0.00  0.00    +0.027 A 
ATOM     13  C   UNL     1       7.609   2.401   2.461  0.00  0.00    +0.043 A 
ATOM     14  N   UNL     1       7.584   1.761   1.329  0.00  0.00    -0.375 N 
ATOM     15  C   UNL     1       6.258   1.162   1.167  0.00  0.00    +0.131 C 
ATOM     16  C   UNL     1       6.330  -0.366   1.023  0.00  0.00    +0.134 C 
ATOM     17 CL   UNL     1       6.988   4.465   6.456  0.00  0.00    -0.084 Cl
ATOM     18  H   UNL     1       2.572  -1.682   1.186  0.00  0.00    +0.156 HD
ATOM     19  H   UNL     1       8.318   1.692   0.700  0.00  0.00    +0.160 HD
ENDROOT
BRANCH   1  25
ATOM     20  C   UNL     1       1.445  -3.659  -0.170  0.00  0.00    -0.026 A 
ATOM     21  C   UNL     1       0.855  -4.474  -1.116  0.00  0.00    +0.005 A 
ATOM     22  C   UNL     1       1.306  -4.458  -2.423  0.00  0.00    +0.000 A 
ATOM     23  C   UNL     1       2.348  -3.625  -2.788  0.00  0.00    +0.002 A 
ATOM     24  C   UNL     1       2.942  -2.808  -1.847  0.00  0.00    +0.023 A 
ATOM     25  C   UNL     1       2.488  -2.817  -0.534  0.00  0.00    +0.038 A 
BRANCH  20  27
ATOM     26  C   UNL     1      -0.073  -2.560   1.454  0.00  0.00    +0.009 C 
ATOM     27  C   UNL     1       0.954  -3.677   1.254  0.00  0.00    +0.033 C 
ENDBRANCH  20  27
ENDBRANCH   1  25
BRANCH  16  28
ATOM     28  C   UNL     1       6.799  -0.730  -0.362  0.00  0.00    -0.024 A 
ATOM     29  C   UNL     1       6.140  -0.224  -1.468  0.00  0.00    +0.009 A 
ATOM     30  C   UNL     1       6.567  -0.556  -2.739  0.00  0.00    +0.046 A 
ATOM     31  C   UNL     1       7.658  -1.397  -2.906  0.00  0.00    +0.120 A 
ATOM     32  C   UNL     1       8.317  -1.903  -1.794  0.00  0.00    +0.046 A 
ATOM     33  C   UNL     1       7.889  -1.563  -0.525  0.00  0.00    +0.009 A 
BRANCH  31  34
ATOM     34  O   UNL     1       8.079  -1.726  -4.155  0.00  0.00    -0.495 OA
ATOM     35  C   UNL     1       9.209  -2.596  -4.251  0.00  0.00    +0.277 C 
ENDBRANCH  31  34
ENDBRANCH  16  28
TORSDOF 4
