REMARK  Name = ZINC55088633
REMARK  5 active torsions:
REMARK  status: ('A' for Active; 'I' for Inactive)
REMARK    1  A    between atoms: C_4  and  N_21
REMARK    2  A    between atoms: C_6  and  C_9
REMARK    3  A    between atoms: N_11  and  C_12
REMARK    4  A    between atoms: N_11  and  C_16
REMARK    5  A    between atoms: C_12  and  C_13
REMARK                            x       y       z     vdW  Elec       q    Type
REMARK                         _______ _______ _______ _____ _____    ______ ____
ROOT
ATOM      1  C   UNL     1       0.626  -1.937  -1.119  0.00  0.00    +0.218 C 
ATOM      2  O   UNL     1       1.717  -2.461  -1.030  0.00  0.00    -0.275 OA
ATOM      3  N   UNL     1      -0.484  -2.699  -1.170  0.00  0.00    -0.289 N 
ENDROOT
BRANCH   1   8
ATOM      4  C   UNL     1      -0.247   1.599   0.060  0.00  0.00    +0.001 C 
ATOM      5  C   UNL     1       1.147   2.210  -0.088  0.00  0.00    -0.002 C 
ATOM      6  C   UNL     1       1.794   1.700  -1.377  0.00  0.00    -0.016 C 
ATOM      7  C   UNL     1       1.909   0.175  -1.322  0.00  0.00    -0.063 C 
ATOM      8  C   UNL     1       0.514  -0.436  -1.174  0.00  0.00    +0.061 C 
ATOM      9  C   UNL     1      -0.133   0.074   0.115  0.00  0.00    +0.011 C 
BRANCH   7  10
ATOM     10  N   UNL     1       2.529  -0.314  -2.560  0.00  0.00    +0.380 N 
ATOM     11  H   UNL     1       3.449   0.089  -2.657  0.00  0.00    -0.090 HD
ATOM     12  H   UNL     1       2.605  -1.320  -2.523  0.00  0.00    -0.090 HD
ATOM     13  H   UNL     1       1.960  -0.048  -3.349  0.00  0.00    -0.090 HD
ENDBRANCH   7  10
ENDBRANCH   1   8
BRANCH   3  14
ATOM     14  C   UNL     1      -1.794  -2.072  -1.366  0.00  0.00    +0.077 C 
ATOM     15  C   UNL     1      -2.414  -2.547  -2.696  0.00  0.00    +0.022 C 
ATOM     16  C   UNL     1      -3.338  -3.721  -2.286  0.00  0.00    +0.002 C 
ATOM     17  C   UNL     1      -3.932  -3.234  -0.941  0.00  0.00    +0.002 C 
ATOM     18  C   UNL     1      -2.760  -2.509  -0.250  0.00  0.00    +0.022 C 
ENDBRANCH   3  14
BRANCH   3  19
ATOM     19  C   UNL     1      -0.382  -4.154  -1.029  0.00  0.00    +0.203 C 
BRANCH  19  20
ATOM     20  C   UNL     1      -0.430  -4.521   0.432  0.00  0.00    +0.228 C 
ATOM     21  O   UNL     1      -0.575  -3.657   1.270  0.00  0.00    -0.274 OA
ATOM     22  N   UNL     1      -0.311  -5.811   0.806  0.00  0.00    -0.328 N 
ATOM     23  H   UNL     1      -0.195  -6.502   0.135  0.00  0.00    +0.145 HD
ATOM     24  H   UNL     1      -0.342  -6.048   1.746  0.00  0.00    +0.145 HD
ENDBRANCH  19  20
ENDBRANCH   3  19
TORSDOF 5
