REMARK  Name = ZINC09420255
REMARK  5 active torsions:
REMARK  status: ('A' for Active; 'I' for Inactive)
REMARK    1  A    between atoms: C_1  and  O_2
REMARK    2  A    between atoms: O_2  and  C_3
REMARK    3  A    between atoms: C_8  and  C_9
REMARK    4  A    between atoms: N_11  and  N_12
REMARK    5  A    between atoms: C_16  and  C_17
REMARK                            x       y       z     vdW  Elec       q    Type
REMARK                         _______ _______ _______ _____ _____    ______ ____
ROOT
ATOM      1  N   UNL     1       4.670   8.240  -1.109  0.00  0.00    -0.169 N 
ATOM      2  C   UNL     1       3.672   7.390  -0.931  0.00  0.00    +0.275 C 
ATOM      3  O   UNL     1       3.820   6.191  -1.081  0.00  0.00    -0.267 OA
ATOM      4  C   UNL     1       2.372   7.967  -0.547  0.00  0.00    +0.078 C 
ATOM      5  C   UNL     1       1.182   7.344  -0.302  0.00  0.00    +0.027 C 
ATOM      6  S   UNL     1       2.783   9.706  -0.480  0.00  0.00    -0.060 S 
ATOM      7  C   UNL     1       4.504   9.567  -0.936  0.00  0.00    +0.138 C 
ATOM      8  S   UNL     1       5.663  10.815  -1.109  0.00  0.00    -0.026 S 
ENDROOT
BRANCH   5   9
ATOM      9  C   UNL     1       1.112   5.938  -0.294  0.00  0.00    -0.009 C 
ATOM     10  C   UNL     1       1.912   5.218   0.539  0.00  0.00    +0.018 C 
ATOM     11  C   UNL     1       1.811   3.752   0.490  0.00  0.00    +0.017 A 
ATOM     12  C   UNL     1       2.327   2.953   1.510  0.00  0.00    +0.011 A 
ATOM     13  C   UNL     1       2.205   1.581   1.426  0.00  0.00    +0.001 A 
ATOM     14  C   UNL     1       1.584   1.000   0.332  0.00  0.00    +0.004 A 
ATOM     15  C   UNL     1       1.069   1.783  -0.685  0.00  0.00    +0.046 A 
ATOM     16  C   UNL     1       1.177   3.160  -0.616  0.00  0.00    +0.128 A 
ATOM     17  O   UNL     1       0.682   3.955  -1.597  0.00  0.00    -0.487 OA
ATOM     18  C   UNL     1       0.151   5.223  -1.208  0.00  0.00    +0.264 C 
ENDBRANCH   5   9
BRANCH   1  21
ATOM     19  C   UNL     1       6.923   7.688  -0.573  0.00  0.00    +0.264 C 
ATOM     20  O   UNL     1       6.727   8.058   0.569  0.00  0.00    -0.269 OA
ATOM     21  N   UNL     1       5.929   7.749  -1.481  0.00  0.00    -0.222 N 
ATOM     22  H   UNL     1       6.085   7.454  -2.392  0.00  0.00    +0.174 HD
BRANCH  19  28
ATOM     23  C   UNL     1       9.285   7.106  -0.023  0.00  0.00    +0.132 A 
ATOM     24  C   UNL     1      10.527   6.619  -0.402  0.00  0.00    +0.046 A 
ATOM     25  C   UNL     1      10.740   6.201  -1.700  0.00  0.00    +0.004 A 
ATOM     26  C   UNL     1       9.718   6.264  -2.634  0.00  0.00    +0.001 A 
ATOM     27  C   UNL     1       8.476   6.740  -2.273  0.00  0.00    +0.017 A 
ATOM     28  C   UNL     1       8.249   7.172  -0.964  0.00  0.00    +0.080 A 
BRANCH  23  30
ATOM     29  C   UNL     1      10.178   7.421   2.155  0.00  0.00    +0.277 C 
ATOM     30  O   UNL     1       9.074   7.517   1.252  0.00  0.00    -0.494 OA
ENDBRANCH  23  30
ENDBRANCH  19  28
ENDBRANCH   1  21
TORSDOF 4
