REMARK  Name = ZINC62551249
REMARK  3 active torsions:
REMARK  status: ('A' for Active; 'I' for Inactive)
REMARK    1  A    between atoms: C_7  and  C_11
REMARK    2  A    between atoms: C_11  and  C_12
REMARK    3  A    between atoms: C_17  and  O_26
REMARK                            x       y       z     vdW  Elec       q    Type
REMARK                         _______ _______ _______ _____ _____    ______ ____
ROOT
ATOM      1  C   UNL     1       0.242  -3.584  -1.434  0.00  0.00    +0.224 C 
ATOM      2  O   UNL     1       0.635  -3.378  -0.305  0.00  0.00    -0.275 OA
ATOM      3  N   UNL     1      -0.678  -4.542  -1.663  0.00  0.00    -0.271 N 
ATOM      4  C   UNL     1      -1.098  -4.861  -3.034  0.00  0.00    +0.116 C 
ATOM      5  C   UNL     1      -2.627  -4.987  -3.038  0.00  0.00    +0.055 C 
ATOM      6  C   UNL     1      -3.029  -6.157  -2.141  0.00  0.00    +0.148 C 
ATOM      7  C   UNL     1      -2.378  -6.033  -0.788  0.00  0.00    +0.004 A 
ATOM      8  C   UNL     1      -1.246  -5.255  -0.597  0.00  0.00    +0.042 A 
ATOM      9  C   UNL     1      -0.663  -5.168   0.661  0.00  0.00    +0.025 A 
ATOM     10  C   UNL     1      -1.208  -5.860   1.725  0.00  0.00    +0.022 A 
ATOM     11  C   UNL     1      -2.336  -6.638   1.536  0.00  0.00    +0.041 A 
ATOM     12  C   UNL     1      -2.924  -6.718   0.283  0.00  0.00    +0.028 A 
ATOM     13 CL   UNL     1      -3.023  -7.508   2.872  0.00  0.00    -0.084 Cl
ENDROOT
BRANCH   6  14
ATOM     14  O   UNL     1      -4.449  -6.164  -1.981  0.00  0.00    -0.387 OA
ATOM     15  H   UNL     1      -4.779  -6.881  -1.422  0.00  0.00    +0.210 HD
ENDBRANCH   6  14
BRANCH   1  16
ATOM     16  C   UNL     1       0.784  -2.770  -2.580  0.00  0.00    +0.133 C 
BRANCH  16  23
ATOM     17  C   UNL     1       5.326  -2.705  -1.424  0.00  0.00    +0.001 A 
ATOM     18  C   UNL     1       5.750  -1.465  -0.966  0.00  0.00    +0.002 A 
ATOM     19  C   UNL     1       4.871  -0.408  -0.886  0.00  0.00    +0.026 A 
ATOM     20  C   UNL     1       3.545  -0.582  -1.268  0.00  0.00    +0.047 A 
ATOM     21  C   UNL     1       3.120  -1.840  -1.731  0.00  0.00    +0.003 A 
ATOM     22  C   UNL     1       4.028  -2.898  -1.804  0.00  0.00    +0.010 A 
ATOM     23  C   UNL     1       1.697  -1.696  -2.047  0.00  0.00    -0.014 A 
ATOM     24  C   UNL     1       1.360  -0.426  -1.771  0.00  0.00    +0.087 A 
ATOM     25  N   UNL     1       2.451   0.255  -1.304  0.00  0.00    -0.360 N 
ATOM     26  H   UNL     1       2.454   1.188  -1.039  0.00  0.00    +0.165 HD
ENDBRANCH  16  23
ENDBRANCH   1  16
TORSDOF 3
