REMARK  Name = ZINC40544744
REMARK  7 active torsions:
REMARK  status: ('A' for Active; 'I' for Inactive)
REMARK    1  A    between atoms: CD1_1  and  CG_2
REMARK    2  A    between atoms: CG_2  and  CD2_3
REMARK    3  A    between atoms: CG_2  and  CB_4
REMARK    4  A    between atoms: CB_4  and  CA_5
REMARK    5  A    between atoms: CA_5  and  C_7
REMARK    6  A    between atoms: CA_5  and  N_10
REMARK    7  A    between atoms: N_13  and  C_14
REMARK                            x       y       z     vdW  Elec       q    Type
REMARK                         _______ _______ _______ _____ _____    ______ ____
ROOT
ATOM      1  N   LEU A   1      -1.585   1.379  -1.424  0.00  0.00    -0.286 N 
ATOM      2  C   UNK A   0      -1.640   1.847  -2.687  0.00  0.00    +0.305 C 
ATOM      3  O   UNK A   0      -1.046   1.268  -3.576  0.00  0.00    -0.252 OA
ATOM      4  N   UNK A   0      -2.353   2.957  -2.963  0.00  0.00    -0.267 N 
ATOM      5  H   LEU A   1      -2.059   1.840  -0.715  0.00  0.00    +0.151 HD
ATOM      6  H   UNK A   0      -2.891   3.372  -2.272  0.00  0.00    +0.156 HD
ENDROOT
BRANCH   4   7
ATOM      7  C   UNK A   0      -2.318   3.510  -4.250  0.00  0.00    +0.072 A 
ATOM      8  C   UNK A   0      -2.588   2.715  -5.357  0.00  0.00    +0.065 A 
ATOM      9  C   UNK A   0      -2.552   3.263  -6.625  0.00  0.00    +0.042 A 
ATOM     10  C   UNK A   0      -2.247   4.602  -6.793  0.00  0.00    +0.044 A 
ATOM     11  C   UNK A   0      -1.976   5.396  -5.693  0.00  0.00    +0.042 A 
ATOM     12  C   UNK A   0      -2.017   4.855  -4.422  0.00  0.00    +0.065 A 
ATOM     13 CL   UNK A   0      -1.686   5.854  -3.041  0.00  0.00    -0.082 Cl
ATOM     14 CL   UNK A   0      -2.202   5.287  -8.388  0.00  0.00    -0.083 Cl
ATOM     15 CL   UNK A   0      -2.970   1.034  -5.147  0.00  0.00    -0.082 Cl
ENDBRANCH   4   7
BRANCH   1  16
ATOM     16  CA  LEU A   1      -0.810   0.172  -1.123  0.00  0.00    +0.188 C 
BRANCH  16  17
ATOM     17  C   LEU A   1      -1.656  -1.047  -1.385  0.00  0.00    +0.376 C 
ATOM     18  O   LEU A   1      -2.866  -0.990  -1.248  0.00  0.00    -0.244 OA
ATOM     19  OXT LEU A   1      -1.131  -2.090  -1.735  0.00  0.00    -0.244 OA
ENDBRANCH  16  17
BRANCH  16  20
ATOM     20  CB  LEU A   1      -0.386   0.192   0.346  0.00  0.00    +0.037 C 
BRANCH  20  22
ATOM     21  CD1 LEU A   1       0.873   1.474   2.083  0.00  0.00    +0.007 C 
ATOM     22  CG  LEU A   1       0.558   1.372   0.589  0.00  0.00    -0.015 C 
ATOM     23  CD2 LEU A   1       1.855   1.157  -0.193  0.00  0.00    +0.007 C 
ENDBRANCH  20  22
ENDBRANCH  16  20
ENDBRANCH   1  16
TORSDOF 5
