REMARK  Name = ZINC38598791
REMARK  4 active torsions:
REMARK  status: ('A' for Active; 'I' for Inactive)
REMARK    1  A    between atoms: C_1  and  C_2
REMARK    2  A    between atoms: C_4  and  C_25
REMARK    3  A    between atoms: C_28  and  S_31
REMARK    4  A    between atoms: S_31  and  C_32
REMARK                            x       y       z     vdW  Elec       q    Type
REMARK                         _______ _______ _______ _____ _____    ______ ____
ROOT
ATOM      1  C   UNL     1      -0.036   1.464  -0.287  0.00  0.00    +0.062 C 
ATOM      2  C   UNL     1      -0.041  -0.043  -0.297  0.00  0.00    +0.023 C 
ATOM      3  C   UNL     1      -1.118  -0.782  -0.069  0.00  0.00    +0.005 C 
ATOM      4  C   UNL     1      -2.473  -0.248   0.236  0.00  0.00    +0.108 C 
ATOM      5  S   UNL     1      -2.993  -0.609   1.923  0.00  0.00    -0.139 S 
ATOM      6  C   UNL     1      -3.224  -2.394   1.995  0.00  0.00    +0.165 C 
ATOM      7  C   UNL     1      -1.948  -3.130   1.791  0.00  0.00    +0.225 C 
ATOM      8  O   UNL     1      -1.817  -4.062   2.556  0.00  0.00    -0.275 OA
ATOM      9  N   UNL     1      -0.957  -3.004   0.993  0.00  0.00    -0.291 N 
ATOM     10  C   UNL     1      -0.692  -2.220  -0.176  0.00  0.00    +0.210 C 
ATOM     11  N   UNL     1       0.747  -2.177  -0.479  0.00  0.00    -0.213 N 
ATOM     12  N   UNL     1       1.073  -0.816  -0.551  0.00  0.00    -0.265 N 
ATOM     13  C   UNL     1       1.576  -3.226  -0.655  0.00  0.00    +0.150 C 
ATOM     14  N   UNL     1       1.137  -4.469  -0.570  0.00  0.00    -0.221 NA
ATOM     15  C   UNL     1       1.919  -5.539  -0.671  0.00  0.00    +0.225 C 
ATOM     16  N   UNL     1       3.239  -5.470  -0.547  0.00  0.00    -0.218 NA
ATOM     17  C   UNL     1       3.746  -4.252  -0.385  0.00  0.00    +0.164 C 
ATOM     18  N   UNL     1       4.776  -3.773   0.246  0.00  0.00    -0.219 NA
ATOM     19  C   UNL     1       4.669  -2.449   0.418  0.00  0.00    +0.218 C 
ATOM     20  N   UNL     1       3.659  -1.928  -0.221  0.00  0.00    -0.253 NA
ATOM     21  C   UNL     1       3.035  -3.026  -0.963  0.00  0.00    +0.239 C 
ATOM     22  H   UNL     1      -0.209  -3.572   1.236  0.00  0.00    +0.151 HD
ATOM     23  H   UNL     1       1.957  -0.467  -0.749  0.00  0.00    +0.170 HD
ENDROOT
BRANCH   4  24
ATOM     24  C   UNL     1      -2.463   1.246   0.041  0.00  0.00    -0.030 A 
ATOM     25  C   UNL     1      -2.740   1.781  -1.204  0.00  0.00    +0.006 A 
ATOM     26  C   UNL     1      -2.732   3.150  -1.387  0.00  0.00    +0.015 A 
ATOM     27  C   UNL     1      -2.446   3.990  -0.318  0.00  0.00    +0.008 A 
ATOM     28  C   UNL     1      -2.169   3.449   0.932  0.00  0.00    +0.015 A 
ATOM     29  C   UNL     1      -2.184   2.080   1.109  0.00  0.00    +0.006 A 
BRANCH  27  30
ATOM     30  S   UNL     1      -2.433   5.737  -0.546  0.00  0.00    -0.129 S 
ATOM     31  C   UNL     1      -2.019   6.392   1.094  0.00  0.00    +0.090 C 
ENDBRANCH  27  30
ENDBRANCH   4  24
TORSDOF 2
