REMARK  Name = ZINC44728802
REMARK  8 active torsions:
REMARK  status: ('A' for Active; 'I' for Inactive)
REMARK    1  A    between atoms: C_1  and  C_2
REMARK    2  A    between atoms: C_4  and  C_7
REMARK    3  A    between atoms: C_7  and  N_8
REMARK    4  A    between atoms: N_8  and  S_9
REMARK    5  A    between atoms: S_9  and  C_12
REMARK    6  A    between atoms: C_15  and  C_18
REMARK    7  A    between atoms: C_19  and  C_20
REMARK    8  A    between atoms: C_20  and  N_21
REMARK                            x       y       z     vdW  Elec       q    Type
REMARK                         _______ _______ _______ _____ _____    ______ ____
ROOT
ATOM      1  C   UNL     1      -3.933  -5.393  -1.056  0.00  0.00    +0.105 A 
ATOM      2  C   UNL     1      -4.164  -5.770   0.255  0.00  0.00    +0.030 A 
ATOM      3  C   UNL     1      -5.452  -5.805   0.748  0.00  0.00    +0.019 A 
ATOM      4  C   UNL     1      -6.522  -5.460  -0.079  0.00  0.00    +0.025 A 
ATOM      5  C   UNL     1      -6.282  -5.082  -1.400  0.00  0.00    +0.019 A 
ATOM      6  C   UNL     1      -4.989  -5.045  -1.879  0.00  0.00    +0.030 A 
ENDROOT
BRANCH   1   7
ATOM      7  S   UNL     1      -2.285  -5.350  -1.678  0.00  0.00    +0.059 S 
ATOM      8  O   UNL     1      -2.379  -5.486  -3.090  0.00  0.00    -0.153 OA
ATOM      9  O   UNL     1      -1.524  -6.244  -0.876  0.00  0.00    -0.153 OA
BRANCH   7  10
ATOM     10  N   UNL     1      -1.691  -3.832  -1.387  0.00  0.00    -0.184 NA
ATOM     11  H   UNL     1      -1.470  -3.247  -2.129  0.00  0.00    +0.148 HD
BRANCH  10  12
ATOM     12  C   UNL     1      -1.500  -3.372  -0.010  0.00  0.00    +0.164 C 
BRANCH  12  16
ATOM     13  C   UNL     1      -0.018   1.503   0.010  0.00  0.00    +0.089 C 
ATOM     14  C   UNL     1       0.002  -0.004   0.002  0.00  0.00    +0.135 A 
ATOM     15  C   UNL     1      -1.077  -0.810   0.003  0.00  0.00    +0.072 A 
ATOM     16  C   UNL     1      -0.627  -2.143  -0.007  0.00  0.00    +0.099 A 
ATOM     17  N   UNL     1       0.676  -2.130  -0.013  0.00  0.00    -0.082 NA
ATOM     18  O   UNL     1       1.098  -0.778  -0.013  0.00  0.00    -0.360 OA
ENDBRANCH  12  16
ENDBRANCH  10  12
ENDBRANCH   7  10
ENDBRANCH   1   7
BRANCH   4  19
ATOM     19  C   UNL     1      -7.862  -5.496   0.427  0.00  0.00    -0.068 C 
ATOM     20  C   UNL     1      -8.960  -5.524   0.841  0.00  0.00    -0.117 C 
BRANCH  20  21
ATOM     21  C   UNL     1     -10.337  -5.561   1.361  0.00  0.00    +0.005 C 
BRANCH  21  22
ATOM     22  N   UNL     1     -11.271  -5.157   0.301  0.00  0.00    +0.385 N 
ATOM     23  H   UNL     1     -12.214  -5.182   0.657  0.00  0.00    -0.089 HD
ATOM     24  H   UNL     1     -11.050  -4.220  -0.003  0.00  0.00    -0.089 HD
ATOM     25  H   UNL     1     -11.189  -5.792  -0.479  0.00  0.00    -0.089 HD
ENDBRANCH  21  22
ENDBRANCH  20  21
ENDBRANCH   4  19
TORSDOF 7
