REMARK  Name = ZINC40688340
REMARK  7 active torsions:
REMARK  status: ('A' for Active; 'I' for Inactive)
REMARK    1  A    between atoms: C_1  and  C_2
REMARK    2  A    between atoms: C_2  and  C_3
REMARK    3  A    between atoms: C_8  and  N_9
REMARK    4  A    between atoms: C_11  and  N_32
REMARK    5  A    between atoms: C_12  and  N_16
REMARK    6  A    between atoms: N_19  and  C_22
REMARK    7  A    between atoms: C_22  and  C_23
REMARK                            x       y       z     vdW  Elec       q    Type
REMARK                         _______ _______ _______ _____ _____    ______ ____
ROOT
ATOM      1  N   UNL     1       4.511  -3.000  -0.544  0.00  0.00    -0.298 N 
ATOM      2  C   UNL     1       5.135  -1.766  -0.395  0.00  0.00    +0.149 A 
ATOM      3  C   UNL     1       6.021  -1.543   0.661  0.00  0.00    +0.106 A 
ATOM      4  C   UNL     1       6.620  -0.286   0.764  0.00  0.00    +0.147 A 
ATOM      5  N   UNL     1       6.325   0.645  -0.140  0.00  0.00    -0.219 NA
ATOM      6  C   UNL     1       5.482   0.393  -1.121  0.00  0.00    +0.225 A 
ATOM      7  N   UNL     1       4.900  -0.781  -1.259  0.00  0.00    -0.219 NA
ATOM      8  H   UNL     1       4.760  -3.742   0.029  0.00  0.00    +0.154 HD
ENDROOT
BRANCH   4   9
ATOM      9  N   UNL     1       7.509  -0.011   1.796  0.00  0.00    -0.317 N 
ATOM     10  C   UNL     1       7.049   0.617   3.044  0.00  0.00    +0.088 C 
ATOM     11  C   UNL     1       7.957   1.813   3.349  0.00  0.00    -0.059 C 
ATOM     12  N   UNL     1       9.357   1.370   3.374  0.00  0.00    +0.384 N 
ATOM     13  C   UNL     1       9.756   0.900   2.042  0.00  0.00    -0.059 C 
ATOM     14  C   UNL     1       8.936  -0.346   1.674  0.00  0.00    +0.088 C 
ATOM     15  H   UNL     1       9.458   0.618   4.039  0.00  0.00    -0.081 HD
BRANCH  12  16
ATOM     16  C   UNL     1      10.217   2.491   3.774  0.00  0.00    -0.043 C 
BRANCH  16  17
ATOM     17  C   UNL     1      11.637   2.008   3.920  0.00  0.00    -0.060 A 
ATOM     18  C   UNL     1      12.081   1.528   5.137  0.00  0.00    +0.005 A 
ATOM     19  C   UNL     1      13.382   1.083   5.276  0.00  0.00    +0.050 A 
ATOM     20  C   UNL     1      14.246   1.119   4.193  0.00  0.00    +0.166 A 
ATOM     21  C   UNL     1      13.799   1.603   2.966  0.00  0.00    +0.166 A 
ATOM     22  C   UNL     1      12.491   2.042   2.833  0.00  0.00    +0.051 A 
ATOM     23  O   UNL     1      14.826   1.535   2.070  0.00  0.00    -0.453 OA
ATOM     24  C   UNL     1      16.019   1.388   2.863  0.00  0.00    +0.466 C 
ATOM     25  O   UNL     1      15.553   0.748   4.065  0.00  0.00    -0.453 OA
ENDBRANCH  16  17
ENDBRANCH  12  16
ENDBRANCH   4   9
BRANCH   1  31
ATOM     26  C   UNL     1       3.296  -4.428  -2.066  0.00  0.00    -0.026 A 
ATOM     27  C   UNL     1       2.318  -4.594  -3.026  0.00  0.00    +0.005 A 
ATOM     28  C   UNL     1       1.570  -3.510  -3.449  0.00  0.00    +0.000 A 
ATOM     29  C   UNL     1       1.799  -2.257  -2.912  0.00  0.00    +0.002 A 
ATOM     30  C   UNL     1       2.776  -2.083  -1.952  0.00  0.00    +0.023 A 
ATOM     31  C   UNL     1       3.526  -3.171  -1.521  0.00  0.00    +0.036 A 
BRANCH  26  33
ATOM     32  C   UNL     1       3.479  -6.203  -0.345  0.00  0.00    +0.009 C 
ATOM     33  C   UNL     1       4.111  -5.609  -1.605  0.00  0.00    +0.033 C 
ENDBRANCH  26  33
ENDBRANCH   1  31
BRANCH   3  34
ATOM     34  N   UNL     1       6.302  -2.555   1.593  0.00  0.00    -0.353 N 
ATOM     35  H   UNL     1       5.943  -3.447   1.463  0.00  0.00    +0.143 HD
ATOM     36  H   UNL     1       6.855  -2.362   2.366  0.00  0.00    +0.143 HD
ENDBRANCH   3  34
TORSDOF 6
