REMARK  Name = ZINC65146245
REMARK  6 active torsions:
REMARK  status: ('A' for Active; 'I' for Inactive)
REMARK    1  A    between atoms: C_4  and  C_7
REMARK    2  A    between atoms: C_7  and  C_8
REMARK    3  A    between atoms: C_14  and  C_16
REMARK    4  A    between atoms: N_18  and  N_19
REMARK    5  A    between atoms: N_22  and  C_23
REMARK    6  A    between atoms: C_23  and  C_24
REMARK                            x       y       z     vdW  Elec       q    Type
REMARK                         _______ _______ _______ _____ _____    ______ ____
ROOT
ATOM      1  C   UNL     1       7.729  -1.698   4.503  0.00  0.00    +0.234 C 
ATOM      2  O   UNL     1       8.726  -2.383   4.599  0.00  0.00    -0.274 OA
ATOM      3  N   UNL     1       7.095  -1.273   5.614  0.00  0.00    -0.233 N 
ATOM      4  H   UNL     1       6.298  -0.726   5.537  0.00  0.00    +0.173 HD
ENDROOT
BRANCH   1  11
ATOM      5  C   UNL     1       4.164  -0.959   1.377  0.00  0.00    +0.220 C 
ATOM      6  O   UNL     1       3.486  -0.579   2.308  0.00  0.00    -0.275 OA
ATOM      7  N   UNL     1       5.323  -1.607   1.608  0.00  0.00    -0.300 N 
ATOM      8  C   UNL     1       6.159  -2.069   0.491  0.00  0.00    +0.108 C 
ATOM      9  C   UNL     1       7.578  -1.525   0.679  0.00  0.00    +0.020 C 
ATOM     10  C   UNL     1       8.097  -1.931   2.061  0.00  0.00    +0.016 C 
ATOM     11  C   UNL     1       7.200  -1.325   3.143  0.00  0.00    +0.094 C 
ATOM     12  C   UNL     1       5.779  -1.861   2.982  0.00  0.00    +0.120 C 
BRANCH   5  13
ATOM     13  C   UNL     1       3.711  -0.707  -0.038  0.00  0.00    +0.131 C 
BRANCH  13  17
ATOM     14  C   UNL     1      -0.017   1.378   0.010  0.00  0.00    +0.000 A 
ATOM     15  C   UNL     1       1.171   2.086   0.002  0.00  0.00    +0.000 A 
ATOM     16  C   UNL     1       2.377   1.411  -0.013  0.00  0.00    +0.004 A 
ATOM     17  C   UNL     1       2.396   0.029  -0.020  0.00  0.00    -0.039 A 
ATOM     18  C   UNL     1       1.208  -0.679  -0.012  0.00  0.00    +0.004 A 
ATOM     19  C   UNL     1       0.002  -0.004   0.002  0.00  0.00    +0.000 A 
ENDBRANCH  13  17
ENDBRANCH   5  13
ENDBRANCH   1  11
BRANCH   3  20
ATOM     20  N   UNL     1       7.588  -1.620   6.878  0.00  0.00    -0.218 N 
ATOM     21  C   UNL     1       6.954  -1.194   7.989  0.00  0.00    +0.316 C 
ATOM     22  O   UNL     1       7.381  -1.496   9.086  0.00  0.00    -0.251 OA
ATOM     23  N   UNL     1       5.846  -0.434   7.882  0.00  0.00    -0.296 N 
ATOM     24  H   UNL     1       8.385  -2.167   6.955  0.00  0.00    +0.174 HD
ATOM     25  H   UNL     1       5.505  -0.194   7.007  0.00  0.00    +0.150 HD
BRANCH  23  26
ATOM     26  C   UNL     1       5.156   0.029   9.089  0.00  0.00    +0.137 C 
BRANCH  26  27
ATOM     27  C   UNL     1       3.939   0.866   8.692  0.00  0.00    +0.135 C 
ATOM     28  C   UNL     1       3.273   1.454   9.955  0.00  0.00    +0.035 C 
ATOM     29  C   UNL     1       1.762   1.326   9.620  0.00  0.00    +0.031 C 
ATOM     30  C   UNL     1       1.753   0.013   8.798  0.00  0.00    +0.160 C 
ATOM     31  O   UNL     1       2.971   0.037   8.038  0.00  0.00    -0.375 OA
ENDBRANCH  26  27
ENDBRANCH  23  26
ENDBRANCH   3  20
TORSDOF 6
