REMARK  Name = ZINC01631497
REMARK  2 active torsions:
REMARK  status: ('A' for Active; 'I' for Inactive)
REMARK    1  A    between atoms: N_5  and  C_6
REMARK    2  A    between atoms: C_10  and  O_14
REMARK                            x       y       z     vdW  Elec       q    Type
REMARK                         _______ _______ _______ _____ _____    ______ ____
ROOT
ATOM      1  C   UNL     1       2.844   3.388  -0.253  0.00  0.00    +0.202 A 
ATOM      2  N   UNL     1       1.550   3.299  -0.160  0.00  0.00    -0.231 NA
ATOM      3  C   UNL     1       1.205   2.021   0.140  0.00  0.00    +0.145 A 
ATOM      4  C   UNL     1       2.401   1.282   0.233  0.00  0.00    +0.167 A 
ATOM      5  N   UNL     1       3.415   2.171  -0.019  0.00  0.00    -0.308 N 
ATOM      6  N   UNL     1       2.339  -0.012   0.521  0.00  0.00    -0.195 NA
ATOM      7  C   UNL     1       1.170  -0.600   0.717  0.00  0.00    +0.216 A 
ATOM      8  N   UNL     1       0.023   0.063   0.636  0.00  0.00    -0.201 NA
ATOM      9  C   UNL     1      -0.004   1.355   0.355  0.00  0.00    +0.162 A 
ATOM     10 CL   UNL     1      -1.514   2.206   0.247  0.00  0.00    -0.060 Cl
ATOM     11  N   UNL     1       1.142  -1.952   1.015  0.00  0.00    -0.327 N 
ATOM     12  H   UNL     1       0.294  -2.400   1.161  0.00  0.00    +0.145 HD
ATOM     13  H   UNL     1       1.971  -2.452   1.077  0.00  0.00    +0.145 HD
ENDROOT
BRANCH   5  14
ATOM     14  C   UNL     1       4.848   1.869  -0.035  0.00  0.00    +0.113 C 
ATOM     15  C   UNL     1       5.524   2.554   1.155  0.00  0.00    +0.032 C 
ATOM     16  C   UNL     1       5.542   4.066   0.898  0.00  0.00    +0.038 C 
ATOM     17  C   UNL     1       6.479   4.346  -0.278  0.00  0.00    +0.137 C 
ATOM     18  C   UNL     1       6.152   3.439  -1.428  0.00  0.00    +0.002 C 
ATOM     19  C   UNL     1       5.446   2.359  -1.321  0.00  0.00    -0.004 C 
BRANCH  17  20
ATOM     20  O   UNL     1       6.329   5.706  -0.691  0.00  0.00    -0.388 OA
ATOM     21  H   UNL     1       6.902   5.959  -1.428  0.00  0.00    +0.210 HD
ENDBRANCH  17  20
ENDBRANCH   5  14
TORSDOF 2
