REMARK  Name = ZINC48747830
REMARK  4 active torsions:
REMARK  status: ('A' for Active; 'I' for Inactive)
REMARK    1  A    between atoms: C_1  and  C_2
REMARK    2  A    between atoms: C_7  and  C_11
REMARK    3  A    between atoms: C_11  and  N_12
REMARK    4  A    between atoms: C_13  and  C_15
REMARK                            x       y       z     vdW  Elec       q    Type
REMARK                         _______ _______ _______ _____ _____    ______ ____
ROOT
ATOM      1  C   UNL     1       0.088  -5.503   2.364  0.00  0.00    +0.161 C 
ENDROOT
BRANCH   1   8
ATOM      2  C   UNL     1      -0.018   1.503   0.010  0.00  0.00    +0.045 C 
ATOM      3  C   UNL     1       0.002  -0.004   0.002  0.00  0.00    -0.034 A 
ATOM      4  C   UNL     1       0.006  -0.697  -1.220  0.00  0.00    +0.008 A 
ATOM      5  C   UNL     1       0.025  -2.057  -1.224  0.00  0.00    +0.047 A 
ATOM      6  C   UNL     1       0.040  -2.750   0.003  0.00  0.00    +0.138 A 
ATOM      7  N   UNL     1       0.059  -4.043   0.297  0.00  0.00    -0.231 NA
ATOM      8  C   UNL     1       0.067  -4.189   1.625  0.00  0.00    +0.077 A 
ATOM      9  C   UNL     1       0.053  -2.964   2.194  0.00  0.00    +0.117 A 
ATOM     10  N   UNL     1       0.036  -2.047   1.179  0.00  0.00    -0.306 N 
ATOM     11  C   UNL     1       0.022  -0.682   1.169  0.00  0.00    +0.096 A 
ENDBRANCH   1   8
BRANCH   1  12
ATOM     12  N   UNL     1      -1.281  -6.006   2.504  0.00  0.00    -0.305 N 
ATOM     13  C   UNL     1      -1.507  -7.174   3.136  0.00  0.00    +0.261 C 
ATOM     14  O   UNL     1      -0.575  -7.811   3.590  0.00  0.00    -0.269 OA
ATOM     15  H   UNL     1      -2.024  -5.498   2.142  0.00  0.00    +0.149 HD
BRANCH  13  16
ATOM     16  C   UNL     1      -2.878  -7.678   3.276  0.00  0.00    +0.103 A 
ATOM     17  C   UNL     1      -3.256  -8.848   3.901  0.00  0.00    +0.047 A 
ATOM     18  C   UNL     1      -4.648  -8.935   3.803  0.00  0.00    +0.036 A 
ATOM     19  C   UNL     1      -5.087  -7.841   3.135  0.00  0.00    +0.098 A 
ATOM     20  N   UNL     1      -4.021  -7.066   2.814  0.00  0.00    -0.356 N 
ATOM     21  H   UNL     1      -4.057  -6.223   2.337  0.00  0.00    +0.165 HD
ATOM     22 BR   UNL     1      -5.727 -10.332   4.481  0.00  0.00    -0.049 Br
ENDBRANCH  13  16
ENDBRANCH   1  12
TORSDOF 3
