REMARK  Name = ZINC56863831
REMARK  9 active torsions:
REMARK  status: ('A' for Active; 'I' for Inactive)
REMARK    1  A    between atoms: C_1  and  C_2
REMARK    2  A    between atoms: C_2  and  N_3
REMARK    3  A    between atoms: N_3  and  C_4
REMARK    4  A    between atoms: N_3  and  C_6
REMARK    5  A    between atoms: C_4  and  C_5
REMARK    6  A    between atoms: C_6  and  C_8
REMARK    7  A    between atoms: C_6  and  C_9
REMARK    8  A    between atoms: C_9  and  N_10
REMARK    9  A    between atoms: C_16  and  C_19
REMARK                            x       y       z     vdW  Elec       q    Type
REMARK                         _______ _______ _______ _____ _____    ______ ____
ROOT
ATOM      1  N   UNL     1       2.693  -3.034  -3.048  0.00  0.00    -0.301 N 
ATOM      2  C   UNL     1       1.676  -2.151  -3.087  0.00  0.00    +0.302 C 
ATOM      3  O   UNL     1       1.280  -1.633  -2.061  0.00  0.00    -0.253 OA
ATOM      4  N   UNL     1       1.098  -1.841  -4.265  0.00  0.00    -0.286 N 
ATOM      5  C   UNL     1       0.061  -0.803  -4.340  0.00  0.00    +0.110 C 
ATOM      6  C   UNL     1       0.465   0.222  -5.404  0.00  0.00    +0.032 C 
ATOM      7  C   UNL     1       0.728  -0.500  -6.728  0.00  0.00    +0.078 C 
ATOM      8  C   UNL     1       1.880  -1.492  -6.549  0.00  0.00    +0.032 C 
ATOM      9  C   UNL     1       1.496  -2.532  -5.499  0.00  0.00    +0.110 C 
ATOM     10  H   UNL     1       3.055  -3.394  -3.872  0.00  0.00    +0.150 HD
ENDROOT
BRANCH   7  11
ATOM     11  C   UNL     1       1.093   0.509  -7.786  0.00  0.00    +0.221 C 
ATOM     12  O   UNL     1       1.139   1.688  -7.509  0.00  0.00    -0.275 OA
ATOM     13  N   UNL     1       1.369   0.100  -9.040  0.00  0.00    -0.270 N 
ATOM     14  C   UNL     1       1.800   1.020  -9.995  0.00  0.00    +0.125 A 
ATOM     15  C   UNL     1       1.973   0.615 -11.313  0.00  0.00    +0.045 A 
ATOM     16  C   UNL     1       2.401   1.538 -12.251  0.00  0.00    +0.025 A 
ATOM     17  C   UNL     1       2.642   2.842 -11.835  0.00  0.00    +0.059 A 
ATOM     18  C   UNL     1       2.449   3.174 -10.508  0.00  0.00    +0.132 A 
ATOM     19  N   UNL     1       2.035   2.273  -9.638  0.00  0.00    -0.239 NA
ATOM     20 CL   UNL     1       3.181   4.039 -12.970  0.00  0.00    -0.082 Cl
ATOM     21  H   UNL     1       1.269  -0.835  -9.279  0.00  0.00    +0.156 HD
ENDBRANCH   7  11
BRANCH   1  22
ATOM     22  C   UNL     1       3.253  -3.449  -1.759  0.00  0.00    +0.090 C 
BRANCH  22  23
ATOM     23  C   UNL     1       4.460  -4.358  -1.997  0.00  0.00    -0.054 C 
ATOM     24  C   UNL     1       5.009  -4.840  -0.652  0.00  0.00    -0.012 C 
BRANCH  23  25
ATOM     25  N   UNL     1       4.050  -5.517  -2.801  0.00  0.00    +0.382 N 
ATOM     26  H   UNL     1       3.613  -5.197  -3.653  0.00  0.00    -0.081 HD
BRANCH  25  28
ATOM     27  C   UNL     1       6.162  -5.523  -4.041  0.00  0.00    -0.017 C 
ATOM     28  C   UNL     1       5.230  -6.327  -3.131  0.00  0.00    -0.082 C 
ENDBRANCH  25  28
BRANCH  25  29
ATOM     29  C   UNL     1       3.096  -6.330  -2.037  0.00  0.00    -0.082 C 
ATOM     30  C   UNL     1       2.557  -7.454  -2.925  0.00  0.00    -0.017 C 
ENDBRANCH  25  29
ENDBRANCH  23  25
ENDBRANCH  22  23
ENDBRANCH   1  22
TORSDOF 6
