REMARK  Name = ZINC37138181
REMARK  6 active torsions:
REMARK  status: ('A' for Active; 'I' for Inactive)
REMARK    1  A    between atoms: C_1  and  C_2
REMARK    2  A    between atoms: C_2  and  C_4
REMARK    3  A    between atoms: C_2  and  N_10
REMARK    4  A    between atoms: N_10  and  C_11
REMARK    5  A    between atoms: C_13  and  S_18
REMARK    6  A    between atoms: S_18  and  N_21
REMARK                            x       y       z     vdW  Elec       q    Type
REMARK                         _______ _______ _______ _____ _____    ______ ____
ROOT
ATOM      1  C   UNL     1      -2.076  -0.648  -1.187  0.00  0.00    +0.048 A 
ATOM      2  C   UNL     1      -1.472  -0.308  -2.391  0.00  0.00    +0.053 A 
ATOM      3  C   UNL     1      -2.170  -0.445  -3.575  0.00  0.00    +0.107 A 
ATOM      4  C   UNL     1      -3.469  -0.918  -3.564  0.00  0.00    +0.030 A 
ATOM      5  C   UNL     1      -4.074  -1.257  -2.368  0.00  0.00    +0.024 A 
ATOM      6  C   UNL     1      -3.380  -1.129  -1.179  0.00  0.00    +0.062 A 
ATOM      7 CL   UNL     1      -4.138  -1.560   0.322  0.00  0.00    -0.082 Cl
ENDROOT
BRANCH   3   8
ATOM      8  S   UNL     1      -1.403  -0.015  -5.102  0.00  0.00    +0.056 S 
ATOM      9  O   UNL     1      -2.453   0.283  -6.013  0.00  0.00    -0.153 OA
ATOM     10  O   UNL     1      -0.376   0.917  -4.793  0.00  0.00    -0.153 OA
BRANCH   8  11
ATOM     11  N   UNL     1      -0.652  -1.375  -5.674  0.00  0.00    -0.204 NA
ATOM     12  H   UNL     1      -0.696  -2.202  -5.168  0.00  0.00    +0.144 HD
ATOM     13  H   UNL     1      -0.168  -1.345  -6.513  0.00  0.00    +0.144 HD
ENDBRANCH   8  11
ENDBRANCH   3   8
BRANCH   1  14
ATOM     14  N   UNL     1      -1.372  -0.511   0.012  0.00  0.00    -0.335 N 
ATOM     15  H   UNL     1      -1.794  -0.752   0.852  0.00  0.00    +0.147 HD
BRANCH  14  17
ATOM     16  C   UNL     1      -0.019   1.526   0.010  0.00  0.00    +0.034 C 
ATOM     17  C   UNL     1       0.002  -0.004   0.002  0.00  0.00    +0.116 C 
BRANCH  17  18
ATOM     18  C   UNL     1       0.731  -0.503   1.223  0.00  0.00    +0.061 A 
ATOM     19  C   UNL     1       2.109  -0.608   1.200  0.00  0.00    +0.025 A 
ATOM     20  C   UNL     1       2.770  -1.068   2.329  0.00  0.00    +0.003 A 
ATOM     21  C   UNL     1       2.017  -1.408   3.443  0.00  0.00    +0.020 A 
ATOM     22  C   UNL     1       0.642  -1.276   3.391  0.00  0.00    +0.111 A 
ATOM     23  N   UNL     1       0.047  -0.830   2.302  0.00  0.00    -0.258 NA
ENDBRANCH  17  18
ENDBRANCH  14  17
ENDBRANCH   1  14
TORSDOF 5
