REMARK  Name = ZINC52140499
REMARK  3 active torsions:
REMARK  status: ('A' for Active; 'I' for Inactive)
REMARK    1  A    between atoms: C_4  and  N_7
REMARK    2  A    between atoms: N_7  and  C_8
REMARK    3  A    between atoms: C_8  and  C_12
REMARK                            x       y       z     vdW  Elec       q    Type
REMARK                         _______ _______ _______ _____ _____    ______ ____
ROOT
ATOM      1  N   UNL     1       2.816  -0.365  -2.441  0.00  0.00    +0.392 N 
ATOM      2  H   UNL     1       2.776  -1.373  -2.404  0.00  0.00    -0.084 HD
ATOM      3  H   UNL     1       2.337  -0.040  -3.267  0.00  0.00    -0.084 HD
ENDROOT
BRANCH   1   7
ATOM      4  C   UNL     1      -0.007   1.706   0.002  0.00  0.00    -0.000 C 
ATOM      5  C   UNL     1       1.396   2.299  -0.144  0.00  0.00    -0.002 C 
ATOM      6  C   UNL     1       2.069   1.715  -1.388  0.00  0.00    -0.016 C 
ATOM      7  C   UNL     1       2.170   0.195  -1.247  0.00  0.00    -0.070 C 
ATOM      8  C   UNL     1       0.766  -0.397  -1.102  0.00  0.00    -0.016 C 
ATOM      9  C   UNL     1       0.093   0.186   0.142  0.00  0.00    -0.002 C 
ENDBRANCH   1   7
BRANCH   1  10
ATOM     10  C   UNL     1       4.219   0.067  -2.487  0.00  0.00    +0.036 C 
ATOM     11  C   UNL     1       4.401   1.521  -2.953  0.00  0.00    -0.001 C 
ATOM     12  C   UNL     1       5.622   1.030  -3.749  0.00  0.00    -0.002 C 
ATOM     13  C   UNL     1       4.952  -0.354  -3.771  0.00  0.00    -0.001 C 
BRANCH  10  14
ATOM     14  C   UNL     1       4.974  -0.263  -1.225  0.00  0.00    +0.345 C 
ATOM     15  O   UNL     1       4.460  -0.968  -0.373  0.00  0.00    -0.248 OA
ATOM     16  O   UNL     1       6.100   0.174  -1.056  0.00  0.00    -0.248 OA
ENDBRANCH  10  14
ENDBRANCH   1  10
TORSDOF 3
