REMARK  Name = ZINC22831860
REMARK  3 active torsions:
REMARK  status: ('A' for Active; 'I' for Inactive)
REMARK    1  A    between atoms: C_7  and  C_11
REMARK    2  A    between atoms: C_11  and  C_13
REMARK    3  A    between atoms: C_13  and  N_14
REMARK                            x       y       z     vdW  Elec       q    Type
REMARK                         _______ _______ _______ _____ _____    ______ ____
ROOT
ATOM      1  C   UNL     1       1.298  -4.616  -0.035  0.00  0.00    +0.197 C 
ENDROOT
BRANCH   1   2
ATOM      2  N   UNL     1       0.200  -5.586  -0.029  0.00  0.00    -0.217 N 
ATOM      3  C   UNL     1      -0.359  -6.090   1.090  0.00  0.00    +0.248 C 
ATOM      4  O   UNL     1      -0.061  -5.835   2.237  0.00  0.00    -0.273 OA
ATOM      5  C   UNL     1      -1.439  -7.040   0.614  0.00  0.00    +0.122 C 
ATOM      6  C   UNL     1      -2.807  -6.561   1.093  0.00  0.00    +0.047 C 
ATOM      7  C   UNL     1      -3.786  -7.763   1.216  0.00  0.00    +0.072 C 
ATOM      8  S   UNL     1      -2.633  -9.030   1.907  0.00  0.00    -0.158 S 
ATOM      9  C   UNL     1      -1.093  -8.472   1.065  0.00  0.00    +0.104 C 
ATOM     10  N   UNL     1      -1.356  -6.956  -0.853  0.00  0.00    -0.284 N 
ATOM     11  C   UNL     1      -0.375  -6.078  -1.132  0.00  0.00    +0.310 C 
ATOM     12  O   UNL     1      -0.045  -5.769  -2.261  0.00  0.00    -0.252 OA
ATOM     13  H   UNL     1      -1.905  -7.435  -1.494  0.00  0.00    +0.151 HD
ENDBRANCH   1   2
BRANCH   1  14
ATOM     14  C   UNL     1       0.733  -3.219  -0.022  0.00  0.00    +0.183 C 
ATOM     15  O   UNL     1      -0.469  -3.050  -0.008  0.00  0.00    -0.290 OA
BRANCH  14  22
ATOM     16  C   UNL     1      -0.017   1.374   0.010  0.00  0.00    +0.001 A 
ATOM     17  C   UNL     1       1.172   2.089   0.002  0.00  0.00    +0.002 A 
ATOM     18  C   UNL     1       2.385   1.436  -0.013  0.00  0.00    +0.026 A 
ATOM     19  C   UNL     1       2.424   0.045  -0.021  0.00  0.00    +0.047 A 
ATOM     20  C   UNL     1       1.221  -0.677  -0.013  0.00  0.00    +0.010 A 
ATOM     21  C   UNL     1       0.002  -0.004   0.002  0.00  0.00    +0.011 A 
ATOM     22  C   UNL     1       1.605  -2.102  -0.025  0.00  0.00    +0.044 A 
ATOM     23  C   UNL     1       2.983  -2.128  -0.039  0.00  0.00    +0.095 A 
ATOM     24  N   UNL     1       3.459  -0.868  -0.036  0.00  0.00    -0.360 N 
ATOM     25  H   UNL     1       4.401  -0.634  -0.045  0.00  0.00    +0.165 HD
ENDBRANCH  14  22
ENDBRANCH   1  14
TORSDOF 3
