REMARK  Name = ZINC43191468
REMARK  8 active torsions:
REMARK  status: ('A' for Active; 'I' for Inactive)
REMARK    1  A    between atoms: C_1  and  C_2
REMARK    2  A    between atoms: C_5  and  O_31
REMARK    3  A    between atoms: C_15  and  O_30
REMARK    4  A    between atoms: C_18  and  C_29
REMARK    5  A    between atoms: C_23  and  C_24
REMARK    6  A    between atoms: C_23  and  O_28
REMARK    7  A    between atoms: C_24  and  C_26
REMARK    8  A    between atoms: C_26  and  O_27
REMARK                            x       y       z     vdW  Elec       q    Type
REMARK                         _______ _______ _______ _____ _____    ______ ____
ROOT
ATOM      1  C   UNL     1      -0.285   1.719  -1.157  0.00  0.00    +0.016 C 
ATOM      2  C   UNL     1      -0.163   0.206  -0.923  0.00  0.00    -0.005 C 
ATOM      3  C   UNL     1       0.501  -0.430  -2.135  0.00  0.00    +0.014 C 
ATOM      4  C   UNL     1       1.948  -0.809  -1.838  0.00  0.00    +0.032 C 
ATOM      5  C   UNL     1       2.720   0.300  -1.139  0.00  0.00    +0.119 C 
ATOM      6  C   UNL     1       2.109   0.622   0.227  0.00  0.00    +0.062 C 
ATOM      7  C   UNL     1       0.722   0.006   0.286  0.00  0.00    -0.065 C 
ATOM      8  C   UNL     1       0.380  -0.649   1.353  0.00  0.00    -0.027 C 
ATOM      9  C   UNL     1      -0.959  -1.326   1.508  0.00  0.00    +0.031 C 
ATOM     10  C   UNL     1      -1.439  -1.667   0.098  0.00  0.00    +0.003 C 
ATOM     11  C   UNL     1      -1.560  -0.348  -0.684  0.00  0.00    +0.031 C 
ATOM     12  C   UNL     1      -2.338  -0.614  -1.965  0.00  0.00    +0.119 C 
ATOM     13  C   UNL     1      -3.811  -0.930  -1.649  0.00  0.00    +0.041 C 
ATOM     14  C   UNL     1      -3.944  -1.567  -0.290  0.00  0.00    +0.009 C 
ATOM     15  C   UNL     1      -2.717  -2.439   0.043  0.00  0.00    +0.002 C 
ATOM     16  C   UNL     1      -3.167  -3.145   1.331  0.00  0.00    +0.008 C 
ATOM     17  C   UNL     1      -4.666  -3.454   1.062  0.00  0.00    +0.043 C 
ATOM     18  C   UNL     1      -5.072  -2.616  -0.175  0.00  0.00    +0.131 C 
ATOM     19  C   UNL     1      -4.220  -0.510   0.783  0.00  0.00    +0.015 C 
ENDROOT
BRANCH  18  20
ATOM     20  C   UNL     1      -6.388  -1.930   0.058  0.00  0.00    +0.190 C 
ATOM     21  O   UNL     1      -6.807  -1.792   1.182  0.00  0.00    -0.292 OA
BRANCH  20  22
ATOM     22  C   UNL     1      -7.186  -1.415  -1.112  0.00  0.00    +0.233 C 
BRANCH  22  23
ATOM     23  O   UNL     1      -8.389  -0.808  -0.637  0.00  0.00    -0.387 OA
ATOM     24  H   UNL     1      -8.954  -0.453  -1.338  0.00  0.00    +0.210 HD
ENDBRANCH  22  23
ENDBRANCH  20  22
ENDBRANCH  18  20
BRANCH  18  25
ATOM     25  O   UNL     1      -5.114  -3.430  -1.342  0.00  0.00    -0.380 OA
ATOM     26  H   UNL     1      -5.804  -4.107  -1.325  0.00  0.00    +0.211 HD
ENDBRANCH  18  25
BRANCH  12  27
ATOM     27  O   UNL     1      -2.286   0.512  -2.843  0.00  0.00    -0.391 OA
ATOM     28  H   UNL     1      -2.768   0.387  -3.672  0.00  0.00    +0.210 HD
ENDBRANCH  12  27
BRANCH   5  29
ATOM     29  O   UNL     1       2.736   1.474  -1.955  0.00  0.00    -0.391 OA
ATOM     30  H   UNL     1       3.213   2.218  -1.564  0.00  0.00    +0.210 HD
ENDBRANCH   5  29
TORSDOF 6
