REMARK  Name = ZINC48826500
REMARK  6 active torsions:
REMARK  status: ('A' for Active; 'I' for Inactive)
REMARK    1  A    between atoms: C_1  and  C_2
REMARK    2  A    between atoms: C_2  and  C_4
REMARK    3  A    between atoms: C_2  and  N_17
REMARK    4  A    between atoms: N_6  and  C_7
REMARK    5  A    between atoms: C_7  and  C_8
REMARK    6  A    between atoms: C_8  and  C_9
REMARK                            x       y       z     vdW  Elec       q    Type
REMARK                         _______ _______ _______ _____ _____    ______ ____
ROOT
ATOM      1  C   UNL     1       0.731  -0.503   1.223  0.00  0.00    +0.233 C 
ATOM      2  O   UNL     1       1.725  -1.187   1.099  0.00  0.00    -0.274 OA
ATOM      3  N   UNL     1       0.278  -0.191   2.453  0.00  0.00    -0.313 N 
ATOM      4  H   UNL     1      -0.517   0.356   2.553  0.00  0.00    +0.149 HD
ENDROOT
BRANCH   1   6
ATOM      5  C   UNL     1      -0.019   1.526   0.010  0.00  0.00    +0.038 C 
ATOM      6  C   UNL     1       0.002  -0.004   0.002  0.00  0.00    +0.157 C 
BRANCH   6   7
ATOM      7  N   UNL     1       0.688  -0.476  -1.203  0.00  0.00    -0.289 N 
ATOM      8  C   UNL     1       0.006  -0.608  -2.358  0.00  0.00    +0.298 C 
ATOM      9  O   UNL     1      -1.178  -0.335  -2.400  0.00  0.00    -0.253 OA
ATOM     10  N   UNL     1       0.637  -1.043  -3.467  0.00  0.00    -0.313 N 
ATOM     11  H   UNL     1       1.632  -0.695  -1.170  0.00  0.00    +0.151 HD
ATOM     12  H   UNL     1       1.582  -1.261  -3.434  0.00  0.00    +0.146 HD
ATOM     13  H   UNL     1       0.146  -1.137  -4.299  0.00  0.00    +0.146 HD
ENDBRANCH   6   7
ENDBRANCH   1   6
BRANCH   3  14
ATOM     14  C   UNL     1       0.986  -0.676   3.640  0.00  0.00    +0.109 C 
BRANCH  14  15
ATOM     15  C   UNL     1       0.270  -0.182   4.899  0.00  0.00    +0.054 C 
BRANCH  15  16
ATOM     16  C   UNL     1       0.999  -0.682   6.120  0.00  0.00    -0.045 A 
ATOM     17  C   UNL     1       0.659  -1.900   6.677  0.00  0.00    +0.006 A 
ATOM     18  C   UNL     1       1.327  -2.360   7.796  0.00  0.00    +0.040 A 
ATOM     19  C   UNL     1       2.337  -1.599   8.360  0.00  0.00    +0.137 A 
ATOM     20  C   UNL     1       2.677  -0.379   7.801  0.00  0.00    +0.053 A 
ATOM     21  C   UNL     1       2.011   0.076   6.678  0.00  0.00    +0.021 A 
ATOM     22 BR   UNL     1       4.057   0.662   8.569  0.00  0.00    -0.047 Br
ATOM     23  F   UNL     1       2.990  -2.047   9.455  0.00  0.00    -0.204 F 
ENDBRANCH  15  16
ENDBRANCH  14  15
ENDBRANCH   3  14
TORSDOF 5
