REMARK  Name = ZINC00970812
REMARK  3 active torsions:
REMARK  status: ('A' for Active; 'I' for Inactive)
REMARK    1  A    between atoms: C_1  and  C_2
REMARK    2  A    between atoms: N_4  and  C_5
REMARK    3  A    between atoms: C_18  and  C_21
REMARK                            x       y       z     vdW  Elec       q    Type
REMARK                         _______ _______ _______ _____ _____    ______ ____
ROOT
ATOM      1  C   UNL     1       1.641  -0.719  -0.167  0.00  0.00    +0.034 A 
ATOM      2  C   UNL     1       0.400  -0.176   0.138  0.00  0.00    +0.025 A 
ATOM      3  C   UNL     1       0.243   1.194   0.166  0.00  0.00    +0.025 A 
ATOM      4  C   UNL     1       1.321   2.026  -0.111  0.00  0.00    +0.031 A 
ATOM      5  C   UNL     1       2.563   1.492  -0.416  0.00  0.00    -0.018 A 
ATOM      6  C   UNL     1       2.716   0.112  -0.442  0.00  0.00    +0.029 A 
ATOM      7  C   UNL     1       3.751   2.349  -0.719  0.00  0.00    +0.049 C 
ATOM      8  C   UNL     1       4.062   2.354  -2.197  0.00  0.00    -0.023 C 
ATOM      9  C   UNL     1       4.483   3.538  -2.569  0.00  0.00    -0.030 C 
ATOM     10  C   UNL     1       4.516   4.485  -1.385  0.00  0.00    +0.033 C 
ATOM     11  C   UNL     1       3.526   3.834  -0.374  0.00  0.00    +0.029 C 
ATOM     12  C   UNL     1       2.106   4.253  -0.765  0.00  0.00    +0.106 C 
ATOM     13  N   UNL     1       1.147   3.408  -0.047  0.00  0.00    -0.336 N 
ATOM     14  H   UNL     1       0.404   3.801   0.438  0.00  0.00    +0.147 HD
ENDROOT
BRANCH  12  15
ATOM     15  C   UNL     1       1.885   5.697  -0.393  0.00  0.00    -0.009 A 
ATOM     16  C   UNL     1       2.740   6.319   0.497  0.00  0.00    +0.008 A 
ATOM     17  C   UNL     1       2.542   7.645   0.835  0.00  0.00    +0.020 A 
ATOM     18  C   UNL     1       1.480   8.346   0.290  0.00  0.00    +0.042 A 
ATOM     19  C   UNL     1       0.621   7.722  -0.597  0.00  0.00    +0.040 A 
ATOM     20  C   UNL     1       0.824   6.397  -0.938  0.00  0.00    +0.047 A 
ATOM     21 CL   UNL     1      -0.254   5.613  -2.050  0.00  0.00    -0.083 Cl
ATOM     22 CL   UNL     1       1.227  10.009   0.719  0.00  0.00    -0.083 Cl
ENDBRANCH  12  15
BRANCH   1  26
ATOM     23  C   UNL     1       0.931  -4.401  -0.515  0.00  0.00    +0.109 C 
ATOM     24  C   UNL     1       0.793  -2.902  -0.595  0.00  0.00    +0.214 C 
ATOM     25  O   UNL     1      -0.231  -2.409  -1.018  0.00  0.00    -0.276 OA
ATOM     26  N   UNL     1       1.808  -2.110  -0.197  0.00  0.00    -0.286 N 
ATOM     27  H   UNL     1       2.655  -2.503   0.069  0.00  0.00    +0.155 HD
ENDBRANCH   1  26
TORSDOF 2
