REMARK  Name = ZINC06719045
REMARK  9 active torsions:
REMARK  status: ('A' for Active; 'I' for Inactive)
REMARK    1  A    between atoms: C_1  and  C_2
REMARK    2  A    between atoms: C_2  and  O_3
REMARK    3  A    between atoms: O_3  and  C_4
REMARK    4  A    between atoms: C_4  and  C_6
REMARK    5  A    between atoms: C_7  and  C_24
REMARK    6  A    between atoms: C_11  and  S_15
REMARK    7  A    between atoms: S_15  and  C_16
REMARK    8  A    between atoms: C_16  and  C_17
REMARK    9  A    between atoms: C_17  and  N_49
REMARK                            x       y       z     vdW  Elec       q    Type
REMARK                         _______ _______ _______ _____ _____    ______ ____
ROOT
ATOM      1  C   UNL     1       3.201   3.052   1.159  0.00  0.00    +0.102 A 
ATOM      2  C   UNL     1       3.266   1.691   1.165  0.00  0.00    -0.017 A 
ATOM      3  C   UNL     1       2.093   0.937   1.042  0.00  0.00    +0.051 A 
ATOM      4  C   UNL     1       1.931  -0.483   1.024  0.00  0.00    +0.129 A 
ATOM      5  N   UNL     1       0.720  -0.994   0.897  0.00  0.00    -0.207 NA
ATOM      6  C   UNL     1      -0.362  -0.231   0.786  0.00  0.00    +0.191 A 
ATOM      7  N   UNL     1      -0.276   1.093   0.795  0.00  0.00    -0.214 NA
ATOM      8  C   UNL     1       0.894   1.683   0.917  0.00  0.00    +0.115 A 
ATOM      9  S   UNL     1       1.453   3.366   0.978  0.00  0.00    -0.062 S 
ATOM     10  N   UNL     1       3.029  -1.311   1.138  0.00  0.00    -0.343 N 
ATOM     11  C   UNL     1       4.597   0.999   1.302  0.00  0.00    +0.046 C 
ATOM     12  H   UNL     1       2.928  -2.201   1.509  0.00  0.00    +0.144 HD
ATOM     13  H   UNL     1       3.901  -1.003   0.846  0.00  0.00    +0.144 HD
ENDROOT
BRANCH   1  14
ATOM     14  C   UNL     1       4.295   4.019   1.275  0.00  0.00    +0.346 C 
ATOM     15  O   UNL     1       5.448   3.633   1.292  0.00  0.00    -0.244 OA
BRANCH  14  16
ATOM     16  O   UNL     1       4.024   5.337   1.363  0.00  0.00    -0.461 OA
BRANCH  16  18
ATOM     17  C   UNL     1       4.638   7.666   1.561  0.00  0.00    +0.048 C 
ATOM     18  C   UNL     1       5.139   6.223   1.473  0.00  0.00    +0.229 C 
ENDBRANCH  16  18
ENDBRANCH  14  16
ENDBRANCH   1  14
BRANCH   6  19
ATOM     19  S   UNL     1      -1.943  -0.993   0.621  0.00  0.00    -0.088 S 
BRANCH  19  20
ATOM     20  C   UNL     1      -1.459  -2.736   0.670  0.00  0.00    +0.059 C 
BRANCH  20  21
ATOM     21  C   UNL     1      -2.704  -3.615   0.540  0.00  0.00    -0.068 C 
BRANCH  21  27
ATOM     22  C   UNL     1      -1.502  -5.385  -0.593  0.00  0.00    -0.079 C 
ATOM     23  C   UNL     1      -0.990  -6.820  -0.446  0.00  0.00    -0.019 C 
ATOM     24  C   UNL     1      -2.183  -7.771  -0.318  0.00  0.00    -0.004 C 
ATOM     25  C   UNL     1      -3.036  -7.350   0.882  0.00  0.00    -0.019 C 
ATOM     26  C   UNL     1      -3.488  -5.900   0.697  0.00  0.00    -0.079 C 
ATOM     27  N   UNL     1      -2.294  -5.033   0.605  0.00  0.00    +0.380 N 
ATOM     28  H   UNL     1      -1.714  -5.175   1.441  0.00  0.00    -0.082 HD
ENDBRANCH  21  27
ENDBRANCH  20  21
ENDBRANCH  19  20
ENDBRANCH   6  19
TORSDOF 7
