REMARK  Name = ZINC44667779
REMARK  5 active torsions:
REMARK  status: ('A' for Active; 'I' for Inactive)
REMARK    1  A    between atoms: C_1  and  N_2
REMARK    2  A    between atoms: C_4  and  S_10
REMARK    3  A    between atoms: C_6  and  C_7
REMARK    4  A    between atoms: S_10  and  N_13
REMARK    5  A    between atoms: N_13  and  C_14
REMARK                            x       y       z     vdW  Elec       q    Type
REMARK                         _______ _______ _______ _____ _____    ______ ____
ROOT
ATOM      1  S   UNL     1      -0.116  -3.489  -1.782  0.00  0.00    +0.093 S 
ATOM      2  O   UNL     1      -0.581  -4.574  -0.993  0.00  0.00    -0.148 OA
ATOM      3  O   UNL     1      -0.784  -3.063  -2.962  0.00  0.00    -0.148 OA
ENDROOT
BRANCH   1   7
ATOM      4  C   UNL     1      -0.018   1.461   0.010  0.00  0.00    +0.149 C 
ATOM      5  N   UNL     1       0.001  -0.004   0.002  0.00  0.00    -0.344 N 
ATOM      6  C   UNL     1      -0.090  -0.790  -1.098  0.00  0.00    +0.115 A 
ATOM      7  C   UNL     1      -0.037  -2.088  -0.716  0.00  0.00    +0.128 A 
ATOM      8  C   UNL     1       0.092  -2.120   0.676  0.00  0.00    +0.061 A 
ATOM      9  C   UNL     1       0.120  -0.812   1.111  0.00  0.00    +0.106 A 
BRANCH   9  10
ATOM     10  C   UNL     1       0.249  -0.362   2.501  0.00  0.00    +0.258 C 
ATOM     11  O   UNL     1       0.170   0.823   2.767  0.00  0.00    -0.269 OA
ATOM     12  N   UNL     1       0.456  -1.261   3.483  0.00  0.00    -0.324 N 
ATOM     13  H   UNL     1       0.592  -2.196   3.264  0.00  0.00    +0.145 HD
ATOM     14  H   UNL     1       0.468  -0.973   4.410  0.00  0.00    +0.145 HD
ENDBRANCH   9  10
ENDBRANCH   1   7
BRANCH   1  15
ATOM     15  N   UNL     1       1.437  -3.856  -2.224  0.00  0.00    -0.096 NA
BRANCH  15  16
ATOM     16  C   UNL     1       1.684  -4.935  -3.078  0.00  0.00    +0.093 A 
ATOM     17  C   UNL     1       0.628  -5.696  -3.561  0.00  0.00    +0.029 A 
ATOM     18  C   UNL     1       0.875  -6.762  -4.404  0.00  0.00    +0.022 A 
ATOM     19  C   UNL     1       2.173  -7.072  -4.769  0.00  0.00    +0.042 A 
ATOM     20  C   UNL     1       3.228  -6.316  -4.289  0.00  0.00    +0.042 A 
ATOM     21  C   UNL     1       2.987  -5.245  -3.450  0.00  0.00    +0.067 A 
ATOM     22 CL   UNL     1       4.310  -4.292  -2.854  0.00  0.00    -0.081 Cl
ATOM     23 CL   UNL     1       2.479  -8.412  -5.829  0.00  0.00    -0.083 Cl
ENDBRANCH  15  16
ENDBRANCH   1  15
TORSDOF 4
