REMARK  Name = ZINC56849659
REMARK  5 active torsions:
REMARK  status: ('A' for Active; 'I' for Inactive)
REMARK    1  A    between atoms: C_1  and  C_2
REMARK    2  A    between atoms: C_3  and  C_8
REMARK    3  A    between atoms: C_8  and  C_9
REMARK    4  A    between atoms: N_11  and  C_12
REMARK    5  A    between atoms: C_14  and  C_20
REMARK                            x       y       z     vdW  Elec       q    Type
REMARK                         _______ _______ _______ _____ _____    ______ ____
ROOT
ATOM      1  C   UNL     1       1.420  -0.183  -3.127  0.00  0.00    +0.222 C 
ATOM      2  O   UNL     1       2.356  -0.568  -2.458  0.00  0.00    -0.275 OA
ATOM      3  N   UNL     1       1.641   0.416  -4.314  0.00  0.00    -0.281 N 
ATOM      4  H   UNL     1       0.893   0.659  -4.882  0.00  0.00    +0.155 HD
ENDROOT
BRANCH   3   5
ATOM      5  C   UNL     1       2.952   0.688  -4.728  0.00  0.00    +0.099 A 
ATOM      6  C   UNL     1       3.430   0.170  -5.900  0.00  0.00    +0.042 A 
ATOM      7  C   UNL     1       4.745   0.458  -6.291  0.00  0.00    +0.073 A 
ATOM      8  C   UNL     1       5.527   1.241  -5.513  0.00  0.00    +0.098 A 
ATOM      9  N   UNL     1       5.054   1.758  -4.347  0.00  0.00    -0.327 N 
ATOM     10  H   UNL     1       5.629   2.317  -3.802  0.00  0.00    +0.168 HD
ATOM     11  C   UNL     1       3.794   1.506  -3.943  0.00  0.00    +0.270 A 
ATOM     12  O   UNL     1       3.382   1.980  -2.897  0.00  0.00    -0.266 OA
BRANCH   7  13
ATOM     13  C   UNL     1       5.289  -0.105  -7.579  0.00  0.00    +0.419 C 
ATOM     14  F   UNL     1       6.611   0.319  -7.752  0.00  0.00    -0.166 F 
ATOM     15  F   UNL     1       5.249  -1.502  -7.531  0.00  0.00    -0.166 F 
ATOM     16  F   UNL     1       4.511   0.347  -8.650  0.00  0.00    -0.166 F 
ENDBRANCH   7  13
ENDBRANCH   3   5
BRANCH   1  17
ATOM     17  C   UNL     1       0.010  -0.374  -2.631  0.00  0.00    +0.140 C 
BRANCH  17  20
ATOM     18  C   UNL     1       0.144   0.962   0.169  0.00  0.00    +0.066 C 
ATOM     19  C   UNL     1       0.096  -0.529  -0.047  0.00  0.00    +0.050 A 
ATOM     20  C   UNL     1       0.038  -1.062  -1.291  0.00  0.00    +0.022 A 
ATOM     21  S   UNL     1       0.004  -2.805  -0.906  0.00  0.00    -0.064 S 
ATOM     22  C   UNL     1       0.065  -2.675   0.771  0.00  0.00    +0.146 A 
ATOM     23  S   UNL     1       0.072  -3.966   1.970  0.00  0.00    -0.023 SA
ATOM     24  N   UNL     1       0.113  -1.374   0.969  0.00  0.00    -0.237 NA
ENDBRANCH  17  20
ENDBRANCH   1  17
TORSDOF 4
