REMARK  Name = ZINC52881126
REMARK  5 active torsions:
REMARK  status: ('A' for Active; 'I' for Inactive)
REMARK    1  A    between atoms: C_1  and  C_2
REMARK    2  A    between atoms: C_2  and  C_3
REMARK    3  A    between atoms: C_2  and  C_9
REMARK    4  A    between atoms: C_2  and  N_20
REMARK    5  A    between atoms: C_14  and  C_17
REMARK                            x       y       z     vdW  Elec       q    Type
REMARK                         _______ _______ _______ _____ _____    ______ ____
ROOT
ATOM      1  C   UNL     1       0.627  -0.122  -1.303  0.00  0.00    +0.240 C 
ATOM      2  O   UNL     1       1.787  -0.459  -1.415  0.00  0.00    -0.273 OA
ATOM      3  N   UNL     1      -0.118   0.107  -2.403  0.00  0.00    -0.300 N 
ATOM      4  C   UNL     1      -1.556   0.385  -2.289  0.00  0.00    +0.108 C 
ATOM      5  C   UNL     1      -2.320  -0.589  -3.190  0.00  0.00    +0.032 C 
ATOM      6  C   UNL     1      -1.772  -0.494  -4.617  0.00  0.00    +0.078 C 
ATOM      7  C   UNL     1      -0.293  -0.887  -4.624  0.00  0.00    +0.032 C 
ATOM      8  C   UNL     1       0.495   0.089  -3.739  0.00  0.00    +0.108 C 
ENDROOT
BRANCH   6   9
ATOM      9  C   UNL     1      -2.545  -1.427  -5.513  0.00  0.00    +0.214 C 
ATOM     10  O   UNL     1      -3.444  -2.102  -5.057  0.00  0.00    -0.276 OA
ATOM     11  N   UNL     1      -2.236  -1.513  -6.823  0.00  0.00    -0.329 N 
ATOM     12  H   UNL     1      -1.517  -0.973  -7.188  0.00  0.00    +0.145 HD
ATOM     13  H   UNL     1      -2.733  -2.113  -7.400  0.00  0.00    +0.145 HD
ENDBRANCH   6   9
BRANCH   1  15
ATOM     14  C   UNL     1       1.106  -0.121   1.130  0.00  0.00    +0.042 C 
ATOM     15  C   UNL     1       0.018   0.040   0.066  0.00  0.00    +0.116 C 
BRANCH  15  16
ATOM     16  C   UNL     1      -1.044  -1.010   0.271  0.00  0.00    -0.019 A 
ATOM     17  C   UNL     1      -0.846  -2.294  -0.201  0.00  0.00    +0.006 A 
ATOM     18  C   UNL     1      -1.821  -3.257  -0.013  0.00  0.00    +0.000 A 
ATOM     19  C   UNL     1      -2.992  -2.935   0.647  0.00  0.00    +0.000 A 
ATOM     20  C   UNL     1      -3.189  -1.651   1.119  0.00  0.00    +0.000 A 
ATOM     21  C   UNL     1      -2.213  -0.689   0.935  0.00  0.00    +0.006 A 
ENDBRANCH  15  16
BRANCH  15  22
ATOM     22  N   UNL     1      -0.584   1.375   0.179  0.00  0.00    -0.314 NA
ATOM     23  H   UNL     1       0.081   2.093  -0.064  0.00  0.00    +0.119 HD
ATOM     24  H   UNL     1      -1.416   1.445  -0.386  0.00  0.00    +0.119 HD
ENDBRANCH  15  22
ENDBRANCH   1  15
TORSDOF 4
