REMARK  Name = ZINC05009088
REMARK  6 active torsions:
REMARK  status: ('A' for Active; 'I' for Inactive)
REMARK    1  A    between atoms: C_1  and  C_2
REMARK    2  A    between atoms: C_2  and  C_3
REMARK    3  A    between atoms: C_8  and  N_9
REMARK    4  A    between atoms: C_10  and  C_12
REMARK    5  A    between atoms: C_12  and  S_13
REMARK    6  A    between atoms: S_13  and  C_14
REMARK                            x       y       z     vdW  Elec       q    Type
REMARK                         _______ _______ _______ _____ _____    ______ ____
ROOT
ATOM      1  N   UNL     1      -0.279   1.286  -2.443  0.00  0.00    -0.285 N 
ATOM      2  C   UNL     1      -0.733   1.597  -1.213  0.00  0.00    +0.227 C 
ATOM      3  O   UNL     1      -1.721   2.289  -1.088  0.00  0.00    -0.275 OA
ATOM      4  H   UNL     1       0.667   0.736  -2.558  0.00  0.00    +0.155 HD
ENDROOT
BRANCH   1  10
ATOM      5  C   UNL     1      -0.368   1.823  -4.796  0.00  0.00    -0.026 A 
ATOM      6  C   UNL     1      -1.093   2.196  -5.911  0.00  0.00    +0.005 A 
ATOM      7  C   UNL     1      -2.455   2.412  -5.813  0.00  0.00    +0.000 A 
ATOM      8  C   UNL     1      -3.097   2.254  -4.598  0.00  0.00    +0.002 A 
ATOM      9  C   UNL     1      -2.379   1.876  -3.480  0.00  0.00    +0.023 A 
ATOM     10  C   UNL     1      -1.010   1.664  -3.575  0.00  0.00    +0.037 A 
BRANCH   5  12
ATOM     11  C   UNL     1       1.382   0.097  -5.126  0.00  0.00    +0.009 C 
ATOM     12  C   UNL     1       1.116   1.588  -4.905  0.00  0.00    +0.033 C 
ENDBRANCH   5  12
ENDBRANCH   1  10
BRANCH   2  13
ATOM     13  C   UNL     1      -0.013   1.084   0.008  0.00  0.00    +0.173 C 
BRANCH  13  14
ATOM     14  S   UNL     1      -0.860   1.668   1.497  0.00  0.00    -0.078 S 
BRANCH  14  15
ATOM     15  C   UNL     1       0.163   0.942   2.735  0.00  0.00    +0.173 A 
ATOM     16  N   UNL     1      -0.132   1.147   4.049  0.00  0.00    -0.185 NA
ATOM     17  C   UNL     1       0.642   0.598   5.009  0.00  0.00    +0.278 A 
ATOM     18  O   UNL     1       0.386   0.776   6.189  0.00  0.00    -0.266 OA
ATOM     19  C   UNL     1       1.748  -0.170   4.628  0.00  0.00    +0.142 A 
ATOM     20  C   UNL     1       2.000  -0.352   3.278  0.00  0.00    +0.256 A 
ATOM     21  N   UNL     1       1.198   0.211   2.371  0.00  0.00    -0.302 N 
ATOM     22  O   UNL     1       3.062  -1.090   2.880  0.00  0.00    -0.268 OA
ATOM     23  H   UNL     1       1.395   0.070   1.298  0.00  0.00    +0.171 HD
ENDBRANCH  14  15
ENDBRANCH  13  14
ENDBRANCH   2  13
TORSDOF 5
