REMARK  Name = ZINC43096460
REMARK  8 active torsions:
REMARK  status: ('A' for Active; 'I' for Inactive)
REMARK    1  A    between atoms: C_1  and  C_2
REMARK    2  A    between atoms: C_2  and  C_3
REMARK    3  A    between atoms: C_3  and  C_5
REMARK    4  A    between atoms: C_3  and  N_23
REMARK    5  A    between atoms: C_5  and  C_7
REMARK    6  A    between atoms: C_5  and  S_14
REMARK    7  A    between atoms: S_14  and  C_15
REMARK    8  A    between atoms: C_19  and  N_21
REMARK                            x       y       z     vdW  Elec       q    Type
REMARK                         _______ _______ _______ _____ _____    ______ ____
ROOT
ATOM      1  C   UNL     1      -1.521  -2.060  -0.053  0.00  0.00    +0.071 C 
ENDROOT
BRANCH   1   2
ATOM      2  C   UNL     1      -3.003  -2.297  -0.187  0.00  0.00    -0.022 A 
ATOM      3  C   UNL     1      -3.578  -2.391  -1.441  0.00  0.00    +0.006 A 
ATOM      4  C   UNL     1      -4.937  -2.610  -1.565  0.00  0.00    +0.000 A 
ATOM      5  C   UNL     1      -5.723  -2.735  -0.434  0.00  0.00    +0.001 A 
ATOM      6  C   UNL     1      -5.150  -2.641   0.820  0.00  0.00    +0.015 A 
ATOM      7  C   UNL     1      -3.788  -2.428   0.944  0.00  0.00    +0.022 A 
ATOM      8 BR   UNL     1      -3.002  -2.307   2.660  0.00  0.00    -0.050 Br
ENDBRANCH   1   2
BRANCH   1   9
ATOM      9  C   UNL     1      -1.259  -0.563   0.123  0.00  0.00    -0.057 C 
BRANCH   9  10
ATOM     10  N   UNL     1       0.168  -0.344   0.393  0.00  0.00    +0.381 N 
ATOM     11  H   UNL     1       0.341   0.643   0.509  0.00  0.00    -0.090 HD
ATOM     12  H   UNL     1       0.429  -0.833   1.237  0.00  0.00    -0.090 HD
ATOM     13  H   UNL     1       0.714  -0.693  -0.380  0.00  0.00    -0.090 HD
ENDBRANCH   9  10
BRANCH   9  15
ATOM     14  C   UNL     1      -1.510   1.685  -0.938  0.00  0.00    +0.002 C 
ATOM     15  C   UNL     1      -1.655   0.178  -1.156  0.00  0.00    -0.018 C 
ENDBRANCH   9  15
ENDBRANCH   1   9
BRANCH   1  16
ATOM     16  S   UNL     1      -0.676  -2.651  -1.545  0.00  0.00    -0.079 S 
BRANCH  16  17
ATOM     17  C   UNL     1      -0.863  -4.401  -1.476  0.00  0.00    +0.192 A 
ATOM     18  N   UNL     1      -1.434  -4.948  -0.412  0.00  0.00    -0.207 NA
ATOM     19  C   UNL     1      -1.592  -6.266  -0.326  0.00  0.00    +0.122 A 
ATOM     20  C   UNL     1      -1.149  -7.072  -1.371  0.00  0.00    +0.086 A 
ATOM     21  C   UNL     1      -0.555  -6.462  -2.471  0.00  0.00    +0.122 A 
ATOM     22  N   UNL     1      -0.434  -5.137  -2.491  0.00  0.00    -0.207 NA
ATOM     23  N   UNL     1      -2.190  -6.830   0.791  0.00  0.00    -0.343 N 
ATOM     24  H   UNL     1      -2.496  -6.263   1.516  0.00  0.00    +0.144 HD
ATOM     25  H   UNL     1      -2.302  -7.792   0.847  0.00  0.00    +0.144 HD
BRANCH  21  26
ATOM     26  N   UNL     1      -0.098  -7.225  -3.535  0.00  0.00    -0.343 N 
ATOM     27  H   UNL     1      -0.192  -8.190  -3.516  0.00  0.00    +0.144 HD
ATOM     28  H   UNL     1       0.315  -6.793  -4.299  0.00  0.00    +0.144 HD
ENDBRANCH  21  26
ENDBRANCH  16  17
ENDBRANCH   1  16
TORSDOF 7
