REMARK  Name = ZINC54381316
REMARK  4 active torsions:
REMARK  status: ('A' for Active; 'I' for Inactive)
REMARK    1  A    between atoms: C_1  and  C_2
REMARK    2  A    between atoms: C_2  and  C_18
REMARK    3  A    between atoms: C_9  and  C_14
REMARK    4  A    between atoms: N_15  and  O_16
REMARK                            x       y       z     vdW  Elec       q    Type
REMARK                         _______ _______ _______ _____ _____    ______ ____
ROOT
ATOM      1  C   UNL     1      -0.029   1.543  -0.019  0.00  0.00    +0.043 C 
ATOM      2  C   UNL     1      -0.008   0.013  -0.044  0.00  0.00    +0.080 C 
ATOM      3  C   UNL     1      -1.446  -0.519  -0.022  0.00  0.00    +0.141 C 
ATOM      4  N   UNL     1      -2.038  -0.202   1.288  0.00  0.00    -0.309 N 
ATOM      5  C   UNL     1      -1.281  -0.568   2.496  0.00  0.00    +0.134 C 
ATOM      6  C   UNL     1       0.148  -0.033   2.351  0.00  0.00    +0.179 C 
ATOM      7  O   UNL     1       0.692  -0.473   1.104  0.00  0.00    -0.371 OA
ATOM      8  C   UNL     1      -3.272   0.421   1.380  0.00  0.00    +0.151 A 
ATOM      9  C   UNL     1      -4.452  -0.341   1.353  0.00  0.00    +0.146 A 
ATOM     10  N   UNL     1      -5.630   0.268   1.442  0.00  0.00    -0.247 NA
ATOM     11  C   UNL     1      -5.687   1.581   1.556  0.00  0.00    +0.131 A 
ATOM     12  C   UNL     1      -4.524   2.332   1.583  0.00  0.00    +0.132 A 
ATOM     13  N   UNL     1      -3.345   1.740   1.500  0.00  0.00    -0.237 NA
ATOM     14  C   UNL     1       0.696  -0.468  -1.314  0.00  0.00    +0.043 C 
ENDROOT
BRANCH   9  15
ATOM     15  C   UNL     1      -4.383  -1.812   1.225  0.00  0.00    +0.184 C 
ATOM     16  N   UNL     1      -3.230  -2.414   1.249  0.00  0.00    -0.070 NA
ATOM     17  N   UNL     1      -5.546  -2.550   1.079  0.00  0.00    -0.339 N 
ATOM     18  H   UNL     1      -6.406  -2.101   1.060  0.00  0.00    +0.144 HD
ATOM     19  H   UNL     1      -5.501  -3.515   0.995  0.00  0.00    +0.144 HD
BRANCH  16  20
ATOM     20  O   UNL     1      -3.155  -3.810   1.020  0.00  0.00    -0.408 OA
ATOM     21  H   UNL     1      -2.257  -4.167   1.058  0.00  0.00    +0.328 HD
ENDBRANCH  16  20
ENDBRANCH   9  15
TORSDOF 2
