REMARK  Name = ZINC13639013
REMARK  6 active torsions:
REMARK  status: ('A' for Active; 'I' for Inactive)
REMARK    1  A    between atoms: C_1  and  C_2
REMARK    2  A    between atoms: C_5  and  C_21
REMARK    3  A    between atoms: C_5  and  C_22
REMARK    4  A    between atoms: N_14  and  N_15
REMARK    5  A    between atoms: N_15  and  C_16
REMARK    6  A    between atoms: C_16  and  N_18
REMARK                            x       y       z     vdW  Elec       q    Type
REMARK                         _______ _______ _______ _____ _____    ______ ____
ROOT
ATOM      1  C   UNL     1       0.336   1.385  -0.208  0.00  0.00    +0.012 C 
ATOM      2  C   UNL     1       0.133  -0.130  -0.141  0.00  0.00    +0.020 C 
ATOM      3  C   UNL     1      -1.353  -0.436   0.070  0.00  0.00    +0.033 C 
ATOM      4  C   UNL     1      -1.613  -1.940   0.221  0.00  0.00    +0.038 C 
ATOM      5  N   UNL     1      -0.777  -2.448   1.322  0.00  0.00    -0.260 N 
ATOM      6  C   UNL     1       0.412  -1.811   1.642  0.00  0.00    +0.050 A 
ATOM      7  C   UNL     1       0.931  -0.691   0.999  0.00  0.00    -0.022 A 
ATOM      8  C   UNL     1       2.128  -0.207   1.472  0.00  0.00    +0.006 A 
ATOM      9  C   UNL     1       2.773  -0.820   2.538  0.00  0.00    +0.001 A 
ATOM     10  C   UNL     1       2.263  -1.940   3.185  0.00  0.00    +0.012 A 
ATOM     11  C   UNL     1       1.053  -2.439   2.715  0.00  0.00    +0.029 A 
ATOM     12  C   UNL     1       0.182  -3.561   3.083  0.00  0.00    +0.153 C 
ATOM     13  N   UNL     1       0.375  -4.437   4.040  0.00  0.00    -0.175 NA
ATOM     14  C   UNL     1      -0.965  -3.492   2.140  0.00  0.00    +0.272 C 
ATOM     15  O   UNL     1      -1.913  -4.254   2.115  0.00  0.00    -0.268 OA
ATOM     16  C   UNL     1      -1.246  -2.660  -1.078  0.00  0.00    +0.032 C 
ATOM     17  C   UNL     1      -3.090  -2.178   0.543  0.00  0.00    +0.032 C 
ENDROOT
BRANCH  13  18
ATOM     18  N   UNL     1       1.452  -4.285   4.922  0.00  0.00    -0.218 N 
ATOM     19  H   UNL     1       2.005  -3.489   4.880  0.00  0.00    +0.176 HD
BRANCH  18  20
ATOM     20  C   UNL     1       1.722  -5.246   5.828  0.00  0.00    +0.147 C 
ATOM     21  S   UNL     1       3.039  -5.061   6.906  0.00  0.00    -0.017 S 
BRANCH  20  22
ATOM     22  N   UNL     1       0.954  -6.353   5.886  0.00  0.00    -0.339 N 
ATOM     23  H   UNL     1       0.208  -6.457   5.275  0.00  0.00    +0.144 HD
ATOM     24  H   UNL     1       1.148  -7.044   6.538  0.00  0.00    +0.144 HD
ENDBRANCH  20  22
ENDBRANCH  18  20
ENDBRANCH  13  18
TORSDOF 3
