REMARK  Name = ZINC04852365
REMARK  7 active torsions:
REMARK  status: ('A' for Active; 'I' for Inactive)
REMARK    1  A    between atoms: C_1  and  C_2
REMARK    2  A    between atoms: C_5  and  N_9
REMARK    3  A    between atoms: C_6  and  C_8
REMARK    4  A    between atoms: C_10  and  C_12
REMARK    5  A    between atoms: C_13  and  N_25
REMARK    6  A    between atoms: N_14  and  C_17
REMARK    7  A    between atoms: C_17  and  C_18
REMARK                            x       y       z     vdW  Elec       q    Type
REMARK                         _______ _______ _______ _____ _____    ______ ____
ROOT
ATOM      1  C   UNL     1      -3.678  -1.042  -0.197  0.00  0.00    +0.188 A 
ATOM      2  C   UNL     1      -3.809  -2.420  -0.314  0.00  0.00    +0.147 A 
ATOM      3  N   UNL     1      -5.137  -2.673  -0.384  0.00  0.00    -0.226 N 
ATOM      4  N   UNL     1      -5.792  -1.436  -0.308  0.00  0.00    -0.063 NA
ATOM      5  N   UNL     1      -4.912  -0.504  -0.195  0.00  0.00    -0.123 NA
ENDROOT
BRANCH   1   7
ATOM      6  N   UNL     1      -2.427   1.041   0.020  0.00  0.00    -0.280 N 
ATOM      7  C   UNL     1      -2.414  -0.302  -0.089  0.00  0.00    +0.272 C 
ATOM      8  O   UNL     1      -1.355  -0.902  -0.097  0.00  0.00    -0.268 OA
ATOM      9  H   UNL     1      -3.271   1.513   0.107  0.00  0.00    +0.155 HD
BRANCH   6  14
ATOM     10  C   UNL     1       2.446   3.944  -0.044  0.00  0.00    +0.044 C 
ATOM     11  C   UNL     1       1.152   3.171  -0.025  0.00  0.00    -0.050 A 
ATOM     12  C   UNL     1       1.082   1.928  -0.626  0.00  0.00    +0.005 A 
ATOM     13  C   UNL     1      -0.103   1.218  -0.610  0.00  0.00    +0.024 A 
ATOM     14  C   UNL     1      -1.225   1.756   0.006  0.00  0.00    +0.037 A 
ATOM     15  C   UNL     1      -1.149   3.002   0.614  0.00  0.00    -0.029 A 
ATOM     16  C   UNL     1       0.038   3.707   0.594  0.00  0.00    +0.008 A 
ATOM     17  C   UNL     1      -2.363   3.587   1.288  0.00  0.00    +0.045 C 
ENDBRANCH   6  14
ENDBRANCH   1   7
BRANCH   2  18
ATOM     18  N   UNL     1      -2.788  -3.347  -0.352  0.00  0.00    -0.341 N 
ATOM     19  H   UNL     1      -1.865  -3.055  -0.293  0.00  0.00    +0.144 HD
ATOM     20  H   UNL     1      -2.994  -4.292  -0.436  0.00  0.00    +0.144 HD
ENDBRANCH   2  18
BRANCH   3  21
ATOM     21  C   UNL     1      -5.769  -3.988  -0.514  0.00  0.00    +0.182 C 
BRANCH  21  22
ATOM     22  C   UNL     1      -6.039  -4.553   0.856  0.00  0.00    -0.026 A 
ATOM     23  C   UNL     1      -5.086  -5.336   1.481  0.00  0.00    +0.006 A 
ATOM     24  C   UNL     1      -5.331  -5.851   2.740  0.00  0.00    +0.015 A 
ATOM     25  C   UNL     1      -6.535  -5.591   3.370  0.00  0.00    +0.018 A 
ATOM     26  C   UNL     1      -7.490  -4.813   2.743  0.00  0.00    +0.015 A 
ATOM     27  C   UNL     1      -7.242  -4.294   1.486  0.00  0.00    +0.006 A 
ATOM     28 BR   UNL     1      -6.873  -6.301   5.090  0.00  0.00    -0.050 Br
ENDBRANCH  21  22
ENDBRANCH   3  21
TORSDOF 5
