REMARK  Name = ZINC46704514
REMARK  7 active torsions:
REMARK  status: ('A' for Active; 'I' for Inactive)
REMARK    1  A    between atoms: C_1  and  C_2
REMARK    2  A    between atoms: C_5  and  N_8
REMARK    3  A    between atoms: N_11  and  N_12
REMARK    4  A    between atoms: C_13  and  C_15
REMARK    5  A    between atoms: C_15  and  C_17
REMARK    6  A    between atoms: C_15  and  O_18
REMARK    7  A    between atoms: O_18  and  C_19
REMARK                            x       y       z     vdW  Elec       q    Type
REMARK                         _______ _______ _______ _____ _____    ______ ____
ROOT
ATOM      1  N   UNL     1      -0.011  -7.002   0.171  0.00  0.00    -0.230 N 
ATOM      2  C   UNL     1       0.274  -8.313   0.043  0.00  0.00    +0.270 C 
ATOM      3  O   UNL     1       0.578  -8.966   1.019  0.00  0.00    -0.270 OA
ATOM      4  H   UNL     1      -0.254  -6.480  -0.609  0.00  0.00    +0.173 HD
ENDROOT
BRANCH   1   8
ATOM      5  N   UNL     1      -0.577  -4.356   0.475  0.00  0.00    -0.268 N 
ATOM      6  C   UNL     1      -0.239  -5.082   1.560  0.00  0.00    +0.320 C 
ATOM      7  O   UNL     1      -0.190  -4.553   2.654  0.00  0.00    -0.251 OA
ATOM      8  N   UNL     1       0.046  -6.393   1.432  0.00  0.00    -0.218 N 
ATOM      9  H   UNL     1      -0.691  -4.792  -0.384  0.00  0.00    +0.156 HD
ATOM     10  H   UNL     1       0.289  -6.915   2.212  0.00  0.00    +0.174 HD
BRANCH   5  15
ATOM     11  C   UNL     1      -1.334   1.248   0.933  0.00  0.00    +0.044 C 
ATOM     12  C   UNL     1      -1.133  -0.241   0.812  0.00  0.00    -0.050 A 
ATOM     13  C   UNL     1      -0.194  -0.877   1.603  0.00  0.00    +0.005 A 
ATOM     14  C   UNL     1      -0.007  -2.241   1.494  0.00  0.00    +0.023 A 
ATOM     15  C   UNL     1      -0.764  -2.974   0.589  0.00  0.00    +0.035 A 
ATOM     16  C   UNL     1      -1.706  -2.332  -0.204  0.00  0.00    +0.023 A 
ATOM     17  C   UNL     1      -1.892  -0.969  -0.086  0.00  0.00    +0.005 A 
ENDBRANCH   5  15
ENDBRANCH   1   8
BRANCH   2  18
ATOM     18  C   UNL     1       0.213  -8.968  -1.313  0.00  0.00    +0.257 C 
ATOM     19  C   UNL     1       1.289  -8.366  -2.219  0.00  0.00    +0.062 C 
BRANCH  18  20
ATOM     20  O   UNL     1       0.439 -10.372  -1.174  0.00  0.00    -0.480 OA
BRANCH  20  21
ATOM     21  C   UNL     1      -0.067 -11.178  -2.144  0.00  0.00    +0.123 A 
ATOM     22  C   UNL     1       0.009 -12.557  -2.013  0.00  0.00    +0.046 A 
ATOM     23  C   UNL     1      -0.506 -13.374  -3.001  0.00  0.00    +0.005 A 
ATOM     24  C   UNL     1      -1.097 -12.818  -4.120  0.00  0.00    +0.015 A 
ATOM     25  C   UNL     1      -1.174 -11.444  -4.254  0.00  0.00    +0.021 A 
ATOM     26  C   UNL     1      -0.666 -10.622  -3.265  0.00  0.00    +0.061 A 
ATOM     27 BR   UNL     1      -1.983 -10.688  -5.788  0.00  0.00    -0.050 Br
ENDBRANCH  20  21
ENDBRANCH  18  20
ENDBRANCH   2  18
TORSDOF 5
