REMARK  Name = ZINC05000148
REMARK  6 active torsions:
REMARK  status: ('A' for Active; 'I' for Inactive)
REMARK    1  A    between atoms: C_4  and  N_7
REMARK    2  A    between atoms: C_12  and  O_29
REMARK    3  A    between atoms: C_15  and  C_17
REMARK    4  A    between atoms: N_19  and  C_20
REMARK    5  A    between atoms: C_20  and  C_21
REMARK    6  A    between atoms: C_21  and  C_22
REMARK                            x       y       z     vdW  Elec       q    Type
REMARK                         _______ _______ _______ _____ _____    ______ ____
ROOT
ATOM      1  N   UNL     1       3.622  -0.651  -0.036  0.00  0.00    -0.269 N 
ATOM      2  C   UNL     1       3.645  -1.995   0.058  0.00  0.00    +0.307 C 
ATOM      3  O   UNL     1       2.603  -2.622   0.065  0.00  0.00    -0.252 OA
ATOM      4  N   UNL     1       4.823  -2.644   0.144  0.00  0.00    -0.271 N 
ATOM      5  C   UNL     1       6.154  -2.011   0.153  0.00  0.00    +0.141 C 
ATOM      6  C   UNL     1       7.074  -3.032   0.869  0.00  0.00    +0.134 C 
ATOM      7  C   UNL     1       6.507  -4.380   0.349  0.00  0.00    +0.065 C 
ATOM      8  C   UNL     1       4.992  -4.101   0.252  0.00  0.00    +0.166 C 
ATOM      9  H   UNL     1       4.452  -0.156  -0.120  0.00  0.00    +0.156 HD
ENDROOT
BRANCH   1  13
ATOM     10  C   UNL     1      -0.015   1.381   0.032  0.00  0.00    +0.000 A 
ATOM     11  C   UNL     1       0.140   0.219   0.765  0.00  0.00    +0.002 A 
ATOM     12  C   UNL     1       1.344  -0.457   0.745  0.00  0.00    +0.023 A 
ATOM     13  C   UNL     1       2.400   0.031  -0.014  0.00  0.00    +0.035 A 
ATOM     14  C   UNL     1       2.241   1.198  -0.749  0.00  0.00    +0.023 A 
ATOM     15  C   UNL     1       1.034   1.870  -0.724  0.00  0.00    +0.002 A 
ENDBRANCH   1  13
BRANCH   8  16
ATOM     16  C   UNL     1       4.428  -4.774  -0.973  0.00  0.00    +0.234 C 
ATOM     17  O   UNL     1       4.241  -4.133  -1.985  0.00  0.00    -0.274 OA
ATOM     18  N   UNL     1       4.130  -6.088  -0.942  0.00  0.00    -0.313 N 
ATOM     19  H   UNL     1       4.280  -6.601  -0.132  0.00  0.00    +0.149 HD
BRANCH  18  20
ATOM     20  C   UNL     1       3.581  -6.743  -2.132  0.00  0.00    +0.109 C 
BRANCH  20  21
ATOM     21  C   UNL     1       3.335  -8.223  -1.832  0.00  0.00    +0.056 C 
BRANCH  21  22
ATOM     22  C   UNL     1       2.770  -8.896  -3.057  0.00  0.00    -0.011 A 
ATOM     23  C   UNL     1       1.402  -9.032  -3.202  0.00  0.00    +0.006 A 
ATOM     24  C   UNL     1       0.884  -9.650  -4.325  0.00  0.00    +0.000 A 
ATOM     25  C   UNL     1       1.733 -10.132  -5.304  0.00  0.00    +0.003 A 
ATOM     26  C   UNL     1       3.101  -9.997  -5.161  0.00  0.00    +0.038 A 
ATOM     27  C   UNL     1       3.621  -9.374  -4.039  0.00  0.00    +0.127 A 
ATOM     28  F   UNL     1       4.958  -9.237  -3.900  0.00  0.00    -0.205 F 
ENDBRANCH  21  22
ENDBRANCH  20  21
ENDBRANCH  18  20
ENDBRANCH   8  16
BRANCH   6  29
ATOM     29  O   UNL     1       6.941  -2.934   2.288  0.00  0.00    -0.390 OA
ATOM     30  H   UNL     1       7.192  -2.072   2.648  0.00  0.00    +0.210 HD
ENDBRANCH   6  29
TORSDOF 6
