REMARK  Name = ZINC40688238
REMARK  7 active torsions:
REMARK  status: ('A' for Active; 'I' for Inactive)
REMARK    1  A    between atoms: C_1  and  C_2
REMARK    2  A    between atoms: C_2  and  C_3
REMARK    3  A    between atoms: C_8  and  N_9
REMARK    4  A    between atoms: C_11  and  N_24
REMARK    5  A    between atoms: C_12  and  N_16
REMARK    6  A    between atoms: N_16  and  C_17
REMARK    7  A    between atoms: N_16  and  C_18
REMARK                            x       y       z     vdW  Elec       q    Type
REMARK                         _______ _______ _______ _____ _____    ______ ____
ROOT
ATOM      1  N   UNL     1      -1.328  -0.259   2.480  0.00  0.00    -0.299 N 
ATOM      2  C   UNL     1      -2.020  -0.537   3.654  0.00  0.00    +0.126 A 
ATOM      3  C   UNL     1      -3.401  -0.345   3.725  0.00  0.00    +0.104 A 
ATOM      4  C   UNL     1      -4.046  -0.640   4.927  0.00  0.00    +0.151 A 
ATOM      5  N   UNL     1      -3.326  -1.090   5.952  0.00  0.00    -0.220 NA
ATOM      6  C   UNL     1      -2.024  -1.258   5.843  0.00  0.00    +0.200 A 
ATOM      7  N   UNL     1      -1.377  -0.997   4.725  0.00  0.00    -0.333 N 
ATOM      8  H   UNL     1      -1.791   0.138   1.726  0.00  0.00    +0.154 HD
ATOM      9  H   UNL     1      -0.418  -1.137   4.683  0.00  0.00    +0.168 HD
ENDROOT
BRANCH   1  15
ATOM     10  C   UNL     1       0.458  -1.868   2.251  0.00  0.00    -0.026 A 
ATOM     11  C   UNL     1       1.806  -2.153   2.154  0.00  0.00    +0.005 A 
ATOM     12  C   UNL     1       2.735  -1.130   2.197  0.00  0.00    +0.000 A 
ATOM     13  C   UNL     1       2.318   0.182   2.338  0.00  0.00    +0.002 A 
ATOM     14  C   UNL     1       0.973   0.474   2.436  0.00  0.00    +0.023 A 
ATOM     15  C   UNL     1       0.036  -0.551   2.387  0.00  0.00    +0.036 A 
BRANCH  10  17
ATOM     16  C   UNL     1      -1.061  -3.152   0.771  0.00  0.00    +0.009 C 
ATOM     17  C   UNL     1      -0.554  -2.983   2.204  0.00  0.00    +0.033 C 
ENDBRANCH  10  17
ENDBRANCH   1  15
BRANCH   3  18
ATOM     18  N   UNL     1      -4.121   0.132   2.618  0.00  0.00    -0.353 N 
ATOM     19  H   UNL     1      -3.673   0.262   1.768  0.00  0.00    +0.143 HD
ATOM     20  H   UNL     1      -5.066   0.333   2.704  0.00  0.00    +0.143 HD
ENDBRANCH   3  18
BRANCH   4  21
ATOM     21  N   UNL     1      -5.420  -0.466   5.052  0.00  0.00    -0.287 N 
ATOM     22  C   UNL     1      -5.953   0.783   5.602  0.00  0.00    +0.137 C 
BRANCH  21  23
ATOM     23  C   UNL     1      -6.293  -1.482   4.653  0.00  0.00    +0.035 A 
ATOM     24  C   UNL     1      -5.790  -2.713   4.251  0.00  0.00    +0.023 A 
ATOM     25  C   UNL     1      -6.654  -3.716   3.858  0.00  0.00    +0.002 A 
ATOM     26  C   UNL     1      -8.019  -3.495   3.864  0.00  0.00    +0.000 A 
ATOM     27  C   UNL     1      -8.524  -2.271   4.263  0.00  0.00    +0.002 A 
ATOM     28  C   UNL     1      -7.665  -1.266   4.663  0.00  0.00    +0.023 A 
ENDBRANCH  21  23
ENDBRANCH   4  21
TORSDOF 5
