REMARK  Name = ZINC55084284
REMARK  8 active torsions:
REMARK  status: ('A' for Active; 'I' for Inactive)
REMARK    1  A    between atoms: C_1  and  C_2
REMARK    2  A    between atoms: C_2  and  C_3
REMARK    3  A    between atoms: C_3  and  C_5
REMARK    4  A    between atoms: C_3  and  N_6
REMARK    5  A    between atoms: N_14  and  CA_15
REMARK    6  A    between atoms: CA_15  and  CB_17
REMARK    7  A    between atoms: CA_15  and  C_21
REMARK    8  A    between atoms: CB_17  and  CG_18
REMARK                            x       y       z     vdW  Elec       q    Type
REMARK                         _______ _______ _______ _____ _____    ______ ____
ROOT
ATOM      1  N   UNK A   0      -2.143  -0.274   1.391  0.00  0.00    +0.383 N 
ATOM      2  C   UNK A   0      -3.421  -0.990   1.492  0.00  0.00    -0.059 C 
ATOM      3  C   UNK A   0      -3.996  -0.808   2.901  0.00  0.00    +0.091 C 
ATOM      4  N   UNK A   0      -4.083   0.632   3.187  0.00  0.00    -0.289 N 
ATOM      5  C   UNK A   0      -2.888   1.458   2.955  0.00  0.00    +0.091 C 
ATOM      6  C   UNK A   0      -2.365   1.170   1.544  0.00  0.00    -0.059 C 
ATOM      7  C   UNK A   0      -5.225   1.179   3.649  0.00  0.00    +0.303 C 
ATOM      8  O   UNK A   0      -5.252   2.353   3.965  0.00  0.00    -0.253 OA
ATOM      9  N   ASN A   1      -6.336   0.425   3.761  0.00  0.00    -0.285 N 
ATOM     10  H   ASN A   1      -6.296  -0.527   3.580  0.00  0.00    +0.151 HD
ATOM     11  H   UNK A   0      -1.521  -0.596   2.117  0.00  0.00    -0.081 HD
ENDROOT
BRANCH   1  12
ATOM     12  C   UNK A   0      -1.539  -0.538   0.078  0.00  0.00    -0.072 C 
ATOM     13  C   UNK A   0      -2.540  -0.186  -1.024  0.00  0.00    -0.013 C 
BRANCH  12  15
ATOM     14  C   UNK A   0      -0.073  -2.341   0.995  0.00  0.00    +0.002 C 
ATOM     15  C   UNK A   0      -1.168  -2.018  -0.024  0.00  0.00    -0.019 C 
ENDBRANCH  12  15
ENDBRANCH   1  12
BRANCH   9  16
ATOM     16  CA  ASN A   1      -7.604   1.044   4.154  0.00  0.00    +0.196 C 
BRANCH  16  17
ATOM     17  C   ASN A   1      -8.286   1.611   2.936  0.00  0.00    +0.376 C 
ATOM     18  O   ASN A   1      -7.860   1.354   1.823  0.00  0.00    -0.244 OA
ATOM     19  OXT ASN A   1      -9.264   2.328   3.063  0.00  0.00    -0.244 OA
ENDBRANCH  16  17
BRANCH  16  20
ATOM     20  CB  ASN A   1      -8.507  -0.010   4.800  0.00  0.00    +0.129 C 
BRANCH  20  21
ATOM     21  CG  ASN A   1      -7.881  -0.489   6.084  0.00  0.00    +0.213 C 
ATOM     22  OD1 ASN A   1      -6.818  -0.033   6.448  0.00  0.00    -0.276 OA
ATOM     23  ND2 ASN A   1      -8.503  -1.424   6.829  0.00  0.00    -0.329 N 
ATOM     24 HD21 ASN A   1      -9.354  -1.789   6.538  0.00  0.00    +0.145 HD
ATOM     25 HD22 ASN A   1      -8.100  -1.733   7.656  0.00  0.00    +0.145 HD
ENDBRANCH  20  21
ENDBRANCH  16  20
ENDBRANCH   9  16
TORSDOF 6
