REMARK  Name = ZINC14405768
REMARK  6 active torsions:
REMARK  status: ('A' for Active; 'I' for Inactive)
REMARK    1  A    between atoms: C_4  and  C_7
REMARK    2  A    between atoms: C_7  and  C_9
REMARK    3  A    between atoms: C_7  and  N_27
REMARK    4  A    between atoms: C_9  and  C_10
REMARK    5  A    between atoms: N_15  and  S_18
REMARK    6  A    between atoms: S_18  and  C_21
REMARK                            x       y       z     vdW  Elec       q    Type
REMARK                         _______ _______ _______ _____ _____    ______ ____
ROOT
ATOM      1  C   UNL     1       4.811  -0.372  -5.734  0.00  0.00    +0.218 C 
ATOM      2  O   UNL     1       5.212   0.495  -6.481  0.00  0.00    -0.276 OA
ATOM      3  N   UNL     1       4.667  -0.115  -4.419  0.00  0.00    -0.299 N 
ATOM      4  C   UNL     1       4.992   1.211  -3.876  0.00  0.00    +0.125 C 
ATOM      5  C   UNL     1       6.014   1.040  -2.744  0.00  0.00    +0.128 C 
ATOM      6  N   UNL     1       5.529  -0.001  -1.827  0.00  0.00    -0.173 NA
ATOM      7  C   UNL     1       5.208  -1.329  -2.370  0.00  0.00    +0.128 C 
ATOM      8  C   UNL     1       4.182  -1.156  -3.502  0.00  0.00    +0.125 C 
ENDROOT
BRANCH   6   9
ATOM      9  S   UNL     1       5.353   0.315  -0.211  0.00  0.00    +0.067 S 
ATOM     10  O   UNL     1       6.227   1.393   0.089  0.00  0.00    -0.152 OA
ATOM     11  O   UNL     1       5.429  -0.937   0.457  0.00  0.00    -0.152 OA
BRANCH   9  12
ATOM     12  C   UNL     1       3.713   0.914   0.027  0.00  0.00    +0.144 A 
ATOM     13  C   UNL     1       2.582   0.219   0.298  0.00  0.00    +0.038 A 
ATOM     14  C   UNL     1       1.391   0.907   0.446  0.00  0.00    +0.030 A 
ATOM     15  C   UNL     1       1.392   2.257   0.316  0.00  0.00    +0.080 A 
ATOM     16  S   UNL     1       3.111   2.594  -0.027  0.00  0.00    -0.057 S 
ATOM     17 CL   UNL     1       0.064   3.368   0.441  0.00  0.00    -0.076 Cl
ENDBRANCH   9  12
ENDBRANCH   6   9
BRANCH   1  18
ATOM     18  C   UNL     1       4.473  -1.737  -6.277  0.00  0.00    +0.123 C 
BRANCH  18  19
ATOM     19  C   UNL     1       4.723  -1.762  -7.786  0.00  0.00    +0.113 C 
BRANCH  19  20
ATOM     20  N   UNL     1       3.798  -0.841  -8.450  0.00  0.00    -0.292 N 
ATOM     21  C   UNL     1       2.470  -1.068  -8.401  0.00  0.00    +0.298 C 
ATOM     22  O   UNL     1       2.034  -1.982  -7.728  0.00  0.00    -0.253 OA
ATOM     23  N   UNL     1       1.626  -0.282  -9.098  0.00  0.00    -0.313 N 
ATOM     24  H   UNL     1       4.140  -0.067  -8.925  0.00  0.00    +0.151 HD
ATOM     25  H   UNL     1       1.974   0.448  -9.634  0.00  0.00    +0.146 HD
ATOM     26  H   UNL     1       0.670  -0.445  -9.062  0.00  0.00    +0.146 HD
ENDBRANCH  19  20
BRANCH  19  30
ATOM     27  C   UNL     1       4.101  -5.720  -9.267  0.00  0.00    +0.000 A 
ATOM     28  C   UNL     1       3.952  -4.635 -10.110  0.00  0.00    +0.000 A 
ATOM     29  C   UNL     1       4.153  -3.354  -9.631  0.00  0.00    +0.005 A 
ATOM     30  C   UNL     1       4.504  -3.158  -8.308  0.00  0.00    -0.027 A 
ATOM     31  C   UNL     1       4.658  -4.244  -7.466  0.00  0.00    +0.005 A 
ATOM     32  C   UNL     1       4.452  -5.524  -7.944  0.00  0.00    +0.000 A 
ENDBRANCH  19  30
ENDBRANCH  18  19
ENDBRANCH   1  18
TORSDOF 6
