REMARK  Name = ZINC01924294
REMARK  5 active torsions:
REMARK  status: ('A' for Active; 'I' for Inactive)
REMARK    1  A    between atoms: C_11  and  S_14
REMARK    2  A    between atoms: S_14  and  C_15
REMARK    3  A    between atoms: C_15  and  C_16
REMARK    4  A    between atoms: N_18  and  C_19
REMARK    5  A    between atoms: C_20  and  C_28
REMARK                            x       y       z     vdW  Elec       q    Type
REMARK                         _______ _______ _______ _____ _____    ______ ____
ROOT
ATOM      1  C   UNL     1       3.276   7.607   0.009  0.00  0.00    +0.173 C 
ENDROOT
BRANCH   1   2
ATOM      2  C   UNL     1       4.783   7.607  -0.006  0.00  0.00    +0.228 C 
ATOM      3  O   UNL     1       5.390   6.557  -0.017  0.00  0.00    -0.275 OA
ATOM      4  N   UNL     1       5.456   8.775  -0.007  0.00  0.00    -0.278 N 
ATOM      5  H   UNL     1       4.971   9.614   0.002  0.00  0.00    +0.155 HD
BRANCH   4   6
ATOM      6  C   UNL     1       6.844   8.775  -0.021  0.00  0.00    +0.090 A 
ATOM      7  C   UNL     1       7.705   9.862  -0.030  0.00  0.00    +0.084 A 
ATOM      8  C   UNL     1       9.132   9.590  -0.040  0.00  0.00    -0.018 A 
ATOM      9  C   UNL     1       9.467   8.280  -0.050  0.00  0.00    -0.004 A 
ATOM     10  S   UNL     1       7.921   7.418  -0.039  0.00  0.00    -0.077 S 
ATOM     11  C   UNL     1      10.848   7.702  -0.068  0.00  0.00    +0.043 C 
ATOM     12  C   UNL     1      11.834   8.816  -0.451  0.00  0.00    +0.005 C 
ATOM     13  C   UNL     1      11.531  10.056   0.395  0.00  0.00    +0.005 C 
ATOM     14  C   UNL     1      10.203  10.674  -0.045  0.00  0.00    +0.037 C 
BRANCH   7  15
ATOM     15  C   UNL     1       7.206  11.205  -0.025  0.00  0.00    +0.102 C 
ATOM     16  N   UNL     1       6.810  12.269  -0.021  0.00  0.00    -0.191 NA
ENDBRANCH   7  15
ENDBRANCH   4   6
ENDBRANCH   1   2
BRANCH   1  17
ATOM     17  S   UNL     1       2.673   5.900   0.006  0.00  0.00    -0.076 S 
BRANCH  17  28
ATOM     18  C   UNL     1      -0.013   1.076   0.008  0.00  0.00    +0.001 A 
ATOM     19  C   UNL     1       1.182   1.782   0.000  0.00  0.00    +0.002 A 
ATOM     20  C   UNL     1       1.182   3.161   0.008  0.00  0.00    +0.027 A 
ATOM     21  C   UNL     1      -0.021   3.855   0.023  0.00  0.00    +0.058 A 
ATOM     22  C   UNL     1      -1.232   3.142   0.031  0.00  0.00    -0.001 A 
ATOM     23  C   UNL     1      -1.217   1.744   0.017  0.00  0.00    +0.010 A 
ATOM     24  C   UNL     1      -2.498   3.882   0.049  0.00  0.00    +0.013 A 
ATOM     25  C   UNL     1      -2.471   5.233   0.054  0.00  0.00    +0.049 A 
ATOM     26  C   UNL     1      -1.237   5.925   0.045  0.00  0.00    +0.162 A 
ATOM     27  N   UNL     1      -0.043   5.239   0.030  0.00  0.00    -0.270 N 
ATOM     28  C   UNL     1       0.935   6.189   0.025  0.00  0.00    +0.197 A 
ATOM     29  N   UNL     1       0.340   7.361   0.036  0.00  0.00    -0.122 NA
ATOM     30  N   UNL     1      -0.937   7.211   0.048  0.00  0.00    -0.129 NA
ENDBRANCH  17  28
ENDBRANCH   1  17
TORSDOF 5
