REMARK  Name = ZINC02127711
REMARK  4 active torsions:
REMARK  status: ('A' for Active; 'I' for Inactive)
REMARK    1  A    between atoms: C_12  and  C_14
REMARK    2  A    between atoms: C_14  and  C_15
REMARK    3  A    between atoms: C_15  and  C_16
REMARK    4  A    between atoms: N_21  and  C_24
REMARK                            x       y       z     vdW  Elec       q    Type
REMARK                         _______ _______ _______ _____ _____    ______ ____
ROOT
ATOM      1  C   UNL     1       5.036   1.080  -2.662  0.00  0.00    +0.000 A 
ATOM      2  C   UNL     1       6.088   0.767  -1.821  0.00  0.00    +0.002 A 
ATOM      3  C   UNL     1       5.852   0.442  -0.501  0.00  0.00    +0.023 A 
ATOM      4  C   UNL     1       4.550   0.427  -0.005  0.00  0.00    +0.036 A 
ATOM      5  C   UNL     1       3.499   0.742  -0.862  0.00  0.00    -0.028 A 
ATOM      6  C   UNL     1       3.740   1.066  -2.178  0.00  0.00    +0.004 A 
ATOM      7  C   UNL     1       2.249   0.633  -0.035  0.00  0.00    +0.050 C 
ATOM      8  C   UNL     1       1.478   1.958  -0.002  0.00  0.00    +0.088 C 
ATOM      9  C   UNL     1      -0.019   1.540   0.011  0.00  0.00    +0.073 C 
ATOM     10  C   UNL     1       0.002  -0.004   0.002  0.00  0.00    -0.057 C 
ATOM     11  C   UNL     1      -0.504   2.021   1.359  0.00  0.00    +0.224 C 
ATOM     12  O   UNL     1      -1.633   1.898   1.782  0.00  0.00    -0.275 OA
ATOM     13  N   UNL     1       0.507   2.606   2.013  0.00  0.00    -0.239 N 
ATOM     14  C   UNL     1       1.665   2.625   1.342  0.00  0.00    +0.225 C 
ATOM     15  O   UNL     1       2.702   3.102   1.749  0.00  0.00    -0.275 OA
ATOM     16  C   UNL     1       2.721   0.236   1.337  0.00  0.00    +0.211 C 
ATOM     17  O   UNL     1       2.028   0.043   2.313  0.00  0.00    -0.277 OA
ATOM     18  N   UNL     1       4.063   0.137   1.271  0.00  0.00    -0.286 N 
ATOM     19  H   UNL     1       4.625  -0.109   2.022  0.00  0.00    +0.155 HD
ATOM     20  N   UNL     1       1.309  -0.337  -0.569  0.00  0.00    +0.394 N 
ATOM     21  H   UNL     1       1.585  -1.287  -0.295  0.00  0.00    -0.083 HD
ATOM     22  H   UNL     1       1.276  -0.272  -1.593  0.00  0.00    -0.083 HD
ENDROOT
BRANCH  13  23
ATOM     23  C   UNL     1       0.358   3.177   3.353  0.00  0.00    +0.084 C 
ATOM     24  C   UNL     1      -0.133   2.096   4.338  0.00  0.00    +0.023 C 
ATOM     25  C   UNL     1      -1.104   2.853   5.279  0.00  0.00    +0.002 C 
ATOM     26  C   UNL     1      -1.821   3.831   4.316  0.00  0.00    +0.002 C 
ATOM     27  C   UNL     1      -0.714   4.280   3.340  0.00  0.00    +0.023 C 
ENDBRANCH  13  23
BRANCH  10  28
ATOM     28  C   UNL     1      -1.139  -0.547  -0.861  0.00  0.00    -0.006 C 
BRANCH  28  29
ATOM     29  C   UNL     1      -1.176  -2.073  -0.755  0.00  0.00    +0.094 C 
BRANCH  29  30
ATOM     30  C   UNL     1      -2.300  -2.608  -1.605  0.00  0.00    +0.210 C 
ATOM     31  O   UNL     1      -3.002  -1.844  -2.233  0.00  0.00    -0.276 OA
ATOM     32  N   UNL     1      -2.525  -3.936  -1.667  0.00  0.00    -0.329 N 
ATOM     33  H   UNL     1      -1.963  -4.547  -1.164  0.00  0.00    +0.145 HD
ATOM     34  H   UNL     1      -3.248  -4.280  -2.213  0.00  0.00    +0.145 HD
ENDBRANCH  29  30
ENDBRANCH  28  29
ENDBRANCH  10  28
TORSDOF 4
