REMARK  Name = ZINC40998518
REMARK  6 active torsions:
REMARK  status: ('A' for Active; 'I' for Inactive)
REMARK    1  A    between atoms: C_1  and  C_2
REMARK    2  A    between atoms: C_3  and  S_9
REMARK    3  A    between atoms: S_9  and  N_12
REMARK    4  A    between atoms: N_12  and  C_13
REMARK    5  A    between atoms: C_13  and  C_14
REMARK    6  A    between atoms: C_17  and  C_19
REMARK                            x       y       z     vdW  Elec       q    Type
REMARK                         _______ _______ _______ _____ _____    ______ ____
ROOT
ATOM      1  S   UNL     1      -2.797  -0.150   0.016  0.00  0.00    +0.067 S 
ATOM      2  O   UNL     1      -3.492  -0.955   0.959  0.00  0.00    -0.152 OA
ATOM      3  O   UNL     1      -2.745   1.266   0.116  0.00  0.00    -0.152 OA
ENDROOT
BRANCH   1   6
ATOM      4  C   UNL     1      -0.018   1.503   0.010  0.00  0.00    +0.066 C 
ATOM      5  C   UNL     1       0.002  -0.004   0.002  0.00  0.00    +0.050 A 
ATOM      6  C   UNL     1      -1.129  -0.716   0.004  0.00  0.00    +0.166 A 
ATOM      7  S   UNL     1      -0.508  -2.388  -0.008  0.00  0.00    -0.007 S 
ATOM      8  C   UNL     1       1.138  -2.048  -0.015  0.00  0.00    +0.290 A 
ATOM      9  O   UNL     1       2.072  -2.830  -0.024  0.00  0.00    -0.260 OA
ATOM     10  N   UNL     1       1.176  -0.699  -0.013  0.00  0.00    -0.318 N 
ATOM     11  H   UNL     1       2.025  -0.230  -0.020  0.00  0.00    +0.169 HD
ENDBRANCH   1   6
BRANCH   1  12
ATOM     12  N   UNL     1      -3.443  -0.496  -1.469  0.00  0.00    -0.185 NA
ATOM     13  H   UNL     1      -3.712   0.224  -2.060  0.00  0.00    +0.148 HD
BRANCH  12  14
ATOM     14  C   UNL     1      -3.606  -1.890  -1.890  0.00  0.00    +0.149 C 
BRANCH  14  15
ATOM     15  C   UNL     1      -4.528  -1.951  -3.080  0.00  0.00    +0.025 A 
ATOM     16  C   UNL     1      -4.238  -1.894  -4.405  0.00  0.00    +0.123 A 
ATOM     17  N   UNL     1      -5.253  -1.971  -5.243  0.00  0.00    -0.252 NA
ATOM     18  C   UNL     1      -6.484  -2.097  -4.812  0.00  0.00    +0.075 A 
ATOM     19  S   UNL     1      -6.304  -2.125  -3.139  0.00  0.00    -0.076 S 
ATOM     20  C   UNL     1      -7.752  -2.198  -5.620  0.00  0.00    +0.073 C 
ENDBRANCH  14  15
ENDBRANCH  12  14
ENDBRANCH   1  12
TORSDOF 4
