REMARK  Name = ZINC19942032
REMARK  5 active torsions:
REMARK  status: ('A' for Active; 'I' for Inactive)
REMARK    1  A    between atoms: C_1  and  C_2
REMARK    2  A    between atoms: C_3  and  C_8
REMARK    3  A    between atoms: C_4  and  C_7
REMARK    4  A    between atoms: C_8  and  N_9
REMARK    5  A    between atoms: C_14  and  N_20
REMARK                            x       y       z     vdW  Elec       q    Type
REMARK                         _______ _______ _______ _____ _____    ______ ____
ROOT
ATOM      1  N   UNL     1       2.375   0.384   0.073  0.00  0.00    -0.261 N 
ATOM      2  C   UNL     1       3.018   1.357  -0.705  0.00  0.00    +0.080 A 
ATOM      3  C   UNL     1       4.326   1.730  -0.433  0.00  0.00    +0.027 A 
ATOM      4  C   UNL     1       4.946   2.692  -1.210  0.00  0.00    +0.004 A 
ATOM      5  C   UNL     1       4.267   3.284  -2.258  0.00  0.00    +0.026 A 
ATOM      6  C   UNL     1       2.957   2.916  -2.538  0.00  0.00    +0.069 A 
ATOM      7  C   UNL     1       2.331   1.950  -1.760  0.00  0.00    +0.163 A 
ATOM      8  O   UNL     1       1.048   1.575  -2.018  0.00  0.00    -0.479 OA
ATOM      9  C   UNL     1       0.710   0.212  -1.748  0.00  0.00    +0.325 C 
ATOM     10  C   UNL     1       1.240  -0.182  -0.393  0.00  0.00    +0.258 C 
ATOM     11  O   UNL     1       0.650  -1.004   0.276  0.00  0.00    -0.271 OA
ENDROOT
BRANCH   6  12
ATOM     12  N   UNL     1       2.270   3.516  -3.600  0.00  0.00    -0.355 N 
ATOM     13  H   UNL     1       1.233   3.224  -3.820  0.00  0.00    +0.142 HD
ATOM     14  H   UNL     1       2.768   4.281  -4.215  0.00  0.00    +0.142 HD
ENDBRANCH   6  12
BRANCH   1  15
ATOM     15  C   UNL     1       2.925  -0.013   1.371  0.00  0.00    +0.154 C 
BRANCH  15  18
ATOM     16  C   UNL     1       2.557  -2.990   0.134  0.00  0.00    +0.069 C 
ATOM     17  C   UNL     1       3.834  -2.361   0.628  0.00  0.00    +0.085 A 
ATOM     18  C   UNL     1       3.986  -1.063   1.167  0.00  0.00    +0.035 A 
ATOM     19  C   UNL     1       5.308  -0.980   1.452  0.00  0.00    +0.139 A 
ATOM     20  O   UNL     1       5.847  -2.156   1.101  0.00  0.00    -0.359 OA
ATOM     21  N   UNL     1       5.016  -2.907   0.645  0.00  0.00    -0.083 NA
ATOM     22  C   UNL     1       6.030   0.202   2.047  0.00  0.00    +0.089 C 
ENDBRANCH  15  18
ENDBRANCH   1  15
TORSDOF 3
