REMARK  Name = ZINC25490476
REMARK  6 active torsions:
REMARK  status: ('A' for Active; 'I' for Inactive)
REMARK    1  A    between atoms: C_1  and  C_2
REMARK    2  A    between atoms: C_2  and  O_3
REMARK    3  A    between atoms: O_3  and  C_4
REMARK    4  A    between atoms: C_4  and  C_6
REMARK    5  A    between atoms: C_6  and  O_18
REMARK    6  A    between atoms: C_7  and  O_17
REMARK                            x       y       z     vdW  Elec       q    Type
REMARK                         _______ _______ _______ _____ _____    ______ ____
ROOT
ATOM      1  C   UNL     1       3.445   2.429  -0.018  0.00  0.00    +0.261 C 
ATOM      2  C   UNL     1       2.571   3.693  -0.003  0.00  0.00    +0.208 C 
ATOM      3  C   UNL     1       1.151   3.173   0.008  0.00  0.00    +0.008 A 
ATOM      4  C   UNL     1      -0.059   3.841   0.023  0.00  0.00    +0.023 A 
ATOM      5  C   UNL     1      -1.245   3.129   0.031  0.00  0.00    +0.018 A 
ATOM      6  C   UNL     1      -1.217   1.746   0.017  0.00  0.00    +0.017 A 
ATOM      7  C   UNL     1      -0.013   1.076   0.008  0.00  0.00    +0.024 A 
ATOM      8  C   UNL     1       1.189   1.788   0.000  0.00  0.00    +0.036 A 
ATOM      9  N   UNL     1       2.501   1.309  -0.015  0.00  0.00    -0.305 N 
ATOM     10 BR   UNL     1      -2.899   4.044   0.051  0.00  0.00    -0.050 Br
ATOM     11  H   UNL     1       2.874   0.274  -0.024  0.00  0.00    +0.149 HD
ENDROOT
BRANCH   1  12
ATOM     12  C   UNL     1       4.317   2.381   1.211  0.00  0.00    +0.361 C 
ATOM     13  O   UNL     1       5.520   2.404   1.099  0.00  0.00    -0.246 OA
BRANCH  12  14
ATOM     14  O   UNL     1       3.757   2.314   2.429  0.00  0.00    -0.462 OA
BRANCH  14  16
ATOM     15  C   UNL     1       3.842   2.197   4.860  0.00  0.00    +0.048 C 
ATOM     16  C   UNL     1       4.657   2.271   3.567  0.00  0.00    +0.229 C 
ENDBRANCH  14  16
ENDBRANCH  12  14
ENDBRANCH   1  12
BRANCH   2  17
ATOM     17  O   UNL     1       2.828   4.464   1.173  0.00  0.00    -0.382 OA
ATOM     18  H   UNL     1       2.285   5.405   1.344  0.00  0.00    +0.210 HD
ENDBRANCH   2  17
BRANCH   1  19
ATOM     19  O   UNL     1       4.251   2.395  -1.198  0.00  0.00    -0.361 OA
ATOM     20  H   UNL     1       3.775   2.422  -2.189  0.00  0.00    +0.213 HD
ENDBRANCH   1  19
TORSDOF 5
