REMARK  Name = ZINC03430752
REMARK  8 active torsions:
REMARK  status: ('A' for Active; 'I' for Inactive)
REMARK    1  A    between atoms: C_1  and  C_2
REMARK    2  A    between atoms: C_3  and  C_21
REMARK    3  A    between atoms: C_5  and  N_17
REMARK    4  A    between atoms: C_6  and  C_7
REMARK    5  A    between atoms: C_7  and  O_9
REMARK    6  A    between atoms: O_9  and  C_10
REMARK    7  A    between atoms: C_10  and  C_11
REMARK    8  A    between atoms: C_18  and  C_20
REMARK                            x       y       z     vdW  Elec       q    Type
REMARK                         _______ _______ _______ _____ _____    ______ ____
ROOT
ATOM      1  C   UNL     1      -2.968   1.588   0.070  0.00  0.00    +0.342 C 
ATOM      2  O   UNL     1      -3.474   0.499  -0.125  0.00  0.00    -0.245 OA
ENDROOT
BRANCH   1   8
ATOM      3  C   UNL     1      -0.013   1.086   0.008  0.00  0.00    +0.045 C 
ATOM      4  C   UNL     1      -0.718   1.572   1.248  0.00  0.00    -0.025 A 
ATOM      5  C   UNL     1      -0.047   1.809   2.389  0.00  0.00    -0.008 A 
ATOM      6  S   UNL     1      -1.320   2.350   3.510  0.00  0.00    -0.078 S 
ATOM      7  C   UNL     1      -2.692   2.252   2.458  0.00  0.00    +0.086 A 
ATOM      8  C   UNL     1      -2.142   1.809   1.260  0.00  0.00    +0.091 A 
ATOM      9  C   UNL     1       1.428   1.654   2.655  0.00  0.00    +0.052 C 
BRANCH   7  10
ATOM     10  N   UNL     1      -4.017   2.549   2.740  0.00  0.00    -0.280 N 
ATOM     11  C   UNL     1      -4.364   2.975   3.970  0.00  0.00    +0.214 C 
ATOM     12  O   UNL     1      -3.518   3.099   4.830  0.00  0.00    -0.276 OA
ATOM     13  C   UNL     1      -5.804   3.298   4.277  0.00  0.00    +0.109 C 
ATOM     14  H   UNL     1      -4.693   2.450   2.052  0.00  0.00    +0.155 HD
ENDBRANCH   7  10
ENDBRANCH   1   8
BRANCH   1  15
ATOM     15  O   UNL     1      -3.167   2.592  -0.808  0.00  0.00    -0.452 OA
BRANCH  15  16
ATOM     16  C   UNL     1      -3.996   2.301  -1.964  0.00  0.00    +0.328 C 
BRANCH  16  17
ATOM     17  C   UNL     1      -4.105   3.533  -2.827  0.00  0.00    +0.258 C 
ATOM     18  O   UNL     1      -3.539   4.554  -2.499  0.00  0.00    -0.272 OA
ATOM     19  N   UNL     1      -4.831   3.498  -3.962  0.00  0.00    -0.238 N 
ATOM     20  C   UNL     1      -4.928   4.600  -4.733  0.00  0.00    +0.303 C 
ATOM     21  O   UNL     1      -4.361   5.623  -4.404  0.00  0.00    -0.253 OA
ATOM     22  N   UNL     1      -5.654   4.565  -5.868  0.00  0.00    -0.313 N 
ATOM     23  H   UNL     1      -5.283   2.681  -4.224  0.00  0.00    +0.159 HD
ATOM     24  H   UNL     1      -6.106   3.748  -6.130  0.00  0.00    +0.146 HD
ATOM     25  H   UNL     1      -5.724   5.358  -6.423  0.00  0.00    +0.146 HD
ENDBRANCH  16  17
ENDBRANCH  15  16
ENDBRANCH   1  15
TORSDOF 5
