REMARK  Name = ZINC56508036
REMARK  7 active torsions:
REMARK  status: ('A' for Active; 'I' for Inactive)
REMARK    1  A    between atoms: C_1  and  C_2
REMARK    2  A    between atoms: C_3  and  N_9
REMARK    3  A    between atoms: C_4  and  C_8
REMARK    4  A    between atoms: C_10  and  C_12
REMARK    5  A    between atoms: C_12  and  N_13
REMARK    6  A    between atoms: C_21  and  N_22
REMARK    7  A    between atoms: C_23  and  C_25
REMARK                            x       y       z     vdW  Elec       q    Type
REMARK                         _______ _______ _______ _____ _____    ______ ____
ROOT
ATOM      1  N   UNL     1       0.792  -1.387  -5.518  0.00  0.00    -0.289 NA
ATOM      2  C   UNL     1       1.095  -0.706  -6.787  0.00  0.00    +0.090 C 
ATOM      3  C   UNL     1       1.778  -1.704  -7.722  0.00  0.00    +0.052 C 
ATOM      4  C   UNL     1       0.973  -2.976  -7.793  0.00  0.00    -0.021 A 
ATOM      5  C   UNL     1       0.014  -3.279  -6.852  0.00  0.00    -0.028 A 
ATOM      6  C   UNL     1      -0.700  -4.464  -6.953  0.00  0.00    +0.005 A 
ATOM      7  C   UNL     1      -0.459  -5.342  -7.992  0.00  0.00    +0.002 A 
ATOM      8  C   UNL     1       0.499  -5.042  -8.940  0.00  0.00    +0.023 A 
ATOM      9  C   UNL     1       1.217  -3.859  -8.842  0.00  0.00    +0.037 A 
ATOM     10  C   UNL     1      -0.296  -2.352  -5.706  0.00  0.00    +0.120 C 
ENDROOT
BRANCH   9  11
ATOM     11  N   UNL     1       2.189  -3.551  -9.801  0.00  0.00    -0.285 N 
ATOM     12  C   UNL     1       2.163  -4.156 -11.005  0.00  0.00    +0.214 C 
ATOM     13  O   UNL     1       1.245  -4.896 -11.292  0.00  0.00    -0.276 OA
ATOM     14  C   UNL     1       3.274  -3.914 -11.994  0.00  0.00    +0.109 C 
ATOM     15  H   UNL     1       2.881  -2.903  -9.599  0.00  0.00    +0.155 HD
ENDBRANCH   9  11
BRANCH   1  16
ATOM     16  C   UNL     1       0.459  -0.417  -4.466  0.00  0.00    +0.181 C 
BRANCH  16  18
ATOM     17  N   UNL     1       0.079  -0.430  -2.022  0.00  0.00    -0.282 N 
ATOM     18  C   UNL     1       0.374  -1.125  -3.138  0.00  0.00    +0.231 C 
ATOM     19  O   UNL     1       0.571  -2.320  -3.075  0.00  0.00    -0.274 OA
ATOM     20  H   UNL     1      -0.163   0.507  -2.084  0.00  0.00    +0.155 HD
BRANCH  17  23
ATOM     21  C   UNL     1       1.434   0.737   0.483  0.00  0.00    +0.067 C 
ATOM     22  C   UNL     1       0.709  -0.578   0.356  0.00  0.00    +0.054 A 
ATOM     23  C   UNL     1       0.121  -1.065  -0.766  0.00  0.00    +0.077 A 
ATOM     24  C   UNL     1      -0.437  -2.312  -0.452  0.00  0.00    +0.081 A 
ATOM     25  N   UNL     1      -0.195  -2.566   0.808  0.00  0.00    -0.177 NA
ATOM     26  N   UNL     1       0.531  -1.494   1.343  0.00  0.00    -0.280 N 
ATOM     27  H   UNL     1       0.848  -1.419   2.256  0.00  0.00    +0.189 HD
ATOM     28  C   UNL     1      -1.188  -3.208  -1.404  0.00  0.00    +0.069 C 
ENDBRANCH  17  23
ENDBRANCH  16  18
ENDBRANCH   1  16
TORSDOF 4
