REMARK  Name = ZINC39688191
REMARK  8 active torsions:
REMARK  status: ('A' for Active; 'I' for Inactive)
REMARK    1  A    between atoms: C_3  and  O_33
REMARK    2  A    between atoms: C_6  and  C_7
REMARK    3  A    between atoms: C_11  and  C_20
REMARK    4  A    between atoms: N_22  and  C_23
REMARK    5  A    between atoms: C_23  and  C_24
REMARK    6  A    between atoms: C_24  and  O_25
REMARK    7  A    between atoms: O_25  and  C_26
REMARK    8  A    between atoms: O_33  and  C_34
REMARK                            x       y       z     vdW  Elec       q    Type
REMARK                         _______ _______ _______ _____ _____    ______ ____
ROOT
ATOM      1  C   UNL     1      -0.972  -0.691  -0.108  0.00  0.00    +0.247 C 
ATOM      2  O   UNL     1      -2.042  -0.126  -0.226  0.00  0.00    -0.270 OA
ATOM      3  N   UNL     1      -0.921  -2.037  -0.067  0.00  0.00    -0.296 N 
ATOM      4  C   UNL     1       0.260  -2.894   0.193  0.00  0.00    +0.121 C 
ATOM      5  C   UNL     1      -0.279  -4.042   1.076  0.00  0.00    +0.100 C 
ATOM      6  C   UNL     1      -1.783  -4.105   0.764  0.00  0.00    -0.004 C 
ATOM      7  C   UNL     1      -2.035  -2.995  -0.267  0.00  0.00    +0.115 C 
ATOM      8  C   UNL     1      -2.145  -5.465   0.176  0.00  0.00    -0.010 C 
ATOM      9  C   UNL     1      -3.655  -5.524  -0.071  0.00  0.00    -0.082 C 
ATOM     10  N   UNL     1      -4.369  -5.309   1.193  0.00  0.00    +0.379 N 
ATOM     11  C   UNL     1      -4.088  -3.962   1.704  0.00  0.00    -0.082 C 
ATOM     12  C   UNL     1      -2.596  -3.838   2.027  0.00  0.00    -0.010 C 
ATOM     13  H   UNL     1      -5.361  -5.409   1.039  0.00  0.00    -0.086 HD
ATOM     14  H   UNL     1      -4.066  -5.995   1.869  0.00  0.00    -0.086 HD
ENDROOT
BRANCH   1  20
ATOM     15  C   UNL     1       0.213   1.468   0.261  0.00  0.00    +0.016 A 
ATOM     16  C   UNL     1       1.376   2.200   0.353  0.00  0.00    +0.047 A 
ATOM     17  C   UNL     1       2.607   1.578   0.179  0.00  0.00    +0.130 A 
ATOM     18  C   UNL     1       2.669   0.216  -0.090  0.00  0.00    +0.047 A 
ATOM     19  C   UNL     1       1.511  -0.523  -0.183  0.00  0.00    +0.016 A 
ATOM     20  C   UNL     1       0.272   0.098  -0.009  0.00  0.00    +0.037 A 
BRANCH  17  21
ATOM     21  O   UNL     1       3.750   2.304   0.270  0.00  0.00    -0.406 OA
BRANCH  21  22
ATOM     22  C   UNL     1       4.982   1.583   0.200  0.00  0.00    +0.575 C 
ATOM     23  F   UNL     1       5.109   0.997  -1.064  0.00  0.00    -0.133 F 
ATOM     24  F   UNL     1       6.049   2.463   0.415  0.00  0.00    -0.133 F 
ATOM     25  F   UNL     1       4.995   0.586   1.181  0.00  0.00    -0.133 F 
ENDBRANCH  21  22
ENDBRANCH  17  21
ENDBRANCH   1  20
BRANCH   5  26
ATOM     26  C   UNL     1      -0.055  -3.732   2.534  0.00  0.00    +0.218 C 
ATOM     27  O   UNL     1       0.039  -2.580   2.901  0.00  0.00    -0.275 OA
ATOM     28  N   UNL     1       0.040  -4.735   3.429  0.00  0.00    -0.312 N 
ATOM     29  H   UNL     1       0.038  -5.657   3.127  0.00  0.00    +0.149 HD
BRANCH  28  30
ATOM     30  C   UNL     1       0.147  -4.433   4.859  0.00  0.00    +0.145 C 
BRANCH  30  31
ATOM     31  C   UNL     1       0.366  -5.731   5.639  0.00  0.00    +0.247 C 
BRANCH  31  32
ATOM     32  O   UNL     1       1.629  -6.295   5.280  0.00  0.00    -0.490 OA
BRANCH  32  33
ATOM     33  C   UNL     1       1.937  -7.508   5.813  0.00  0.00    +0.121 A 
ATOM     34  C   UNL     1       1.000  -8.190   6.574  0.00  0.00    +0.048 A 
ATOM     35  C   UNL     1       1.314  -9.422   7.114  0.00  0.00    +0.042 A 
ATOM     36  C   UNL     1       2.564  -9.975   6.897  0.00  0.00    +0.124 A 
ATOM     37  C   UNL     1       3.502  -9.295   6.138  0.00  0.00    +0.042 A 
ATOM     38  C   UNL     1       3.188  -8.066   5.591  0.00  0.00    +0.048 A 
ATOM     39  F   UNL     1       2.871 -11.180   7.427  0.00  0.00    -0.205 F 
ENDBRANCH  32  33
ENDBRANCH  31  32
ENDBRANCH  30  31
ENDBRANCH  28  30
ENDBRANCH   5  26
TORSDOF 8
