REMARK  Name = ZINC06108997
REMARK  5 active torsions:
REMARK  status: ('A' for Active; 'I' for Inactive)
REMARK    1  A    between atoms: C_9  and  S_13
REMARK    2  A    between atoms: S_13  and  C_14
REMARK    3  A    between atoms: C_14  and  C_15
REMARK    4  A    between atoms: N_17  and  C_18
REMARK    5  A    between atoms: C_18  and  C_23
REMARK                            x       y       z     vdW  Elec       q    Type
REMARK                         _______ _______ _______ _____ _____    ______ ____
ROOT
ATOM      1  C   UNL     1      -0.827 -10.895  -0.260  0.00  0.00    +0.005 C 
ATOM      2  C   UNL     1      -1.903 -11.402  -1.225  0.00  0.00    +0.005 C 
ATOM      3  C   UNL     1      -3.257 -10.815  -0.802  0.00  0.00    +0.043 C 
ATOM      4  C   UNL     1      -3.084  -9.345  -0.570  0.00  0.00    -0.004 A 
ATOM      5  C   UNL     1      -1.926  -8.672  -0.425  0.00  0.00    -0.025 A 
ATOM      6  C   UNL     1      -2.020  -7.227  -0.206  0.00  0.00    +0.051 A 
ATOM      7  C   UNL     1      -0.968  -6.285  -0.023  0.00  0.00    +0.129 A 
ATOM      8  N   UNL     1      -1.268  -5.010   0.161  0.00  0.00    -0.207 NA
ATOM      9  C   UNL     1      -2.522  -4.575   0.182  0.00  0.00    +0.191 A 
ATOM     10  N   UNL     1      -3.542  -5.409   0.023  0.00  0.00    -0.214 NA
ATOM     11  C   UNL     1      -3.324  -6.695  -0.172  0.00  0.00    +0.115 A 
ATOM     12  S   UNL     1      -4.354  -8.116  -0.427  0.00  0.00    -0.073 S 
ATOM     13  N   UNL     1       0.351  -6.698  -0.037  0.00  0.00    -0.343 N 
ATOM     14  C   UNL     1      -0.587  -9.402  -0.488  0.00  0.00    +0.037 C 
ATOM     15  H   UNL     1       1.045  -6.118   0.315  0.00  0.00    +0.144 HD
ATOM     16  H   UNL     1       0.583  -7.567  -0.399  0.00  0.00    +0.144 HD
ENDROOT
BRANCH   9  17
ATOM     17  S   UNL     1      -2.839  -2.860   0.432  0.00  0.00    -0.077 S 
BRANCH  17  18
ATOM     18  C   UNL     1      -1.143  -2.247   0.588  0.00  0.00    +0.173 C 
BRANCH  18  19
ATOM     19  C   UNL     1      -1.167  -0.757   0.815  0.00  0.00    +0.224 C 
ATOM     20  O   UNL     1      -2.226  -0.168   0.867  0.00  0.00    -0.275 OA
ATOM     21  N   UNL     1      -0.011  -0.080   0.961  0.00  0.00    -0.297 N 
ATOM     22  H   UNL     1       0.836  -0.551   0.920  0.00  0.00    +0.150 HD
BRANCH  21  23
ATOM     23  C   UNL     1      -0.034   1.369   1.182  0.00  0.00    +0.121 C 
ATOM     24  C   UNL     1      -0.657   2.079  -0.038  0.00  0.00    +0.041 C 
ATOM     25  C   UNL     1       0.167   3.383  -0.179  0.00  0.00    +0.003 C 
ATOM     26  C   UNL     1       1.602   2.921   0.174  0.00  0.00    +0.003 C 
ATOM     27  C   UNL     1       1.402   1.904   1.316  0.00  0.00    +0.041 C 
BRANCH  23  28
ATOM     28  C   UNL     1      -0.804   1.681   2.397  0.00  0.00    +0.088 C 
ATOM     29  N   UNL     1      -1.399   1.922   3.334  0.00  0.00    -0.194 NA
ENDBRANCH  23  28
ENDBRANCH  21  23
ENDBRANCH  18  19
ENDBRANCH  17  18
ENDBRANCH   9  17
TORSDOF 5
