REMARK  Name = ZINC19979617
REMARK  6 active torsions:
REMARK  status: ('A' for Active; 'I' for Inactive)
REMARK    1  A    between atoms: CE_1  and  SD_2
REMARK    2  A    between atoms: SD_2  and  CG_3
REMARK    3  A    between atoms: CG_3  and  CB_4
REMARK    4  A    between atoms: CB_4  and  CA_5
REMARK    5  A    between atoms: CA_5  and  C_7
REMARK    6  A    between atoms: CA_5  and  N_10
REMARK                            x       y       z     vdW  Elec       q    Type
REMARK                         _______ _______ _______ _____ _____    ______ ____
ROOT
ATOM      1  N   MET A   1      -0.644   3.040   1.337  0.00  0.00    -0.286 N 
ATOM      2  C   UNK A   0      -1.574   3.737   2.019  0.00  0.00    +0.303 C 
ATOM      3  O   UNK A   0      -2.532   3.164   2.500  0.00  0.00    -0.253 OA
ATOM      4  N   UNK A   0      -1.442   5.070   2.167  0.00  0.00    -0.283 N 
ATOM      5  C   UNK A   0      -2.390   5.828   2.996  0.00  0.00    +0.128 C 
ATOM      6  C   UNK A   0      -1.594   6.605   4.058  0.00  0.00    +0.126 C 
ATOM      7  N   UNK A   0      -0.503   7.328   3.390  0.00  0.00    -0.301 N 
ATOM      8  C   UNK A   0       0.442   6.571   2.557  0.00  0.00    +0.126 C 
ATOM      9  C   UNK A   0      -0.351   5.793   1.499  0.00  0.00    +0.128 C 
ATOM     10  C   UNK A   0      -0.371   8.661   3.538  0.00  0.00    +0.328 C 
ATOM     11  O   UNK A   0       0.533   9.246   2.982  0.00  0.00    -0.279 OA
ATOM     12  H   MET A   1       0.178   3.568   0.831  0.00  0.00    +0.151 HD
ENDROOT
BRANCH   1  13
ATOM     13  CA  MET A   1      -0.727   1.579   1.269  0.00  0.00    +0.188 C 
BRANCH  13  14
ATOM     14  C   MET A   1      -0.073   0.982   2.488  0.00  0.00    +0.376 C 
ATOM     15  O   MET A   1       0.414   1.702   3.327  0.00  0.00    -0.244 OA
ATOM     16  OXT MET A   1      -0.030  -0.351   2.642  0.00  0.00    -0.244 OA
ENDBRANCH  13  14
BRANCH  13  17
ATOM     17  CB  MET A   1      -0.011   1.085   0.011  0.00  0.00    +0.044 C 
BRANCH  17  18
ATOM     18  CG  MET A   1      -0.750   1.590  -1.229  0.00  0.00    +0.071 C 
BRANCH  18  20
ATOM     19  CE  MET A   1      -0.889   1.680  -4.083  0.00  0.00    +0.084 C 
ATOM     20  SD  MET A   1       0.100   1.004  -2.721  0.00  0.00    -0.164 S 
ENDBRANCH  18  20
ENDBRANCH  17  18
ENDBRANCH  13  17
ENDBRANCH   1  13
TORSDOF 5
