REMARK  Name = ZINC62174949
REMARK  8 active torsions:
REMARK  status: ('A' for Active; 'I' for Inactive)
REMARK    1  A    between atoms: C_10  and  N_15
REMARK    2  A    between atoms: C_12  and  O_14
REMARK    3  A    between atoms: N_15  and  C_16
REMARK    4  A    between atoms: N_15  and  C_19
REMARK    5  A    between atoms: C_16  and  C_17
REMARK    6  A    between atoms: C_17  and  O_18
REMARK    7  A    between atoms: C_19  and  C_20
REMARK    8  A    between atoms: C_20  and  O_21
REMARK                            x       y       z     vdW  Elec       q    Type
REMARK                         _______ _______ _______ _____ _____    ______ ____
ROOT
ATOM      1  C   UNL     1       0.157   0.406  -0.389  0.00  0.00    +0.002 A 
ATOM      2  C   UNL     1       1.256   1.242  -0.411  0.00  0.00    +0.010 A 
ATOM      3  C   UNL     1       2.523   0.738  -0.167  0.00  0.00    +0.022 A 
ATOM      4  C   UNL     1       2.689  -0.609   0.103  0.00  0.00    +0.144 A 
ATOM      5  C   UNL     1       1.579  -1.449   0.122  0.00  0.00    +0.083 A 
ATOM      6  C   UNL     1       0.319  -0.941  -0.123  0.00  0.00    +0.024 A 
ATOM      7 CL   UNL     1       1.781  -3.141   0.455  0.00  0.00    -0.080 Cl
ATOM      8  O   UNL     1       3.912  -1.142   0.359  0.00  0.00    -0.492 OA
ATOM      9  C   UNL     1       5.063  -0.385  -0.017  0.00  0.00    +0.217 C 
ATOM     10  C   UNL     1       4.894   1.046   0.509  0.00  0.00    +0.003 C 
ATOM     11  C   UNL     1       3.699   1.682  -0.205  0.00  0.00    +0.138 C 
ENDROOT
BRANCH  11  12
ATOM     12  O   UNL     1       4.046   1.954  -1.565  0.00  0.00    -0.389 OA
ATOM     13  H   UNL     1       3.336   2.362  -2.078  0.00  0.00    +0.210 HD
ENDBRANCH  11  12
BRANCH  10  14
ATOM     14  N   UNL     1       6.109   1.823   0.230  0.00  0.00    +0.389 N 
ATOM     15  H   UNL     1       6.216   1.933  -0.767  0.00  0.00    -0.081 HD
BRANCH  14  16
ATOM     16  C   UNL     1       6.000   3.145   0.860  0.00  0.00    -0.050 C 
BRANCH  16  17
ATOM     17  C   UNL     1       7.213   3.995   0.475  0.00  0.00    +0.137 C 
BRANCH  17  18
ATOM     18  O   UNL     1       7.186   4.255  -0.930  0.00  0.00    -0.397 OA
ATOM     19  H   UNL     1       7.927   4.790  -1.245  0.00  0.00    +0.209 HD
ENDBRANCH  17  18
ENDBRANCH  16  17
ENDBRANCH  14  16
BRANCH  14  20
ATOM     20  C   UNL     1       7.277   1.116   0.772  0.00  0.00    -0.050 C 
BRANCH  20  21
ATOM     21  C   UNL     1       7.130   0.977   2.289  0.00  0.00    +0.137 C 
BRANCH  21  22
ATOM     22  O   UNL     1       6.045   0.095   2.583  0.00  0.00    -0.397 OA
ATOM     23  H   UNL     1       5.845   0.018   3.526  0.00  0.00    +0.209 HD
ENDBRANCH  21  22
ENDBRANCH  20  21
ENDBRANCH  14  20
ENDBRANCH  10  14
TORSDOF 8
