REMARK  Name = ZINC37929146
REMARK  5 active torsions:
REMARK  status: ('A' for Active; 'I' for Inactive)
REMARK    1  A    between atoms: C_5  and  C_7
REMARK    2  A    between atoms: C_7  and  N_8
REMARK    3  A    between atoms: N_8  and  S_9
REMARK    4  A    between atoms: S_9  and  C_12
REMARK    5  A    between atoms: C_17  and  N_18
REMARK                            x       y       z     vdW  Elec       q    Type
REMARK                         _______ _______ _______ _____ _____    ______ ____
ROOT
ATOM      1  S   UNL     1       1.077  -4.276   1.778  0.00  0.00    +0.060 S 
ATOM      2  O   UNL     1       1.290  -4.528   3.160  0.00  0.00    -0.153 OA
ATOM      3  O   UNL     1      -0.194  -4.431   1.161  0.00  0.00    -0.153 OA
ENDROOT
BRANCH   1   4
ATOM      4  C   UNL     1       2.194  -5.318   0.898  0.00  0.00    +0.127 A 
ATOM      5  C   UNL     1       1.733  -6.104  -0.139  0.00  0.00    +0.045 A 
ATOM      6  C   UNL     1       2.609  -6.923  -0.830  0.00  0.00    +0.020 A 
ATOM      7  C   UNL     1       3.949  -6.956  -0.483  0.00  0.00    +0.017 A 
ATOM      8  C   UNL     1       4.415  -6.171   0.553  0.00  0.00    +0.026 A 
ATOM      9  C   UNL     1       3.538  -5.344   1.244  0.00  0.00    +0.051 A 
ATOM     10 BR   UNL     1       1.975  -8.000  -2.249  0.00  0.00    -0.050 Br
BRANCH   9  11
ATOM     11  N   UNL     1       4.008  -4.545   2.290  0.00  0.00    -0.356 N 
ATOM     12  H   UNL     1       3.416  -3.905   2.715  0.00  0.00    +0.142 HD
ATOM     13  H   UNL     1       4.926  -4.629   2.590  0.00  0.00    +0.142 HD
ENDBRANCH   9  11
ENDBRANCH   1   4
BRANCH   1  14
ATOM     14  N   UNL     1       1.548  -2.712   1.503  0.00  0.00    -0.186 NA
ATOM     15  H   UNL     1       1.869  -2.166   2.238  0.00  0.00    +0.148 HD
BRANCH  14  16
ATOM     16  C   UNL     1       1.479  -2.153   0.151  0.00  0.00    +0.142 C 
BRANCH  16  21
ATOM     17  C   UNL     1       0.557   1.508   0.205  0.00  0.00    +0.000 A 
ATOM     18  C   UNL     1       1.796   2.103   0.351  0.00  0.00    +0.001 A 
ATOM     19  C   UNL     1       2.933   1.322   0.433  0.00  0.00    +0.020 A 
ATOM     20  C   UNL     1       2.831  -0.056   0.368  0.00  0.00    +0.045 A 
ATOM     21  C   UNL     1       1.591  -0.651   0.222  0.00  0.00    -0.014 A 
ATOM     22  C   UNL     1       0.455   0.131   0.141  0.00  0.00    +0.006 A 
ATOM     23 CL   UNL     1       4.259  -1.038   0.469  0.00  0.00    -0.083 Cl
ENDBRANCH  16  21
ENDBRANCH  14  16
ENDBRANCH   1  14
TORSDOF 5
