REMARK  Name = ZINC03235075
REMARK  6 active torsions:
REMARK  status: ('A' for Active; 'I' for Inactive)
REMARK    1  A    between atoms: C_1  and  O_2
REMARK    2  A    between atoms: O_2  and  C_3
REMARK    3  A    between atoms: C_8  and  N_9
REMARK    4  A    between atoms: C_10  and  C_12
REMARK    5  A    between atoms: C_14  and  C_22
REMARK    6  A    between atoms: C_26  and  C_28
REMARK                            x       y       z     vdW  Elec       q    Type
REMARK                         _______ _______ _______ _____ _____    ______ ____
ROOT
ATOM      1  C   UNL     1       3.624   6.013  -0.217  0.00  0.00    +0.143 C 
ATOM      2  C   UNL     1       3.326   7.511  -0.356  0.00  0.00    +0.122 C 
ATOM      3  N   UNL     1       4.549   8.218  -0.734  0.00  0.00    -0.291 N 
ATOM      4  C   UNL     1       5.507   7.650  -1.479  0.00  0.00    +0.304 C 
ATOM      5  O   UNL     1       6.464   8.322  -1.813  0.00  0.00    -0.253 OA
ATOM      6  N   UNL     1       5.449   6.364  -1.871  0.00  0.00    -0.273 N 
ATOM      7  C   UNL     1       4.366   5.576  -1.465  0.00  0.00    +0.019 C 
ATOM      8  C   UNL     1       4.008   4.500  -2.138  0.00  0.00    +0.029 C 
ATOM      9  H   UNL     1       4.671   9.132  -0.434  0.00  0.00    +0.151 HD
ATOM     10  H   UNL     1       6.149   5.988  -2.428  0.00  0.00    +0.156 HD
ENDROOT
BRANCH   2  11
ATOM     11  C   UNL     1       2.278   7.718  -1.419  0.00  0.00    -0.026 A 
ATOM     12  C   UNL     1       2.635   7.706  -2.755  0.00  0.00    +0.005 A 
ATOM     13  C   UNL     1       1.673   7.892  -3.730  0.00  0.00    +0.001 A 
ATOM     14  C   UNL     1       0.355   8.100  -3.369  0.00  0.00    +0.012 A 
ATOM     15  C   UNL     1      -0.002   8.117  -2.034  0.00  0.00    +0.055 A 
ATOM     16  C   UNL     1       0.960   7.926  -1.059  0.00  0.00    +0.017 A 
BRANCH  15  17
ATOM     17  C   UNL     1      -1.439   8.343  -1.641  0.00  0.00    +0.417 C 
ATOM     18  F   UNL     1      -1.668   9.714  -1.478  0.00  0.00    -0.166 F 
ATOM     19  F   UNL     1      -2.280   7.845  -2.642  0.00  0.00    -0.166 F 
ATOM     20  F   UNL     1      -1.703   7.680  -0.437  0.00  0.00    -0.166 F 
ENDBRANCH  15  17
ENDBRANCH   2  11
BRANCH   1  22
ATOM     21  N   UNL     1       2.356   3.900  -0.000  0.00  0.00    -0.282 N 
ATOM     22  C   UNL     1       2.333   5.244  -0.095  0.00  0.00    +0.228 C 
ATOM     23  O   UNL     1       1.274   5.835  -0.082  0.00  0.00    -0.275 OA
ATOM     24  H   UNL     1       3.203   3.433   0.070  0.00  0.00    +0.155 HD
BRANCH  21  30
ATOM     25  C   UNL     1       1.097   1.917   0.588  0.00  0.00    +0.141 A 
ATOM     26  C   UNL     1      -0.092   1.207   0.581  0.00  0.00    +0.047 A 
ATOM     27  C   UNL     1      -1.216   1.745  -0.017  0.00  0.00    +0.004 A 
ATOM     28  C   UNL     1      -1.160   2.998  -0.601  0.00  0.00    +0.002 A 
ATOM     29  C   UNL     1       0.022   3.713  -0.598  0.00  0.00    +0.027 A 
ATOM     30  C   UNL     1       1.156   3.177  -0.004  0.00  0.00    +0.076 A 
BRANCH  25  32
ATOM     31  C   UNL     1       2.071   0.090   1.759  0.00  0.00    +0.277 C 
ATOM     32  O   UNL     1       2.205   1.386   1.172  0.00  0.00    -0.493 OA
ENDBRANCH  25  32
ENDBRANCH  21  30
ENDBRANCH   1  22
TORSDOF 5
