REMARK  Name = ZINC66543983
REMARK  10 active torsions:
REMARK  status: ('A' for Active; 'I' for Inactive)
REMARK    1  A    between atoms: C_1  and  C_2
REMARK    2  A    between atoms: C_2  and  C_3
REMARK    3  A    between atoms: C_3  and  C_4
REMARK    4  A    between atoms: C_4  and  N_5
REMARK    5  A    between atoms: N_5  and  C_6
REMARK    6  A    between atoms: N_5  and  C_21
REMARK    7  A    between atoms: C_6  and  C_7
REMARK    8  A    between atoms: N_12  and  C_13
REMARK    9  A    between atoms: C_17  and  C_20
REMARK   10  A    between atoms: C_18  and  C_19
REMARK                            x       y       z     vdW  Elec       q    Type
REMARK                         _______ _______ _______ _____ _____    ______ ____
ROOT
ATOM      1  C   UNL     1       2.427  -4.494   3.485  0.00  0.00    +0.204 C 
ATOM      2  O   UNL     1       2.732  -3.721   4.368  0.00  0.00    -0.277 OA
ATOM      3  N   UNL     1       2.789  -5.790   3.569  0.00  0.00    -0.241 N 
ATOM      4  C   UNL     1       3.488  -6.226   4.635  0.00  0.00    +0.310 C 
ATOM      5  O   UNL     1       3.793  -5.451   5.520  0.00  0.00    -0.252 OA
ATOM      6  N   UNL     1       3.850  -7.522   4.719  0.00  0.00    -0.269 N 
ATOM      7  H   UNL     1       2.546  -6.408   2.862  0.00  0.00    +0.159 HD
ATOM      8  H   UNL     1       3.665  -8.126   3.983  0.00  0.00    +0.156 HD
ENDROOT
BRANCH   6   9
ATOM      9  C   UNL     1       4.492  -7.996   5.869  0.00  0.00    +0.038 A 
ATOM     10  C   UNL     1       5.244  -7.130   6.653  0.00  0.00    +0.023 A 
ATOM     11  C   UNL     1       5.876  -7.601   7.787  0.00  0.00    +0.002 A 
ATOM     12  C   UNL     1       5.762  -8.933   8.141  0.00  0.00    +0.004 A 
ATOM     13  C   UNL     1       5.015  -9.797   7.362  0.00  0.00    -0.046 A 
ATOM     14  C   UNL     1       4.375  -9.331   6.231  0.00  0.00    -0.026 A 
ATOM     15  C   UNL     1       3.555 -10.272   5.386  0.00  0.00    +0.046 C 
ATOM     16  C   UNL     1       4.895 -11.248   7.752  0.00  0.00    +0.044 C 
ENDBRANCH   6   9
BRANCH   1  17
ATOM     17  C   UNL     1       1.645  -4.006   2.293  0.00  0.00    +0.019 C 
BRANCH  17  18
ATOM     18  N   UNL     1       1.218  -2.619   2.522  0.00  0.00    +0.388 N 
ATOM     19  H   UNL     1       1.925  -2.132   3.050  0.00  0.00    -0.081 HD
BRANCH  18  20
ATOM     20  C   UNL     1      -0.045  -2.614   3.273  0.00  0.00    -0.045 C 
ATOM     21  C   UNL     1       0.122  -3.443   4.558  0.00  0.00    +0.009 C 
ATOM     22  C   UNL     1      -1.103  -3.166   5.475  0.00  0.00    +0.164 C 
ATOM     23  S   UNL     1      -1.300  -1.350   5.237  0.00  0.00    -0.033 S 
ATOM     24  O   UNL     1      -0.568  -0.669   6.247  0.00  0.00    -0.174 OA
ATOM     25  O   UNL     1      -2.677  -1.054   5.052  0.00  0.00    -0.174 OA
ATOM     26  C   UNL     1      -0.423  -1.157   3.632  0.00  0.00    +0.151 C 
ENDBRANCH  18  20
BRANCH  18  27
ATOM     27  C   UNL     1       1.021  -1.948   1.230  0.00  0.00    -0.078 C 
BRANCH  27  28
ATOM     28  C   UNL     1       1.008  -0.432   1.441  0.00  0.00    -0.019 C 
BRANCH  28  30
ATOM     29  C   UNL     1       0.941   1.786   0.293  0.00  0.00    +0.004 C 
ATOM     30  C   UNL     1       0.954   0.271   0.083  0.00  0.00    -0.005 C 
ENDBRANCH  28  30
ENDBRANCH  27  28
ENDBRANCH  18  27
ENDBRANCH  17  18
ENDBRANCH   1  17
TORSDOF 7
