REMARK  Name = ZINC31913275
REMARK  8 active torsions:
REMARK  status: ('A' for Active; 'I' for Inactive)
REMARK    1  A    between atoms: C_1  and  C_2
REMARK    2  A    between atoms: C_8  and  C_15
REMARK    3  A    between atoms: C_9  and  C_11
REMARK    4  A    between atoms: C_11  and  C_12
REMARK    5  A    between atoms: C_11  and  C_13
REMARK    6  A    between atoms: C_11  and  C_14
REMARK    7  A    between atoms: C_15  and  C_17
REMARK    8  A    between atoms: C_15  and  O_18
REMARK                            x       y       z     vdW  Elec       q    Type
REMARK                         _______ _______ _______ _____ _____    ______ ____
ROOT
ATOM      1  C   UNL     1       1.324   4.050   0.328  0.00  0.00    +0.064 C 
ATOM      2  C   UNL     1       0.202   3.069   0.550  0.00  0.00    +0.022 A 
ATOM      3  C   UNL     1      -0.505   3.110   1.698  0.00  0.00    +0.021 A 
ATOM      4  C   UNL     1      -1.553   2.201   1.918  0.00  0.00    +0.005 A 
ATOM      5  C   UNL     1      -1.854   1.276   0.967  0.00  0.00    +0.047 A 
ATOM      6  C   UNL     1      -1.107   1.247  -0.228  0.00  0.00    +0.138 A 
ATOM      7  N   UNL     1      -0.089   2.147  -0.413  0.00  0.00    -0.298 N 
ATOM      8  C   UNL     1       0.453   1.889  -1.643  0.00  0.00    +0.075 A 
ATOM      9  C   UNL     1      -0.234   0.853  -2.173  0.00  0.00    +0.071 A 
ATOM     10  N   UNL     1      -1.178   0.480  -1.306  0.00  0.00    -0.232 NA
ENDROOT
BRANCH   9  11
ATOM     11  C   UNL     1       0.020   0.228  -3.520  0.00  0.00    +0.006 C 
ATOM     12  C   UNL     1       1.396  -0.442  -3.521  0.00  0.00    +0.017 C 
ATOM     13  C   UNL     1      -1.057  -0.820  -3.808  0.00  0.00    +0.017 C 
ATOM     14  C   UNL     1      -0.020   1.310  -4.601  0.00  0.00    +0.017 C 
ENDBRANCH   9  11
BRANCH   8  15
ATOM     15  C   UNL     1       1.602   2.623  -2.285  0.00  0.00    +0.160 C 
ATOM     16  C   UNL     1       2.745   2.762  -1.278  0.00  0.00    +0.044 C 
BRANCH  15  17
ATOM     17  O   UNL     1       2.058   1.891  -3.425  0.00  0.00    -0.386 OA
ATOM     18  H   UNL     1       2.896   2.273  -4.025  0.00  0.00    +0.210 HD
ENDBRANCH  15  17
ENDBRANCH   8  15
TORSDOF 3
