REMARK  Name = ZINC41759340
REMARK  7 active torsions:
REMARK  status: ('A' for Active; 'I' for Inactive)
REMARK    1  A    between atoms: C_1  and  C_2
REMARK    2  A    between atoms: C_7  and  C_9
REMARK    3  A    between atoms: C_7  and  N_12
REMARK    4  A    between atoms: N_12  and  C_13
REMARK    5  A    between atoms: C_13  and  C_14
REMARK    6  A    between atoms: C_13  and  C_15
REMARK    7  A    between atoms: C_13  and  C_16
REMARK                            x       y       z     vdW  Elec       q    Type
REMARK                         _______ _______ _______ _____ _____    ______ ____
ROOT
ATOM      1  C   UNL     1      -0.275  -6.509   0.163  0.00  0.00    +0.007 C 
ATOM      2  C   UNL     1       0.122  -5.072   0.506  0.00  0.00    -0.015 C 
ATOM      3  C   UNL     1      -1.135  -4.250   0.795  0.00  0.00    +0.003 C 
ATOM      4  C   UNL     1      -0.737  -2.813   1.138  0.00  0.00    -0.001 C 
ATOM      5  C   UNL     1       0.166  -2.815   2.373  0.00  0.00    -0.001 C 
ATOM      6  C   UNL     1       1.424  -3.637   2.083  0.00  0.00    +0.036 C 
ATOM      7  C   UNL     1       1.026  -5.074   1.740  0.00  0.00    +0.002 C 
ENDROOT
BRANCH   6   8
ATOM      8  C   UNL     1       2.314  -3.639   3.300  0.00  0.00    +0.346 C 
ATOM      9  O   UNL     1       2.282  -2.702   4.080  0.00  0.00    -0.248 OA
ATOM     10  O   UNL     1       3.066  -4.577   3.503  0.00  0.00    -0.248 OA
ENDBRANCH   6   8
BRANCH   6  11
ATOM     11  N   UNL     1       2.146  -3.045   0.949  0.00  0.00    +0.393 N 
ATOM     12  H   UNL     1       2.796  -3.719   0.575  0.00  0.00    -0.084 HD
ATOM     13  H   UNL     1       1.487  -2.779   0.233  0.00  0.00    -0.084 HD
BRANCH  11  14
ATOM     14  C   UNL     1       2.880  -1.856   1.403  0.00  0.00    -0.075 C 
ATOM     15  C   UNL     1       3.939  -2.272   2.427  0.00  0.00    -0.011 C 
ATOM     16  C   UNL     1       3.562  -1.190   0.207  0.00  0.00    -0.011 C 
ATOM     17  C   UNL     1       1.905  -0.870   2.050  0.00  0.00    -0.011 C 
ENDBRANCH  11  14
ENDBRANCH   6  11
TORSDOF 3
