REMARK  Name = ZINC42458547
REMARK  6 active torsions:
REMARK  status: ('A' for Active; 'I' for Inactive)
REMARK    1  A    between atoms: C_1  and  C_2
REMARK    2  A    between atoms: C_2  and  C_4
REMARK    3  A    between atoms: C_2  and  C_14
REMARK    4  A    between atoms: C_4  and  N_5
REMARK    5  A    between atoms: N_5  and  C_6
REMARK    6  A    between atoms: N_15  and  O_16
REMARK                            x       y       z     vdW  Elec       q    Type
REMARK                         _______ _______ _______ _____ _____    ______ ____
ROOT
ATOM      1  C   UNL     1       0.731  -0.416   0.970  0.00  0.00    +0.117 C 
ENDROOT
BRANCH   1   2
ATOM      2  N   UNL     1       2.148  -0.104   1.172  0.00  0.00    -0.317 N 
ATOM      3  C   UNL     1       2.537   1.160   1.802  0.00  0.00    +0.130 C 
ATOM      4  C   UNL     1       3.123  -1.007   0.765  0.00  0.00    +0.135 A 
ATOM      5  C   UNL     1       3.538  -2.013   1.633  0.00  0.00    +0.058 A 
ATOM      6  C   UNL     1       4.509  -2.905   1.215  0.00  0.00    +0.020 A 
ATOM      7  C   UNL     1       5.035  -2.761  -0.062  0.00  0.00    +0.021 A 
ATOM      8  C   UNL     1       4.578  -1.740  -0.871  0.00  0.00    +0.113 A 
ATOM      9  N   UNL     1       3.646  -0.906  -0.447  0.00  0.00    -0.239 NA
ATOM     10 BR   UNL     1       2.784  -2.158   3.361  0.00  0.00    -0.047 Br
ENDBRANCH   1   2
BRANCH   1  12
ATOM     11  C   UNL     1       0.366   1.635  -0.409  0.00  0.00    +0.017 C 
ATOM     12  C   UNL     1       0.282   0.108  -0.396  0.00  0.00    +0.070 C 
BRANCH  12  13
ATOM     13  C   UNL     1      -1.139  -0.320  -0.656  0.00  0.00    +0.136 C 
ATOM     14  N   UNL     1      -2.115   0.478  -0.374  0.00  0.00    -0.076 NA
ATOM     15  N   UNL     1      -1.397  -1.561  -1.195  0.00  0.00    -0.344 N 
ATOM     16  H   UNL     1      -0.664  -2.160  -1.406  0.00  0.00    +0.144 HD
ATOM     17  H   UNL     1      -2.312  -1.836  -1.362  0.00  0.00    +0.144 HD
BRANCH  14  18
ATOM     18  O   UNL     1      -3.451   0.076  -0.618  0.00  0.00    -0.408 OA
ATOM     19  H   UNL     1      -4.112   0.739  -0.376  0.00  0.00    +0.328 HD
ENDBRANCH  14  18
ENDBRANCH  12  13
ENDBRANCH   1  12
TORSDOF 4
