REMARK  Name = ZINC01747785
REMARK  6 active torsions:
REMARK  status: ('A' for Active; 'I' for Inactive)
REMARK    1  A    between atoms: C_1  and  C_2
REMARK    2  A    between atoms: C_8  and  C_9
REMARK    3  A    between atoms: C_8  and  N_52
REMARK    4  A    between atoms: C_10  and  O_32
REMARK    5  A    between atoms: C_16  and  C_28
REMARK    6  A    between atoms: C_17  and  C_20
REMARK                            x       y       z     vdW  Elec       q    Type
REMARK                         _______ _______ _______ _____ _____    ______ ____
ROOT
ATOM      1  C   UNL     1       4.455  -0.160  -1.951  0.00  0.00    +0.020 A 
ATOM      2  C   UNL     1       5.044   1.030  -2.344  0.00  0.00    +0.122 A 
ATOM      3  C   UNL     1       6.382   1.288  -2.053  0.00  0.00    +0.046 A 
ATOM      4  C   UNL     1       7.133   0.364  -1.385  0.00  0.00    +0.019 A 
ATOM      5  C   UNL     1       6.555  -0.842  -0.987  0.00  0.00    +0.065 A 
ATOM      6  C   UNL     1       5.204  -1.111  -1.271  0.00  0.00    +0.144 A 
ATOM      7  O   UNL     1       4.647  -2.276  -0.886  0.00  0.00    -0.450 OA
ATOM      8  C   UNL     1       5.316  -3.227  -0.229  0.00  0.00    +0.219 A 
ATOM      9  C   UNL     1       6.626  -3.098   0.109  0.00  0.00    +0.078 A 
ATOM     10  C   UNL     1       7.335  -1.862  -0.264  0.00  0.00    +0.201 A 
ATOM     11  O   UNL     1       8.509  -1.691   0.013  0.00  0.00    -0.286 OA
ENDROOT
BRANCH   9  12
ATOM     12  C   UNL     1       7.328  -4.182   0.839  0.00  0.00    +0.008 A 
ATOM     13  C   UNL     1       7.978  -5.193   0.134  0.00  0.00    +0.011 A 
ATOM     14  C   UNL     1       8.630  -6.198   0.818  0.00  0.00    +0.021 A 
ATOM     15  C   UNL     1       8.639  -6.205   2.202  0.00  0.00    +0.042 A 
ATOM     16  C   UNL     1       7.995  -5.204   2.908  0.00  0.00    +0.040 A 
ATOM     17  C   UNL     1       7.344  -4.189   2.233  0.00  0.00    +0.050 A 
ATOM     18 CL   UNL     1       6.541  -2.931   3.119  0.00  0.00    -0.083 Cl
ATOM     19 CL   UNL     1       9.461  -7.474   3.056  0.00  0.00    -0.083 Cl
ENDBRANCH   9  12
BRANCH   8  20
ATOM     20  C   UNL     1       4.591  -4.492   0.151  0.00  0.00    +0.451 C 
ATOM     21  F   UNL     1       4.016  -4.337   1.417  0.00  0.00    -0.163 F 
ATOM     22  F   UNL     1       3.588  -4.754  -0.787  0.00  0.00    -0.163 F 
ATOM     23  F   UNL     1       5.496  -5.558   0.177  0.00  0.00    -0.163 F 
ENDBRANCH   8  20
BRANCH   2  24
ATOM     24  O   UNL     1       4.310   1.955  -3.013  0.00  0.00    -0.506 OA
ATOM     25  H   UNL     1       3.863   2.592  -2.440  0.00  0.00    +0.292 HD
ENDBRANCH   2  24
BRANCH   1  26
ATOM     26  C   UNL     1       3.005  -0.426  -2.267  0.00  0.00    -0.035 C 
BRANCH  26  33
ATOM     27  C   UNL     1       0.662  -1.824  -1.582  0.00  0.00    -0.013 C 
ATOM     28  C   UNL     1       0.761  -0.313  -1.367  0.00  0.00    -0.071 C 
ATOM     29  C   UNL     1      -0.056   0.081  -0.134  0.00  0.00    -0.016 C 
ATOM     30  C   UNL     1       0.062   1.591   0.089  0.00  0.00    -0.003 C 
ATOM     31  C   UNL     1       1.540   1.961   0.250  0.00  0.00    -0.019 C 
ATOM     32  C   UNL     1       2.310   1.513  -0.994  0.00  0.00    -0.078 C 
ATOM     33  N   UNL     1       2.177   0.048  -1.139  0.00  0.00    +0.384 N 
ATOM     34  H   UNL     1       2.500  -0.403  -0.275  0.00  0.00    -0.081 HD
ENDBRANCH  26  33
ENDBRANCH   1  26
TORSDOF 5
