REMARK  Name = ZINC59564805
REMARK  9 active torsions:
REMARK  status: ('A' for Active; 'I' for Inactive)
REMARK    1  A    between atoms: C_1  and  C_2
REMARK    2  A    between atoms: C_2  and  C_3
REMARK    3  A    between atoms: C_3  and  C_5
REMARK    4  A    between atoms: C_3  and  S_21
REMARK    5  A    between atoms: S_21  and  C_22
REMARK    6  A    between atoms: C_24  and  C_33
REMARK    7  A    between atoms: C_24  and  C_34
REMARK    8  A    between atoms: N_26  and  C_27
REMARK    9  A    between atoms: C_34  and  C_35
REMARK                            x       y       z     vdW  Elec       q    Type
REMARK                         _______ _______ _______ _____ _____    ______ ____
ROOT
ATOM      1  C   UNL     1       0.088  -1.333  -1.295  0.00  0.00    +0.140 C 
ENDROOT
BRANCH   1   2
ATOM      2  C   UNL     1       0.154  -2.781  -1.709  0.00  0.00    +0.238 C 
ATOM      3  O   UNL     1      -0.510  -3.175  -2.644  0.00  0.00    -0.274 OA
ATOM      4  N   UNL     1       0.951  -3.637  -1.040  0.00  0.00    -0.237 N 
ATOM      5  C   UNL     1       1.724  -3.158   0.025  0.00  0.00    +0.055 A 
ATOM      6  C   UNL     1       2.305  -1.901  -0.042  0.00  0.00    +0.025 A 
ATOM      7  C   UNL     1       3.068  -1.435   1.014  0.00  0.00    +0.002 A 
ATOM      8  C   UNL     1       3.257  -2.214   2.139  0.00  0.00    +0.001 A 
ATOM      9  C   UNL     1       2.681  -3.471   2.218  0.00  0.00    +0.017 A 
ATOM     10  C   UNL     1       1.918  -3.942   1.165  0.00  0.00    +0.035 A 
ATOM     11  S   UNL     1       1.172  -5.540   1.236  0.00  0.00    -0.086 S 
ATOM     12  C   UNL     1       1.087  -5.993  -0.469  0.00  0.00    +0.035 A 
ATOM     13  C   UNL     1       0.980  -4.984  -1.425  0.00  0.00    +0.055 A 
ATOM     14  C   UNL     1       0.907  -5.329  -2.766  0.00  0.00    +0.025 A 
ATOM     15  C   UNL     1       0.938  -6.661  -3.139  0.00  0.00    +0.002 A 
ATOM     16  C   UNL     1       1.041  -7.654  -2.183  0.00  0.00    +0.001 A 
ATOM     17  C   UNL     1       1.122  -7.321  -0.851  0.00  0.00    +0.017 A 
ENDBRANCH   1   2
BRANCH   1  19
ATOM     18  C   UNL     1      -0.207   0.214   0.644  0.00  0.00    +0.005 C 
ATOM     19  C   UNL     1      -0.291  -1.243   0.184  0.00  0.00    +0.020 C 
ENDBRANCH   1  19
BRANCH   1  20
ATOM     20  S   UNL     1      -1.160  -0.476  -2.293  0.00  0.00    -0.078 S 
BRANCH  20  21
ATOM     21  C   UNL     1      -0.440  -0.396  -3.900  0.00  0.00    +0.151 C 
ATOM     22  N   UNL     1       0.704  -0.929  -4.210  0.00  0.00    -0.348 N 
ATOM     23  C   UNL     1       0.958  -0.649  -5.631  0.00  0.00    +0.104 C 
ATOM     24  N   UNL     1      -0.221   0.125  -6.072  0.00  0.00    -0.209 NA
ATOM     25  N   UNL     1      -1.022   0.231  -4.970  0.00  0.00    -0.213 N 
ATOM     26  C   UNL     1       1.066  -1.954  -6.422  0.00  0.00    +0.053 C 
ATOM     27  H   UNL     1       0.051   1.034  -6.415  0.00  0.00    +0.147 HD
ATOM     28  H   UNL     1       1.286  -1.423  -3.612  0.00  0.00    +0.163 HD
BRANCH  25  29
ATOM     29  C   UNL     1      -2.257   0.888  -4.938  0.00  0.00    +0.052 A 
ATOM     30  C   UNL     1      -2.534   1.800  -3.928  0.00  0.00    +0.025 A 
ATOM     31  C   UNL     1      -3.754   2.447  -3.900  0.00  0.00    +0.002 A 
ATOM     32  C   UNL     1      -4.699   2.187  -4.876  0.00  0.00    +0.000 A 
ATOM     33  C   UNL     1      -4.426   1.279  -5.882  0.00  0.00    +0.002 A 
ATOM     34  C   UNL     1      -3.206   0.633  -5.919  0.00  0.00    +0.025 A 
ENDBRANCH  25  29
BRANCH  23  35
ATOM     35  C   UNL     1       2.232   0.182  -5.792  0.00  0.00    +0.042 C 
ATOM     36  C   UNL     1       3.442  -0.653  -5.367  0.00  0.00    +0.007 C 
ENDBRANCH  23  35
ENDBRANCH  20  21
ENDBRANCH   1  20
TORSDOF 6
