REMARK  Name = ZINC64623874
REMARK  6 active torsions:
REMARK  status: ('A' for Active; 'I' for Inactive)
REMARK    1  A    between atoms: C_2  and  C_3
REMARK    2  A    between atoms: C_3  and  N_4
REMARK    3  A    between atoms: C_5  and  C_7
REMARK    4  A    between atoms: C_7  and  C_8
REMARK    5  A    between atoms: C_8  and  N_9
REMARK    6  A    between atoms: N_12  and  C_13
REMARK                            x       y       z     vdW  Elec       q    Type
REMARK                         _______ _______ _______ _____ _____    ______ ____
ROOT
ATOM      1  N   UNL     1       4.353   5.862  -0.024  0.00  0.00    -0.299 N 
ATOM      2  C   UNL     1       4.581   7.190  -0.006  0.00  0.00    +0.304 C 
ATOM      3  O   UNL     1       3.646   7.967   0.015  0.00  0.00    -0.253 OA
ATOM      4  N   UNL     1       5.845   7.657  -0.013  0.00  0.00    -0.268 N 
ATOM      5  H   UNL     1       5.098   5.242  -0.041  0.00  0.00    +0.150 HD
ATOM      6  H   UNL     1       6.590   7.039   0.052  0.00  0.00    +0.156 HD
ENDROOT
BRANCH   4   7
ATOM      7  C   UNL     1       6.082   9.030  -0.113  0.00  0.00    +0.061 A 
ATOM      8  C   UNL     1       5.148   9.854  -0.700  0.00  0.00    +0.025 A 
ATOM      9  C   UNL     1       5.372  11.224  -0.806  0.00  0.00    +0.003 A 
ATOM     10  C   UNL     1       6.519  11.785  -0.334  0.00  0.00    +0.010 A 
ATOM     11  C   UNL     1       7.496  10.978   0.271  0.00  0.00    +0.002 A 
ATOM     12  C   UNL     1       7.279   9.584   0.392  0.00  0.00    +0.092 A 
ATOM     13  N   UNL     1       8.204   8.814   0.971  0.00  0.00    -0.253 NA
ATOM     14  C   UNL     1       9.317   9.322   1.441  0.00  0.00    +0.111 A 
ATOM     15  C   UNL     1       9.591  10.685   1.361  0.00  0.00    +0.020 A 
ATOM     16  C   UNL     1       8.693  11.527   0.769  0.00  0.00    +0.011 A 
ENDBRANCH   4   7
BRANCH   1  17
ATOM     17  C   UNL     1       2.978   5.354  -0.017  0.00  0.00    +0.115 C 
BRANCH  17  18
ATOM     18  C   UNL     1       2.999   3.825  -0.041  0.00  0.00    +0.114 C 
BRANCH  18  20
ATOM     19  N   UNL     1       1.357   1.974  -0.051  0.00  0.00    -0.304 N 
ATOM     20  C   UNL     1       1.585   3.303  -0.034  0.00  0.00    +0.215 C 
ATOM     21  O   UNL     1       0.653   4.078  -0.012  0.00  0.00    -0.276 OA
ATOM     22  H   UNL     1       2.103   1.354  -0.069  0.00  0.00    +0.150 HD
BRANCH  19  23
ATOM     23  C   UNL     1      -0.017   1.467  -0.044  0.00  0.00    +0.193 C 
BRANCH  23  25
ATOM     24  C   UNL     1       0.019  -1.178  -0.085  0.00  0.00    +0.005 C 
ATOM     25  C   UNL     1       0.003  -0.005  -0.067  0.00  0.00    -0.087 C 
ENDBRANCH  23  25
ENDBRANCH  19  23
ENDBRANCH  18  20
ENDBRANCH  17  18
ENDBRANCH   1  17
TORSDOF 6
