REMARK  Name = ZINC02860333
REMARK  5 active torsions:
REMARK  status: ('A' for Active; 'I' for Inactive)
REMARK    1  A    between atoms: C_9  and  O_26
REMARK    2  A    between atoms: C_10  and  C_11
REMARK    3  A    between atoms: N_12  and  N_13
REMARK    4  A    between atoms: C_14  and  C_16
REMARK    5  A    between atoms: N_18  and  C_19
REMARK                            x       y       z     vdW  Elec       q    Type
REMARK                         _______ _______ _______ _____ _____    ______ ____
ROOT
ATOM      1  N   UNL     1       7.322   0.145  -0.065  0.00  0.00    -0.199 N 
ATOM      2  C   UNL     1       8.490  -0.526  -0.077  0.00  0.00    +0.318 C 
ATOM      3  O   UNL     1       8.493  -1.741  -0.074  0.00  0.00    -0.263 OA
ATOM      4  H   UNL     1       7.319   1.115  -0.067  0.00  0.00    +0.178 HD
ENDROOT
BRANCH   2   5
ATOM      5  C   UNL     1       9.779   0.222  -0.095  0.00  0.00    +0.305 C 
ATOM      6  O   UNL     1       9.776   1.436  -0.098  0.00  0.00    -0.265 OA
ATOM      7  N   UNL     1      10.948  -0.450  -0.108  0.00  0.00    -0.278 N 
ATOM      8  H   UNL     1      10.952  -1.417  -0.038  0.00  0.00    +0.155 HD
BRANCH   7   9
ATOM      9  C   UNL     1      12.153   0.248  -0.222  0.00  0.00    +0.035 A 
ATOM     10  C   UNL     1      13.210  -0.301  -0.937  0.00  0.00    +0.023 A 
ATOM     11  C   UNL     1      14.400   0.391  -1.048  0.00  0.00    +0.003 A 
ATOM     12  C   UNL     1      14.540   1.629  -0.450  0.00  0.00    +0.015 A 
ATOM     13  C   UNL     1      13.490   2.179   0.263  0.00  0.00    +0.020 A 
ATOM     14  C   UNL     1      12.295   1.495   0.374  0.00  0.00    +0.038 A 
ATOM     15 BR   UNL     1      13.688   3.873   1.080  0.00  0.00    -0.050 Br
ENDBRANCH   7   9
ENDBRANCH   2   5
BRANCH   1  17
ATOM     16  C   UNL     1       4.981   0.090  -0.036  0.00  0.00    +0.142 C 
ATOM     17  N   UNL     1       6.110  -0.558  -0.048  0.00  0.00    -0.187 NA
BRANCH  16  27
ATOM     18  C   UNL     1      -0.017   1.356   0.023  0.00  0.00    +0.001 A 
ATOM     19  C   UNL     1       1.167   2.090   0.008  0.00  0.00    +0.001 A 
ATOM     20  C   UNL     1       2.378   1.464  -0.006  0.00  0.00    +0.009 A 
ATOM     21  C   UNL     1       2.435   0.065  -0.004  0.00  0.00    -0.006 A 
ATOM     22  C   UNL     1       1.233  -0.684   0.012  0.00  0.00    -0.017 A 
ATOM     23  C   UNL     1       0.002  -0.005   0.026  0.00  0.00    +0.008 A 
ATOM     24  C   UNL     1       1.292  -2.088   0.015  0.00  0.00    +0.012 A 
ATOM     25  C   UNL     1       2.487  -2.735   0.003  0.00  0.00    +0.046 A 
ATOM     26  C   UNL     1       3.697  -2.042  -0.013  0.00  0.00    +0.126 A 
ATOM     27  C   UNL     1       3.712  -0.647  -0.018  0.00  0.00    +0.044 A 
BRANCH  26  28
ATOM     28  O   UNL     1       4.867  -2.729  -0.025  0.00  0.00    -0.506 OA
ATOM     29  H   UNL     1       5.196  -2.931  -0.912  0.00  0.00    +0.292 HD
ENDBRANCH  26  28
ENDBRANCH  16  27
ENDBRANCH   1  17
TORSDOF 5
