REMARK  Name = ZINC09936861
REMARK  5 active torsions:
REMARK  status: ('A' for Active; 'I' for Inactive)
REMARK    1  A    between atoms: C_1  and  C_2
REMARK    2  A    between atoms: C_2  and  C_30
REMARK    3  A    between atoms: C_8  and  C_22
REMARK    4  A    between atoms: C_18  and  C_20
REMARK    5  A    between atoms: C_20  and  S_21
REMARK                            x       y       z     vdW  Elec       q    Type
REMARK                         _______ _______ _______ _____ _____    ______ ____
ROOT
ATOM      1  C   UNL     1       3.586   3.688   1.304  0.00  0.00    +0.011 C 
ATOM      2  C   UNL     1       4.141   3.319  -0.075  0.00  0.00    -0.027 C 
ATOM      3  C   UNL     1       3.035   3.250  -1.111  0.00  0.00    +0.029 C 
ATOM      4  C   UNL     1       2.148   2.009  -1.058  0.00  0.00    +0.083 C 
ATOM      5  C   UNL     1       2.975   0.743  -0.996  0.00  0.00    +0.104 C 
ATOM      6  C   UNL     1       2.209  -0.556  -0.970  0.00  0.00    +0.159 C 
ATOM      7  N   UNL     1       1.250  -0.655   0.130  0.00  0.00    -0.258 N 
ATOM      8  C   UNL     1       0.002  -0.004   0.002  0.00  0.00    +0.058 A 
ATOM      9  C   UNL     1      -1.169  -0.732  -0.093  0.00  0.00    +0.025 A 
ATOM     10  C   UNL     1      -2.384  -0.068  -0.101  0.00  0.00    +0.002 A 
ATOM     11  C   UNL     1      -2.417   1.313  -0.032  0.00  0.00    +0.002 A 
ATOM     12  C   UNL     1      -1.244   2.041   0.012  0.00  0.00    +0.025 A 
ATOM     13  C   UNL     1      -0.017   1.384   0.010  0.00  0.00    +0.049 A 
ATOM     14  N   UNL     1       1.159   2.131   0.002  0.00  0.00    -0.339 N 
ATOM     15  C   UNL     1       1.517  -1.375   1.239  0.00  0.00    +0.230 C 
ATOM     16  O   UNL     1       2.587  -1.936   1.354  0.00  0.00    -0.274 OA
ATOM     17  C   UNL     1       3.990   0.850   0.112  0.00  0.00    +0.141 C 
ATOM     18  O   UNL     1       4.062   0.054   1.011  0.00  0.00    -0.297 OA
ATOM     19  C   UNL     1       4.945   2.024   0.031  0.00  0.00    +0.081 C 
ATOM     20  C   UNL     1       5.117   4.440  -0.494  0.00  0.00    +0.011 C 
ATOM     21  H   UNL     1       1.290   2.764   0.736  0.00  0.00    +0.146 HD
ENDROOT
BRANCH   6  22
ATOM     22  C   UNL     1       1.497  -0.758  -2.283  0.00  0.00    +0.126 A 
ATOM     23  C   UNL     1       1.969  -1.449  -3.336  0.00  0.00    +0.046 A 
ATOM     24  C   UNL     1       0.981  -1.383  -4.345  0.00  0.00    +0.041 A 
ATOM     25  C   UNL     1      -0.032  -0.649  -3.851  0.00  0.00    +0.195 A 
ATOM     26  O   UNL     1       0.286  -0.273  -2.602  0.00  0.00    -0.466 OA
ENDBRANCH   6  22
BRANCH  15  27
ATOM     27  C   UNL     1       0.488  -1.482   2.334  0.00  0.00    +0.161 C 
BRANCH  27  28
ATOM     28  S   UNL     1       1.141  -2.508   3.680  0.00  0.00    -0.169 S 
ATOM     29  H   UNL     1       0.147  -2.530   4.585  0.00  0.00    +0.102 HD
ENDBRANCH  27  28
ENDBRANCH  15  27
TORSDOF 3
