REMARK  Name = ZINC48474627
REMARK  4 active torsions:
REMARK  status: ('A' for Active; 'I' for Inactive)
REMARK    1  A    between atoms: C_1  and  C_2
REMARK    2  A    between atoms: C_2  and  C_4
REMARK    3  A    between atoms: C_2  and  N_9
REMARK    4  A    between atoms: N_12  and  C_13
REMARK                            x       y       z     vdW  Elec       q    Type
REMARK                         _______ _______ _______ _____ _____    ______ ____
ROOT
ATOM      1  N   UNL     1       0.687  -0.492  -1.197  0.00  0.00    -0.290 N 
ATOM      2  C   UNL     1       2.031  -0.593  -1.213  0.00  0.00    +0.304 C 
ATOM      3  O   UNL     1       2.674  -0.297  -0.224  0.00  0.00    -0.252 OA
ATOM      4  N   UNL     1       2.662  -1.022  -2.324  0.00  0.00    -0.268 N 
ATOM      5  H   UNL     1       0.174  -0.728  -1.986  0.00  0.00    +0.151 HD
ATOM      6  H   UNL     1       2.147  -1.319  -3.090  0.00  0.00    +0.156 HD
ENDROOT
BRANCH   4   7
ATOM      7  C   UNL     1       4.061  -1.037  -2.373  0.00  0.00    +0.053 A 
ATOM      8  C   UNL     1       4.794  -1.326  -1.229  0.00  0.00    +0.026 A 
ATOM      9  C   UNL     1       6.174  -1.341  -1.280  0.00  0.00    +0.017 A 
ATOM     10  C   UNL     1       6.827  -1.069  -2.469  0.00  0.00    +0.019 A 
ATOM     11  C   UNL     1       6.101  -0.780  -3.610  0.00  0.00    +0.037 A 
ATOM     12  C   UNL     1       4.719  -0.769  -3.567  0.00  0.00    +0.063 A 
ATOM     13 CL   UNL     1       3.807  -0.414  -5.000  0.00  0.00    -0.082 Cl
ATOM     14 BR   UNL     1       8.717  -1.090  -2.534  0.00  0.00    -0.050 Br
ENDBRANCH   4   7
BRANCH   1  16
ATOM     15  C   UNL     1      -0.030   1.504   0.021  0.00  0.00    +0.036 C 
ATOM     16  C   UNL     1       0.001  -0.026   0.011  0.00  0.00    +0.137 C 
BRANCH  16  17
ATOM     17  C   UNL     1      -1.409  -0.558   0.025  0.00  0.00    +0.125 A 
ATOM     18  C   UNL     1      -2.066  -1.015   1.106  0.00  0.00    +0.046 A 
ATOM     19  C   UNL     1      -3.350  -1.411   0.666  0.00  0.00    +0.041 A 
ATOM     20  C   UNL     1      -3.401  -1.173  -0.656  0.00  0.00    +0.195 A 
ATOM     21  O   UNL     1      -2.224  -0.651  -1.039  0.00  0.00    -0.466 OA
ENDBRANCH  16  17
ENDBRANCH   1  16
TORSDOF 3
