REMARK  Name = ZINC09092496
REMARK  7 active torsions:
REMARK  status: ('A' for Active; 'I' for Inactive)
REMARK    1  A    between atoms: C_5  and  C_7
REMARK    2  A    between atoms: C_10  and  S_13
REMARK    3  A    between atoms: N_11  and  N_12
REMARK    4  A    between atoms: S_13  and  C_14
REMARK    5  A    between atoms: C_14  and  C_15
REMARK    6  A    between atoms: N_17  and  C_18
REMARK    7  A    between atoms: C_21  and  N_24
REMARK                            x       y       z     vdW  Elec       q    Type
REMARK                         _______ _______ _______ _____ _____    ______ ____
ROOT
ATOM      1  C   UNL     1       1.250  -2.160  -0.044  0.00  0.00    +0.183 A 
ATOM      2  N   UNL     1       2.320  -2.921  -0.058  0.00  0.00    -0.127 NA
ATOM      3  N   UNL     1       1.978  -4.160  -0.057  0.00  0.00    -0.121 NA
ATOM      4  C   UNL     1       0.668  -4.266  -0.042  0.00  0.00    +0.209 A 
ATOM      5  N   UNL     1       0.159  -2.998  -0.028  0.00  0.00    -0.224 N 
ENDROOT
BRANCH   1  10
ATOM      6  C   UNL     1      -0.016   1.375  -0.015  0.00  0.00    +0.001 A 
ATOM      7  C   UNL     1       1.171   2.087  -0.033  0.00  0.00    +0.001 A 
ATOM      8  C   UNL     1       2.384   1.421  -0.055  0.00  0.00    +0.016 A 
ATOM      9  C   UNL     1       2.417   0.041  -0.059  0.00  0.00    +0.029 A 
ATOM     10  C   UNL     1       1.223  -0.682  -0.041  0.00  0.00    +0.035 A 
ATOM     11  C   UNL     1       0.003  -0.004  -0.019  0.00  0.00    +0.013 A 
ATOM     12 BR   UNL     1       4.075  -0.867  -0.089  0.00  0.00    -0.050 Br
ENDBRANCH   1  10
BRANCH   5  13
ATOM     13  N   UNL     1      -1.159  -2.638  -0.006  0.00  0.00    -0.295 N 
ATOM     14  H   UNL     1      -1.523  -2.541  -0.942  0.00  0.00    +0.163 HD
ATOM     15  H   UNL     1      -1.705  -3.297   0.528  0.00  0.00    +0.163 HD
ENDBRANCH   5  13
BRANCH   4  16
ATOM     16  S   UNL     1      -0.259  -5.764  -0.034  0.00  0.00    -0.075 S 
BRANCH  16  17
ATOM     17  C   UNL     1       1.006  -7.064  -0.050  0.00  0.00    +0.173 C 
BRANCH  17  18
ATOM     18  C   UNL     1       0.339  -8.415  -0.045  0.00  0.00    +0.227 C 
ATOM     19  O   UNL     1      -0.871  -8.494  -0.032  0.00  0.00    -0.275 OA
ATOM     20  N   UNL     1       1.088  -9.536  -0.056  0.00  0.00    -0.285 N 
ATOM     21  H   UNL     1       2.052  -9.474  -0.134  0.00  0.00    +0.155 HD
BRANCH  20  22
ATOM     22  C   UNL     1       0.473 -10.789   0.047  0.00  0.00    +0.034 A 
ATOM     23  C   UNL     1       1.098 -11.816   0.740  0.00  0.00    +0.025 A 
ATOM     24  C   UNL     1       0.489 -13.052   0.840  0.00  0.00    +0.034 A 
ATOM     25  C   UNL     1      -0.743 -13.266   0.249  0.00  0.00    +0.126 A 
ATOM     26  C   UNL     1      -1.369 -12.245  -0.442  0.00  0.00    +0.034 A 
ATOM     27  C   UNL     1      -0.767 -11.005  -0.540  0.00  0.00    +0.025 A 
BRANCH  25  28
ATOM     28  N   UNL     1      -1.394 -14.591   0.358  0.00  0.00    +0.056 N 
ATOM     29  O   UNL     1      -0.848 -15.485   0.962  0.00  0.00    -0.126 OA
ATOM     30  O   UNL     1      -2.471 -14.779  -0.158  0.00  0.00    -0.126 OA
ENDBRANCH  25  28
ENDBRANCH  20  22
ENDBRANCH  17  18
ENDBRANCH  16  17
ENDBRANCH   4  16
TORSDOF 7
