REMARK  Name = ZINC04177411
REMARK  3 active torsions:
REMARK  status: ('A' for Active; 'I' for Inactive)
REMARK    1  A    between atoms: C_3  and  C_6
REMARK    2  A    between atoms: C_9  and  C_21
REMARK    3  A    between atoms: C_14  and  C_16
REMARK                            x       y       z     vdW  Elec       q    Type
REMARK                         _______ _______ _______ _____ _____    ______ ____
ROOT
ATOM      1  C   UNL     1       3.761   1.845  -0.024  0.00  0.00    +0.111 C 
ATOM      2  C   UNL     1       4.347   1.768   1.390  0.00  0.00    +0.063 C 
ATOM      3  C   UNL     1       4.262   0.329   1.912  0.00  0.00    +0.215 C 
ATOM      4  N   UNL     1       4.812  -0.577   0.900  0.00  0.00    -0.237 N 
ATOM      5  C   UNL     1       4.957  -0.243  -0.417  0.00  0.00    +0.133 A 
ATOM      6  C   UNL     1       5.493  -1.299  -1.061  0.00  0.00    +0.089 A 
ATOM      7  C   UNL     1       5.686  -2.326  -0.110  0.00  0.00    +0.163 A 
ATOM      8  N   UNL     1       5.273  -1.882   1.065  0.00  0.00    -0.163 NA
ATOM      9 BR   UNL     1       5.910  -1.390  -2.904  0.00  0.00    -0.044 Br
ATOM     10  N   UNL     1       4.581   1.010  -0.923  0.00  0.00    -0.321 N 
ATOM     11  H   UNL     1       4.843   1.311  -1.807  0.00  0.00    +0.148 HD
ENDROOT
BRANCH   1  14
ATOM     12  C   UNL     1      -0.016   1.351   0.009  0.00  0.00    +0.008 A 
ATOM     13  C   UNL     1       1.183   2.038   0.002  0.00  0.00    +0.013 A 
ATOM     14  C   UNL     1       2.343   1.336  -0.013  0.00  0.00    +0.010 A 
ATOM     15  S   UNL     1       1.754  -0.349  -0.017  0.00  0.00    -0.100 S 
ATOM     16  C   UNL     1       0.002  -0.004   0.002  0.00  0.00    +0.045 A 
ENDBRANCH   1  14
BRANCH   7  17
ATOM     17  C   UNL     1       6.250  -3.664  -0.381  0.00  0.00    +0.263 C 
ATOM     18  O   UNL     1       6.596  -3.961  -1.508  0.00  0.00    -0.269 OA
ATOM     19  N   UNL     1       6.381  -4.556   0.621  0.00  0.00    -0.324 N 
ATOM     20  H   UNL     1       6.105  -4.319   1.520  0.00  0.00    +0.145 HD
ATOM     21  H   UNL     1       6.751  -5.435   0.443  0.00  0.00    +0.145 HD
ENDBRANCH   7  17
BRANCH   3  22
ATOM     22  C   UNL     1       5.067   0.205   3.207  0.00  0.00    +0.412 C 
ATOM     23  F   UNL     1       4.546   1.080   4.166  0.00  0.00    -0.168 F 
ATOM     24  F   UNL     1       4.988  -1.108   3.682  0.00  0.00    -0.168 F 
ATOM     25  F   UNL     1       6.405   0.531   2.957  0.00  0.00    -0.168 F 
ENDBRANCH   3  22
TORSDOF 3
