REMARK  Name = ZINC50358591
REMARK  3 active torsions:
REMARK  status: ('A' for Active; 'I' for Inactive)
REMARK    1  A    between atoms: C_6  and  N_7
REMARK    2  A    between atoms: N_7  and  C_8
REMARK    3  A    between atoms: C_8  and  C_9
REMARK                            x       y       z     vdW  Elec       q    Type
REMARK                         _______ _______ _______ _____ _____    ______ ____
ROOT
ATOM      1  C   UNL     1      -0.017   1.386   0.010  0.00  0.00    +0.025 A 
ATOM      2  C   UNL     1       1.167   2.097   0.002  0.00  0.00    +0.029 A 
ATOM      3  C   UNL     1       2.378   1.423  -0.013  0.00  0.00    +0.067 A 
ATOM      4  C   UNL     1       2.401   0.027  -0.021  0.00  0.00    +0.069 A 
ATOM      5  C   UNL     1       1.211  -0.684  -0.013  0.00  0.00    +0.050 A 
ATOM      6  C   UNL     1       0.002  -0.004   0.002  0.00  0.00    +0.030 A 
ATOM      7  N   UNL     1       3.741  -0.354  -0.035  0.00  0.00    -0.306 N 
ATOM      8  H   UNL     1       4.071  -1.266  -0.044  0.00  0.00    +0.170 HD
ATOM      9  C   UNL     1       4.499   0.758  -0.037  0.00  0.00    +0.325 A 
ATOM     10  O   UNL     1       5.716   0.776  -0.048  0.00  0.00    -0.247 OA
ATOM     11  N   UNL     1       3.708   1.847  -0.023  0.00  0.00    -0.306 N 
ATOM     12  H   UNL     1       4.010   2.769  -0.022  0.00  0.00    +0.170 HD
ENDROOT
BRANCH   6  13
ATOM     13  N   UNL     1      -1.201  -0.719   0.010  0.00  0.00    -0.337 N 
ATOM     14  H   UNL     1      -1.189  -1.689   0.005  0.00  0.00    +0.147 HD
BRANCH  13  15
ATOM     15  C   UNL     1      -2.478  -0.002   0.027  0.00  0.00    +0.176 C 
BRANCH  15  16
ATOM     16  C   UNL     1      -3.611  -0.996   0.032  0.00  0.00    +0.124 A 
ATOM     17  C   UNL     1      -4.195  -1.516   1.127  0.00  0.00    +0.062 A 
ATOM     18  C   UNL     1      -5.205  -2.397   0.673  0.00  0.00    +0.070 A 
ATOM     19  C   UNL     1      -5.177  -2.361  -0.672  0.00  0.00    +0.184 A 
ATOM     20  O   UNL     1      -4.213  -1.507  -1.054  0.00  0.00    -0.450 OA
ATOM     21 BR   UNL     1      -6.307  -3.343  -1.828  0.00  0.00    -0.007 Br
ATOM     22 BR   UNL     1      -6.370  -3.426   1.750  0.00  0.00    -0.046 Br
ENDBRANCH  15  16
ENDBRANCH  13  15
ENDBRANCH   6  13
TORSDOF 3
