REMARK  Name = ZINC39666791
REMARK  10 active torsions:
REMARK  status: ('A' for Active; 'I' for Inactive)
REMARK    1  A    between atoms: C_1  and  C_2
REMARK    2  A    between atoms: C_2  and  C_3
REMARK    3  A    between atoms: C_3  and  C_4
REMARK    4  A    between atoms: C_3  and  C_6
REMARK    5  A    between atoms: C_4  and  C_5
REMARK    6  A    between atoms: C_6  and  N_7
REMARK    7  A    between atoms: C_8  and  C_10
REMARK    8  A    between atoms: C_21  and  C_23
REMARK    9  A    between atoms: C_24  and  C_36
REMARK   10  A    between atoms: C_27  and  C_28
REMARK                            x       y       z     vdW  Elec       q    Type
REMARK                         _______ _______ _______ _____ _____    ______ ____
ROOT
ATOM      1  C   UNL     1      -2.500  -2.129  -1.881  0.00  0.00    +0.100 C 
ATOM      2  C   UNL     1      -3.684  -2.355  -0.915  0.00  0.00    +0.121 C 
ATOM      3  N   UNL     1      -4.159  -3.725  -1.219  0.00  0.00    -0.296 N 
ATOM      4  C   UNL     1      -2.918  -4.503  -1.452  0.00  0.00    +0.115 C 
ATOM      5  C   UNL     1      -2.000  -3.540  -2.231  0.00  0.00    -0.004 C 
ATOM      6  C   UNL     1      -2.125  -3.789  -3.731  0.00  0.00    -0.010 C 
ATOM      7  C   UNL     1      -1.569  -5.177  -4.061  0.00  0.00    -0.082 C 
ATOM      8  N   UNL     1      -0.163  -5.254  -3.648  0.00  0.00    +0.379 N 
ATOM      9  C   UNL     1      -0.060  -5.106  -2.192  0.00  0.00    -0.082 C 
ATOM     10  C   UNL     1      -0.552  -3.715  -1.782  0.00  0.00    -0.010 C 
ATOM     11  C   UNL     1      -5.432  -4.165  -1.273  0.00  0.00    +0.252 C 
ATOM     12  O   UNL     1      -5.662  -5.330  -1.538  0.00  0.00    -0.270 OA
ATOM     13  H   UNL     1       0.218  -6.147  -3.922  0.00  0.00    -0.086 HD
ATOM     14  H   UNL     1       0.359  -4.517  -4.098  0.00  0.00    -0.086 HD
ENDROOT
BRANCH  11  15
ATOM     15  C   UNL     1      -6.544  -3.236  -1.011  0.00  0.00    +0.106 A 
ATOM     16  C   UNL     1      -7.277  -2.561  -1.942  0.00  0.00    +0.147 A 
ATOM     17  O   UNL     1      -8.189  -1.824  -1.304  0.00  0.00    -0.359 OA
ATOM     18  N   UNL     1      -8.057  -2.015   0.091  0.00  0.00    -0.077 NA
ATOM     19  C   UNL     1      -7.083  -2.862   0.306  0.00  0.00    +0.128 A 
ATOM     20  C   UNL     1      -7.090  -2.635  -3.436  0.00  0.00    +0.090 C 
BRANCH  19  21
ATOM     21  C   UNL     1      -6.610  -3.349   1.624  0.00  0.00    +0.041 A 
ATOM     22  C   UNL     1      -6.121  -2.447   2.569  0.00  0.00    +0.052 A 
ATOM     23  C   UNL     1      -5.682  -2.906   3.796  0.00  0.00    +0.021 A 
ATOM     24  C   UNL     1      -5.726  -4.258   4.087  0.00  0.00    +0.003 A 
ATOM     25  C   UNL     1      -6.209  -5.157   3.154  0.00  0.00    +0.021 A 
ATOM     26  C   UNL     1      -6.657  -4.710   1.926  0.00  0.00    +0.052 A 
ATOM     27 CL   UNL     1      -7.270  -5.839   0.760  0.00  0.00    -0.083 Cl
ATOM     28 CL   UNL     1      -6.065  -0.750   2.205  0.00  0.00    -0.083 Cl
ENDBRANCH  19  21
ENDBRANCH  11  15
BRANCH   1  30
ATOM     29  N   UNL     1      -0.599  -0.546  -1.927  0.00  0.00    -0.315 N 
ATOM     30  C   UNL     1      -1.411  -1.340  -1.201  0.00  0.00    +0.218 C 
ATOM     31  O   UNL     1      -1.265  -1.419   0.001  0.00  0.00    -0.275 OA
ATOM     32  H   UNL     1      -0.716  -0.483  -2.888  0.00  0.00    +0.149 HD
BRANCH  29  33
ATOM     33  C   UNL     1       0.460   0.221  -1.266  0.00  0.00    +0.107 C 
BRANCH  33  34
ATOM     34  C   UNL     1       1.230   1.032  -2.310  0.00  0.00    +0.006 C 
BRANCH  34  36
ATOM     35  C   UNL     1       1.048   2.835  -4.030  0.00  0.00    +0.004 C 
ATOM     36  C   UNL     1       0.300   2.077  -2.931  0.00  0.00    +0.002 C 
ENDBRANCH  34  36
BRANCH  34  37
ATOM     37  C   UNL     1       2.412   1.735  -1.639  0.00  0.00    +0.002 C 
ATOM     38  C   UNL     1       3.381   0.688  -1.087  0.00  0.00    +0.004 C 
ENDBRANCH  34  37
ENDBRANCH  33  34
ENDBRANCH  29  33
ENDBRANCH   1  30
TORSDOF 7
