REMARK  Name = ZINC43920825
REMARK  7 active torsions:
REMARK  status: ('A' for Active; 'I' for Inactive)
REMARK    1  A    between atoms: C_1  and  C_2
REMARK    2  A    between atoms: C_2  and  O_3
REMARK    3  A    between atoms: O_3  and  C_4
REMARK    4  A    between atoms: C_9  and  N_10
REMARK    5  A    between atoms: C_11  and  C_13
REMARK    6  A    between atoms: C_21  and  C_31
REMARK    7  A    between atoms: N_23  and  C_24
REMARK                            x       y       z     vdW  Elec       q    Type
REMARK                         _______ _______ _______ _____ _____    ______ ____
ROOT
ATOM      1  C   UNL     1       3.314  -1.058  -5.410  0.00  0.00    +0.100 A 
ATOM      2  C   UNL     1       3.948  -1.551  -6.532  0.00  0.00    +0.101 A 
ATOM      3  N   UNL     1       4.554  -0.745  -7.415  0.00  0.00    -0.345 N 
ATOM      4  H   UNL     1       4.985  -1.145  -8.187  0.00  0.00    +0.167 HD
ATOM      5  C   UNL     1       4.590   0.615  -7.277  0.00  0.00    +0.146 A 
ATOM      6  C   UNL     1       3.984   1.233  -6.184  0.00  0.00    +0.087 A 
ATOM      7  C   UNL     1       3.302   0.397  -5.189  0.00  0.00    +0.205 A 
ATOM      8  O   UNL     1       2.752   0.888  -4.217  0.00  0.00    -0.286 OA
ATOM      9  C   UNL     1       4.187   2.622  -6.317  0.00  0.00    +0.073 A 
ATOM     10  N   UNL     1       4.866   2.832  -7.410  0.00  0.00    -0.169 NA
ATOM     11  N   UNL     1       5.134   1.607  -8.032  0.00  0.00    -0.216 N 
ATOM     12  C   UNL     1       3.702   3.681  -5.360  0.00  0.00    +0.068 C 
ENDROOT
BRANCH  11  13
ATOM     13  C   UNL     1       5.843   1.432  -9.229  0.00  0.00    +0.068 A 
ATOM     14  C   UNL     1       6.651   0.317  -9.402  0.00  0.00    +0.030 A 
ATOM     15  C   UNL     1       7.349   0.146 -10.581  0.00  0.00    +0.040 A 
ATOM     16  C   UNL     1       7.242   1.087 -11.592  0.00  0.00    +0.124 A 
ATOM     17  C   UNL     1       6.437   2.201 -11.421  0.00  0.00    +0.040 A 
ATOM     18  C   UNL     1       5.733   2.371 -10.245  0.00  0.00    +0.030 A 
ATOM     19  F   UNL     1       7.926   0.919 -12.745  0.00  0.00    -0.205 F 
ENDBRANCH  11  13
BRANCH   1  21
ATOM     20  N   UNL     1       1.942  -1.468  -3.432  0.00  0.00    -0.278 N 
ATOM     21  C   UNL     1       2.659  -1.968  -4.458  0.00  0.00    +0.253 C 
ATOM     22  O   UNL     1       2.763  -3.172  -4.597  0.00  0.00    -0.270 OA
ATOM     23  H   UNL     1       1.803  -0.510  -3.359  0.00  0.00    +0.155 HD
BRANCH  20  29
ATOM     24  C   UNL     1       1.201  -1.885  -1.166  0.00  0.00    +0.142 A 
ATOM     25  C   UNL     1       0.658  -2.740  -0.221  0.00  0.00    +0.047 A 
ATOM     26  C   UNL     1       0.320  -4.033  -0.572  0.00  0.00    +0.004 A 
ATOM     27  C   UNL     1       0.521  -4.478  -1.866  0.00  0.00    +0.002 A 
ATOM     28  C   UNL     1       1.062  -3.631  -2.814  0.00  0.00    +0.027 A 
ATOM     29  C   UNL     1       1.399  -2.330  -2.471  0.00  0.00    +0.076 A 
BRANCH  24  30
ATOM     30  O   UNL     1       1.534  -0.612  -0.822  0.00  0.00    -0.490 OA
BRANCH  30  32
ATOM     31  C   UNL     1       1.737   1.229   0.731  0.00  0.00    +0.048 C 
ATOM     32  C   UNL     1       1.304  -0.225   0.535  0.00  0.00    +0.226 C 
ENDBRANCH  30  32
ENDBRANCH  24  30
ENDBRANCH  20  29
ENDBRANCH   1  21
TORSDOF 5
