REMARK  Name = ZINC39598565
REMARK  10 active torsions:
REMARK  status: ('A' for Active; 'I' for Inactive)
REMARK    1  A    between atoms: C_1  and  C_2
REMARK    2  A    between atoms: C_2  and  N_3
REMARK    3  A    between atoms: C_4  and  C_6
REMARK    4  A    between atoms: C_17  and  C_19
REMARK    5  A    between atoms: C_21  and  O_29
REMARK    6  A    between atoms: C_22  and  O_27
REMARK    7  A    between atoms: C_23  and  O_25
REMARK    8  A    between atoms: O_25  and  C_26
REMARK    9  A    between atoms: O_27  and  C_28
REMARK   10  A    between atoms: O_29  and  C_30
REMARK                            x       y       z     vdW  Elec       q    Type
REMARK                         _______ _______ _______ _____ _____    ______ ____
ROOT
ATOM      1  C   UNL     1      -3.692  -2.340   0.043  0.00  0.00    +0.100 C 
ATOM      2  C   UNL     1      -4.151  -1.741  -1.306  0.00  0.00    +0.121 C 
ATOM      3  N   UNL     1      -3.952  -2.833  -2.287  0.00  0.00    -0.296 N 
ATOM      4  C   UNL     1      -4.369  -4.059  -1.564  0.00  0.00    +0.115 C 
ATOM      5  C   UNL     1      -3.840  -3.861  -0.130  0.00  0.00    -0.004 C 
ATOM      6  C   UNL     1      -2.486  -4.545   0.032  0.00  0.00    -0.010 C 
ATOM      7  C   UNL     1      -2.668  -6.061  -0.088  0.00  0.00    -0.082 C 
ATOM      8  N   UNL     1      -3.600  -6.526   0.946  0.00  0.00    +0.379 N 
ATOM      9  C   UNL     1      -4.926  -5.934   0.729  0.00  0.00    -0.082 C 
ATOM     10  C   UNL     1      -4.839  -4.413   0.883  0.00  0.00    -0.010 C 
ATOM     11  C   UNL     1      -3.496  -2.735  -3.552  0.00  0.00    +0.247 C 
ATOM     12  O   UNL     1      -3.074  -1.673  -3.965  0.00  0.00    -0.270 OA
ATOM     13  H   UNL     1      -3.672  -7.532   0.905  0.00  0.00    -0.086 HD
ATOM     14  H   UNL     1      -3.256  -6.253   1.855  0.00  0.00    -0.086 HD
ENDROOT
BRANCH  11  15
ATOM     15  C   UNL     1      -3.510  -3.917  -4.435  0.00  0.00    +0.044 A 
ATOM     16  C   UNL     1      -4.364  -4.988  -4.158  0.00  0.00    +0.062 A 
ATOM     17  C   UNL     1      -4.376  -6.094  -4.987  0.00  0.00    +0.166 A 
ATOM     18  C   UNL     1      -3.537  -6.142  -6.097  0.00  0.00    +0.204 A 
ATOM     19  C   UNL     1      -2.684  -5.077  -6.375  0.00  0.00    +0.166 A 
ATOM     20  C   UNL     1      -2.674  -3.966  -5.553  0.00  0.00    +0.062 A 
BRANCH  19  21
ATOM     21  O   UNL     1      -1.866  -5.127  -7.460  0.00  0.00    -0.491 OA
ATOM     22  C   UNL     1      -1.017  -3.999  -7.685  0.00  0.00    +0.277 C 
ENDBRANCH  19  21
BRANCH  18  23
ATOM     23  O   UNL     1      -3.550  -7.230  -6.911  0.00  0.00    -0.488 OA
ATOM     24  C   UNL     1      -4.464  -7.209  -8.009  0.00  0.00    +0.277 C 
ENDBRANCH  18  23
BRANCH  17  25
ATOM     25  O   UNL     1      -5.207  -7.136  -4.718  0.00  0.00    -0.491 OA
ATOM     26  C   UNL     1      -6.040  -7.020  -3.563  0.00  0.00    +0.277 C 
ENDBRANCH  17  25
ENDBRANCH  11  15
BRANCH   1  28
ATOM     27  N   UNL     1      -1.791  -1.964   1.580  0.00  0.00    -0.315 N 
ATOM     28  C   UNL     1      -2.254  -1.980   0.315  0.00  0.00    +0.218 C 
ATOM     29  O   UNL     1      -1.513  -1.704  -0.605  0.00  0.00    -0.275 OA
ATOM     30  H   UNL     1      -2.383  -2.185   2.316  0.00  0.00    +0.149 HD
BRANCH  27  32
ATOM     31  C   UNL     1      -0.129  -1.673   3.351  0.00  0.00    +0.024 C 
ATOM     32  C   UNL     1      -0.393  -1.615   1.845  0.00  0.00    +0.101 C 
ENDBRANCH  27  32
ENDBRANCH   1  28
TORSDOF 6
