REMARK  Name = ZINC00645681
REMARK  11 active torsions:
REMARK  status: ('A' for Active; 'I' for Inactive)
REMARK    1  A    between atoms: C_1  and  C_2
REMARK    2  A    between atoms: C_2  and  C_3
REMARK    3  A    between atoms: C_2  and  C_4
REMARK    4  A    between atoms: C_2  and  C_5
REMARK    5  A    between atoms: C_8  and  S_11
REMARK    6  A    between atoms: S_11  and  N_14
REMARK    7  A    between atoms: N_14  and  C_15
REMARK    8  A    between atoms: C_17  and  S_26
REMARK    9  A    between atoms: C_18  and  O_25
REMARK   10  A    between atoms: S_26  and  C_27
REMARK   11  A    between atoms: C_27  and  C_28
REMARK                            x       y       z     vdW  Elec       q    Type
REMARK                         _______ _______ _______ _____ _____    ______ ____
ROOT
ATOM      1  C   UNL     1       0.048   5.176   0.198  0.00  0.00    +0.057 A 
ATOM      2  C   UNL     1      -1.200   5.750   0.286  0.00  0.00    +0.043 A 
ATOM      3  C   UNL     1      -2.339   4.960   0.463  0.00  0.00    +0.052 A 
ATOM      4  C   UNL     1      -2.237   3.584   0.553  0.00  0.00    +0.138 A 
ATOM      5  C   UNL     1      -0.974   2.972   0.467  0.00  0.00    +0.026 A 
ATOM      6  C   UNL     1       0.181   3.774   0.287  0.00  0.00    +0.008 A 
ATOM      7  C   UNL     1       1.440   3.158   0.200  0.00  0.00    +0.010 A 
ATOM      8  C   UNL     1       1.536   1.803   0.290  0.00  0.00    +0.001 A 
ATOM      9  C   UNL     1       0.401   1.014   0.466  0.00  0.00    +0.001 A 
ATOM     10  C   UNL     1      -0.837   1.575   0.548  0.00  0.00    +0.012 A 
ENDROOT
BRANCH   1  11
ATOM     11  N   UNL     1       1.177   5.978   0.021  0.00  0.00    -0.216 N 
ATOM     12  H   UNL     1       1.915   5.663  -0.525  0.00  0.00    +0.174 HD
BRANCH  11  13
ATOM     13  S   UNL     1       1.258   7.465   0.744  0.00  0.00    +0.072 S 
ATOM     14  O   UNL     1       2.562   7.970   0.491  0.00  0.00    -0.150 OA
ATOM     15  O   UNL     1       0.083   8.167   0.363  0.00  0.00    -0.150 OA
BRANCH  13  19
ATOM     16  C   UNL     1       0.973   6.799   5.213  0.00  0.00    -0.042 A 
ATOM     17  C   UNL     1       2.208   6.805   4.592  0.00  0.00    +0.006 A 
ATOM     18  C   UNL     1       2.295   7.009   3.228  0.00  0.00    +0.029 A 
ATOM     19  C   UNL     1       1.147   7.205   2.484  0.00  0.00    +0.109 A 
ATOM     20  C   UNL     1      -0.088   7.204   3.105  0.00  0.00    +0.029 A 
ATOM     21  C   UNL     1      -0.175   6.996   4.469  0.00  0.00    +0.006 A 
BRANCH  16  23
ATOM     22  C   UNL     1       1.653   7.676   7.430  0.00  0.00    +0.015 C 
ATOM     23  C   UNL     1       0.878   6.577   6.700  0.00  0.00    -0.013 C 
ATOM     24  C   UNL     1      -0.590   6.617   7.129  0.00  0.00    +0.015 C 
ATOM     25  C   UNL     1       1.475   5.213   7.051  0.00  0.00    +0.015 C 
ENDBRANCH  16  23
ENDBRANCH  13  19
ENDBRANCH  11  13
ENDBRANCH   1  11
BRANCH   4  26
ATOM     26  O   UNL     1      -3.354   2.825   0.725  0.00  0.00    -0.505 OA
ATOM     27  H   UNL     1      -3.768   2.542  -0.101  0.00  0.00    +0.292 HD
ENDBRANCH   4  26
BRANCH   3  28
ATOM     28  S   UNL     1      -3.923   5.725   0.572  0.00  0.00    -0.110 S 
BRANCH  28  29
ATOM     29  C   UNL     1      -3.567   7.496   0.404  0.00  0.00    +0.199 C 
BRANCH  29  30
ATOM     30  C   UNL     1      -4.854   8.276   0.481  0.00  0.00    +0.366 C 
ATOM     31  O   UNL     1      -5.903   7.697   0.633  0.00  0.00    -0.245 OA
ATOM     32  O   UNL     1      -4.834   9.614   0.381  0.00  0.00    -0.245 OA
ENDBRANCH  29  30
ENDBRANCH  28  29
ENDBRANCH   3  28
TORSDOF 8
