REMARK  Name = ZINC64774897
REMARK  10 active torsions:
REMARK  status: ('A' for Active; 'I' for Inactive)
REMARK    1  A    between atoms: C_1  and  C_2
REMARK    2  A    between atoms: C_2  and  C_3
REMARK    3  A    between atoms: N_5  and  C_6
REMARK    4  A    between atoms: C_11  and  C_12
REMARK    5  A    between atoms: C_16  and  S_19
REMARK    6  A    between atoms: S_19  and  C_20
REMARK    7  A    between atoms: C_20  and  C_22
REMARK    8  A    between atoms: C_20  and  C_23
REMARK    9  A    between atoms: N_25  and  C_26
REMARK   10  A    between atoms: C_29  and  C_32
REMARK                            x       y       z     vdW  Elec       q    Type
REMARK                         _______ _______ _______ _____ _____    ______ ____
ROOT
ATOM      1  C   UNL     1       0.972  -4.556  -1.733  0.00  0.00    +0.161 A 
ATOM      2  C   UNL     1       1.113  -5.945  -1.906  0.00  0.00    +0.300 A 
ATOM      3  O   UNL     1       1.737  -6.446  -2.999  0.00  0.00    -0.263 OA
ATOM      4  N   UNL     1       0.621  -6.754  -0.977  0.00  0.00    -0.180 NA
ATOM      5  C   UNL     1       0.014  -6.235   0.085  0.00  0.00    +0.213 A 
ATOM      6  N   UNL     1      -0.108  -4.921   0.229  0.00  0.00    -0.122 NA
ATOM      7  N   UNL     1       0.359  -4.102  -0.646  0.00  0.00    -0.141 NA
ENDROOT
BRANCH   1  13
ATOM      8  C   UNL     1       2.311  -2.539  -2.350  0.00  0.00    +0.043 A 
ATOM      9  C   UNL     1       2.810  -1.666  -3.305  0.00  0.00    +0.024 A 
ATOM     10  C   UNL     1       2.506  -1.854  -4.640  0.00  0.00    +0.002 A 
ATOM     11  C   UNL     1       1.705  -2.912  -5.032  0.00  0.00    +0.001 A 
ATOM     12  C   UNL     1       1.202  -3.789  -4.093  0.00  0.00    +0.012 A 
ATOM     13  C   UNL     1       1.505  -3.614  -2.744  0.00  0.00    +0.029 A 
BRANCH   8  16
ATOM     14  C   UNL     1       2.747  -1.104  -0.505  0.00  0.00    +0.217 C 
ATOM     15  O   UNL     1       2.678  -0.147  -1.248  0.00  0.00    -0.275 OA
ATOM     16  N   UNL     1       2.617  -2.351  -0.999  0.00  0.00    -0.285 N 
ATOM     17  H   UNL     1       2.737  -3.118  -0.417  0.00  0.00    +0.155 HD
BRANCH  14  19
ATOM     18  C   UNL     1       3.087   0.599   1.265  0.00  0.00    +0.013 C 
ATOM     19  C   UNL     1       2.977  -0.898   0.970  0.00  0.00    +0.093 C 
ENDBRANCH  14  19
ENDBRANCH   8  16
ENDBRANCH   1  13
BRANCH   5  20
ATOM     20  S   UNL     1      -0.640  -7.308   1.321  0.00  0.00    -0.072 S 
BRANCH  20  21
ATOM     21  C   UNL     1      -1.357  -6.180   2.547  0.00  0.00    +0.137 C 
ATOM     22  C   UNL     1      -2.528  -5.422   1.918  0.00  0.00    +0.029 C 
BRANCH  21  23
ATOM     23  C   UNL     1      -1.849  -6.971   3.731  0.00  0.00    +0.230 C 
ATOM     24  O   UNL     1      -2.068  -8.159   3.618  0.00  0.00    -0.274 OA
ATOM     25  N   UNL     1      -2.046  -6.360   4.916  0.00  0.00    -0.285 N 
ATOM     26  H   UNL     1      -1.809  -5.426   5.024  0.00  0.00    +0.155 HD
BRANCH  25  27
ATOM     27  C   UNL     1      -2.591  -7.073   5.989  0.00  0.00    +0.033 A 
ATOM     28  C   UNL     1      -3.447  -6.441   6.882  0.00  0.00    +0.023 A 
ATOM     29  C   UNL     1      -3.983  -7.147   7.940  0.00  0.00    +0.005 A 
ATOM     30  C   UNL     1      -3.669  -8.483   8.112  0.00  0.00    -0.050 A 
ATOM     31  C   UNL     1      -2.817  -9.116   7.225  0.00  0.00    +0.005 A 
ATOM     32  C   UNL     1      -2.283  -8.416   6.161  0.00  0.00    +0.023 A 
ATOM     33  C   UNL     1      -4.257  -9.251   9.268  0.00  0.00    +0.044 C 
ENDBRANCH  25  27
ENDBRANCH  21  23
ENDBRANCH  20  21
ENDBRANCH   5  20
TORSDOF 7
