REMARK  Name = ZINC58569294
REMARK  5 active torsions:
REMARK  status: ('A' for Active; 'I' for Inactive)
REMARK    1  A    between atoms: C_11  and  C_14
REMARK    2  A    between atoms: C_14  and  C_15
REMARK    3  A    between atoms: N_17  and  C_18
REMARK    4  A    between atoms: C_18  and  C_19
REMARK    5  A    between atoms: C_23  and  N_25
REMARK                            x       y       z     vdW  Elec       q    Type
REMARK                         _______ _______ _______ _____ _____    ______ ____
ROOT
ATOM      1  C   UNL     1       5.977   1.812   0.786  0.00  0.00    +0.218 C 
ATOM      2  O   UNL     1       5.534   1.019   1.590  0.00  0.00    -0.275 OA
ATOM      3  N   UNL     1       6.397   3.025   1.198  0.00  0.00    -0.311 N 
ATOM      4  H   UNL     1       6.751   3.659   0.555  0.00  0.00    +0.149 HD
ENDROOT
BRANCH   1   5
ATOM      5  C   UNL     1       6.058   1.441  -0.672  0.00  0.00    +0.134 C 
BRANCH   5  16
ATOM      6  C   UNL     1       0.410   1.643  -1.223  0.00  0.00    +0.001 A 
ATOM      7  C   UNL     1       1.579   2.374  -1.031  0.00  0.00    +0.001 A 
ATOM      8  C   UNL     1       2.791   1.752  -0.970  0.00  0.00    +0.009 A 
ATOM      9  C   UNL     1       2.865   0.361  -1.102  0.00  0.00    -0.007 A 
ATOM     10  C   UNL     1       1.676  -0.385  -1.296  0.00  0.00    -0.017 A 
ATOM     11  C   UNL     1       0.446   0.287  -1.354  0.00  0.00    +0.008 A 
ATOM     12  C   UNL     1       1.752  -1.785  -1.429  0.00  0.00    +0.012 A 
ATOM     13  C   UNL     1       2.942  -2.432  -1.373  0.00  0.00    +0.047 A 
ATOM     14  C   UNL     1       4.145  -1.743  -1.183  0.00  0.00    +0.136 A 
ATOM     15  C   UNL     1       4.134  -0.352  -1.045  0.00  0.00    +0.031 A 
ATOM     16  C   UNL     1       5.529   0.043  -0.864  0.00  0.00    +0.007 A 
ATOM     17  C   UNL     1       6.246  -1.093  -0.906  0.00  0.00    +0.200 A 
ATOM     18  O   UNL     1       5.430  -2.143  -1.093  0.00  0.00    -0.463 OA
ENDBRANCH   5  16
ENDBRANCH   1   5
BRANCH   3  19
ATOM     19  C   UNL     1       6.318   3.386   2.615  0.00  0.00    +0.139 C 
BRANCH  19  20
ATOM     20  C   UNL     1       6.847   4.784   2.808  0.00  0.00    -0.029 A 
ATOM     21  C   UNL     1       8.191   4.985   3.063  0.00  0.00    +0.005 A 
ATOM     22  C   UNL     1       8.680   6.266   3.241  0.00  0.00    +0.002 A 
ATOM     23  C   UNL     1       7.826   7.349   3.163  0.00  0.00    +0.023 A 
ATOM     24  C   UNL     1       6.476   7.151   2.906  0.00  0.00    +0.035 A 
ATOM     25  C   UNL     1       5.989   5.863   2.723  0.00  0.00    +0.028 A 
BRANCH  24  26
ATOM     26  N   UNL     1       5.609   8.246   2.827  0.00  0.00    -0.270 N 
ATOM     27  C   UNL     1       4.331   8.125   3.239  0.00  0.00    +0.301 C 
ATOM     28  O   UNL     1       3.958   7.096   3.768  0.00  0.00    -0.253 OA
ATOM     29  N   UNL     1       3.467   9.145   3.064  0.00  0.00    -0.313 N 
ATOM     30  H   UNL     1       5.927   9.092   2.475  0.00  0.00    +0.156 HD
ATOM     31  H   UNL     1       3.765   9.966   2.642  0.00  0.00    +0.146 HD
ATOM     32  H   UNL     1       2.548   9.058   3.360  0.00  0.00    +0.146 HD
ENDBRANCH  24  26
ENDBRANCH  19  20
ENDBRANCH   3  19
TORSDOF 5
