REMARK  Name = ZINC37907989
REMARK  4 active torsions:
REMARK  status: ('A' for Active; 'I' for Inactive)
REMARK    1  A    between atoms: C_1  and  C_2
REMARK    2  A    between atoms: C_2  and  C_4
REMARK    3  A    between atoms: C_2  and  N_10
REMARK    4  A    between atoms: N_10  and  C_11
REMARK                            x       y       z     vdW  Elec       q    Type
REMARK                         _______ _______ _______ _____ _____    ______ ____
ROOT
ATOM      1  N   UNL     1       0.711  -0.489   1.189  0.00  0.00    -0.335 N 
ATOM      2  H   UNL     1       1.654  -0.707   1.135  0.00  0.00    +0.147 HD
ENDROOT
BRANCH   1   3
ATOM      3  C   UNL     1       0.027  -0.639   2.399  0.00  0.00    +0.046 A 
ATOM      4  C   UNL     1      -1.326  -0.333   2.476  0.00  0.00    +0.025 A 
ATOM      5  C   UNL     1      -1.999  -0.482   3.673  0.00  0.00    +0.016 A 
ATOM      6  C   UNL     1      -1.328  -0.935   4.794  0.00  0.00    +0.015 A 
ATOM      7  C   UNL     1       0.019  -1.240   4.722  0.00  0.00    +0.036 A 
ATOM      8  C   UNL     1       0.698  -1.099   3.526  0.00  0.00    +0.063 A 
ATOM      9 CL   UNL     1       2.387  -1.489   3.433  0.00  0.00    -0.082 Cl
ATOM     10  I   UNL     1      -2.354  -1.159   6.607  0.00  0.00    -0.044 I 
ENDBRANCH   1   3
BRANCH   1  12
ATOM     11  C   UNL     1      -0.019   1.526   0.010  0.00  0.00    +0.034 C 
ATOM     12  C   UNL     1       0.002  -0.004   0.002  0.00  0.00    +0.118 C 
BRANCH  12  13
ATOM     13  C   UNL     1       0.707  -0.490  -1.238  0.00  0.00    +0.083 A 
ATOM     14  C   UNL     1       0.125  -0.666  -2.497  0.00  0.00    +0.046 A 
ATOM     15  C   UNL     1       1.084  -1.113  -3.341  0.00  0.00    +0.105 A 
ATOM     16  N   UNL     1       2.232  -1.217  -2.640  0.00  0.00    -0.284 N 
ATOM     17  H   UNL     1       3.088  -1.513  -2.988  0.00  0.00    +0.188 HD
ATOM     18  N   UNL     1       1.972  -0.815  -1.324  0.00  0.00    -0.177 NA
ENDBRANCH  12  13
ENDBRANCH   1  12
TORSDOF 3
