REMARK  Name = ZINC19969344
REMARK  5 active torsions:
REMARK  status: ('A' for Active; 'I' for Inactive)
REMARK    1  A    between atoms: C_1  and  C_2
REMARK    2  A    between atoms: C_5  and  N_18
REMARK    3  A    between atoms: C_7  and  C_8
REMARK    4  A    between atoms: C_8  and  C_10
REMARK    5  A    between atoms: C_8  and  N_17
REMARK                            x       y       z     vdW  Elec       q    Type
REMARK                         _______ _______ _______ _____ _____    ______ ____
ROOT
ATOM      1  C   UNL     1       1.158   3.769  -0.080  0.00  0.00    -0.012 C 
ENDROOT
BRANCH   1   8
ATOM      2  C   UNL     1       1.739   2.225   2.292  0.00  0.00    +0.044 C 
ATOM      3  C   UNL     1       1.260   1.534   1.042  0.00  0.00    -0.048 A 
ATOM      4  C   UNL     1       1.098   0.161   1.030  0.00  0.00    +0.006 A 
ATOM      5  C   UNL     1       0.657  -0.473  -0.117  0.00  0.00    +0.033 A 
ATOM      6  C   UNL     1       0.378   0.266  -1.251  0.00  0.00    +0.126 A 
ATOM      7  C   UNL     1       0.540   1.639  -1.239  0.00  0.00    +0.035 A 
ATOM      8  C   UNL     1       0.981   2.273  -0.092  0.00  0.00    -0.053 A 
BRANCH   6   9
ATOM      9  N   UNL     1      -0.094  -0.413  -2.479  0.00  0.00    +0.056 N 
ATOM     10  O   UNL     1      -0.339   0.238  -3.479  0.00  0.00    -0.126 OA
ATOM     11  O   UNL     1      -0.236  -1.623  -2.490  0.00  0.00    -0.126 OA
ENDBRANCH   6   9
ENDBRANCH   1   8
BRANCH   1  12
ATOM     12  C   UNL     1       1.178   4.285  -1.495  0.00  0.00    -0.045 A 
ATOM     13  C   UNL     1       0.024   4.793  -2.062  0.00  0.00    +0.003 A 
ATOM     14  C   UNL     1       0.043   5.271  -3.359  0.00  0.00    +0.000 A 
ATOM     15  C   UNL     1       1.214   5.230  -4.094  0.00  0.00    +0.001 A 
ATOM     16  C   UNL     1       2.366   4.717  -3.530  0.00  0.00    +0.014 A 
ATOM     17  C   UNL     1       2.348   4.244  -2.230  0.00  0.00    +0.015 A 
ATOM     18  I   UNL     1       4.095   3.466  -1.374  0.00  0.00    -0.044 I 
ENDBRANCH   1  12
BRANCH   1  19
ATOM     19  N   UNL     1       0.044   4.388   0.651  0.00  0.00    +0.385 N 
ATOM     20  H   UNL     1       0.173   5.480   0.661  0.00  0.00    -0.089 HD
ATOM     21  H   UNL     1       0.029   4.011   1.685  0.00  0.00    -0.089 HD
ATOM     22  H   UNL     1      -0.905   4.135   0.156  0.00  0.00    -0.089 HD
ENDBRANCH   1  19
TORSDOF 4
