REMARK  Name = ZINC31158799
REMARK  11 active torsions:
REMARK  status: ('A' for Active; 'I' for Inactive)
REMARK    1  A    between atoms: C_1  and  C_2
REMARK    2  A    between atoms: C_4  and  O_26
REMARK    3  A    between atoms: C_5  and  C_23
REMARK    4  A    between atoms: C_6  and  O_9
REMARK    5  A    between atoms: O_9  and  C_10
REMARK    6  A    between atoms: C_11  and  C_19
REMARK    7  A    between atoms: C_13  and  O_18
REMARK    8  A    between atoms: C_15  and  O_16
REMARK    9  A    between atoms: O_16  and  C_17
REMARK   10  A    between atoms: C_19  and  O_21
REMARK   11  A    between atoms: O_21  and  C_22
REMARK                            x       y       z     vdW  Elec       q    Type
REMARK                         _______ _______ _______ _____ _____    ______ ____
ROOT
ATOM      1  O   UNL     1      -0.104  -2.964   3.099  0.00  0.00    -0.449 OA
ENDROOT
BRANCH   1   7
ATOM      2  C   UNL     1      -3.016  -5.977   5.593  0.00  0.00    +0.047 C 
ATOM      3  C   UNL     1      -2.659  -4.594   5.114  0.00  0.00    -0.007 A 
ATOM      4  C   UNL     1      -3.452  -3.518   5.470  0.00  0.00    +0.088 A 
ATOM      5  C   UNL     1      -3.133  -2.241   5.035  0.00  0.00    +0.153 A 
ATOM      6  C   UNL     1      -2.000  -2.042   4.230  0.00  0.00    +0.149 A 
ATOM      7  C   UNL     1      -1.201  -3.142   3.875  0.00  0.00    +0.165 A 
ATOM      8  C   UNL     1      -1.537  -4.409   4.326  0.00  0.00    +0.088 A 
ATOM      9 CL   UNL     1      -0.549  -5.770   3.895  0.00  0.00    -0.079 Cl
ATOM     10 CL   UNL     1      -4.853  -3.768   6.464  0.00  0.00    -0.079 Cl
BRANCH   6  11
ATOM     11  C   UNL     1      -1.652  -0.694   3.763  0.00  0.00    +0.394 C 
ATOM     12  O   UNL     1      -2.285   0.274   4.162  0.00  0.00    -0.240 OA
ATOM     13  O   UNL     1      -0.728  -0.539   2.975  0.00  0.00    -0.240 OA
ENDBRANCH   6  11
BRANCH   5  14
ATOM     14  O   UNL     1      -3.913  -1.188   5.385  0.00  0.00    -0.504 OA
ATOM     15  H   UNL     1      -3.648  -0.759   6.210  0.00  0.00    +0.292 HD
ENDBRANCH   5  14
ENDBRANCH   1   7
BRANCH   1  16
ATOM     16  C   UNL     1       1.116  -3.045   3.690  0.00  0.00    +0.184 A 
ATOM     17  C   UNL     1       2.028  -4.029   3.289  0.00  0.00    +0.108 A 
ATOM     18  C   UNL     1       3.281  -4.104   3.904  0.00  0.00    +0.064 A 
ATOM     19  C   UNL     1       3.614  -3.208   4.903  0.00  0.00    +0.121 A 
ATOM     20  C   UNL     1       2.707  -2.233   5.300  0.00  0.00    +0.094 A 
ATOM     21  C   UNL     1       1.466  -2.146   4.694  0.00  0.00    +0.166 A 
BRANCH  21  22
ATOM     22  O   UNL     1       0.586  -1.185   5.083  0.00  0.00    -0.491 OA
ATOM     23  C   UNL     1       1.011  -0.297   6.118  0.00  0.00    +0.277 C 
ENDBRANCH  21  22
BRANCH  19  24
ATOM     24  O   UNL     1       4.833  -3.282   5.500  0.00  0.00    -0.507 OA
ATOM     25  H   UNL     1       5.516  -2.751   5.068  0.00  0.00    +0.292 HD
ENDBRANCH  19  24
BRANCH  17  26
ATOM     26  C   UNL     1       1.668  -4.982   2.223  0.00  0.00    +0.343 C 
ATOM     27  O   UNL     1       0.627  -4.844   1.612  0.00  0.00    -0.245 OA
BRANCH  26  28
ATOM     28  O   UNL     1       2.493  -6.005   1.928  0.00  0.00    -0.464 OA
ATOM     29  C   UNL     1       2.081  -6.890   0.884  0.00  0.00    +0.280 C 
ENDBRANCH  26  28
ENDBRANCH  17  26
ENDBRANCH   1  16
TORSDOF 8
