REMARK  Name = ZINC48805630
REMARK  9 active torsions:
REMARK  status: ('A' for Active; 'I' for Inactive)
REMARK    1  A    between atoms: C_1  and  C_2
REMARK    2  A    between atoms: C_7  and  C_8
REMARK    3  A    between atoms: C_8  and  C_10
REMARK    4  A    between atoms: C_8  and  N_11
REMARK    5  A    between atoms: C_12  and  C_14
REMARK    6  A    between atoms: N_16  and  C_17
REMARK    7  A    between atoms: C_21  and  C_24
REMARK    8  A    between atoms: C_22  and  C_23
REMARK    9  A    between atoms: N_26  and  C_27
REMARK                            x       y       z     vdW  Elec       q    Type
REMARK                         _______ _______ _______ _____ _____    ______ ____
ROOT
ATOM      1  C   UNL     1      -1.730  -1.551   5.569  0.00  0.00    +0.303 C 
ATOM      2  O   UNL     1      -1.657  -2.761   5.639  0.00  0.00    -0.265 OA
ATOM      3  N   UNL     1      -2.355  -0.856   6.540  0.00  0.00    -0.277 N 
ATOM      4  H   UNL     1      -2.475   0.102   6.450  0.00  0.00    +0.155 HD
ENDROOT
BRANCH   3   5
ATOM      5  C   UNL     1      -2.830  -1.517   7.676  0.00  0.00    +0.037 A 
ATOM      6  C   UNL     1      -3.323  -2.813   7.572  0.00  0.00    +0.023 A 
ATOM      7  C   UNL     1      -3.795  -3.470   8.693  0.00  0.00    +0.003 A 
ATOM      8  C   UNL     1      -3.780  -2.844   9.923  0.00  0.00    +0.013 A 
ATOM      9  C   UNL     1      -3.287  -1.543  10.039  0.00  0.00    +0.041 A 
ATOM     10  C   UNL     1      -2.805  -0.882   8.909  0.00  0.00    -0.017 A 
ATOM     11  C   UNL     1      -2.266   0.521   9.026  0.00  0.00    +0.046 C 
BRANCH   9  12
ATOM     12  C   UNL     1      -3.271  -0.870  11.355  0.00  0.00    +0.244 C 
ATOM     13  O   UNL     1      -2.947   0.299  11.436  0.00  0.00    -0.270 OA
ATOM     14  N   UNL     1      -3.614  -1.552  12.465  0.00  0.00    -0.314 N 
ATOM     15  C   UNL     1      -3.598  -0.886  13.770  0.00  0.00    +0.128 C 
ATOM     16  H   UNL     1      -3.872  -2.485  12.401  0.00  0.00    +0.149 HD
ENDBRANCH   9  12
ENDBRANCH   3   5
BRANCH   1  18
ATOM     17  N   UNL     1      -0.502  -1.528   3.436  0.00  0.00    -0.301 N 
ATOM     18  C   UNL     1      -1.127  -0.833   4.407  0.00  0.00    +0.300 C 
ATOM     19  O   UNL     1      -1.200   0.377   4.337  0.00  0.00    -0.265 OA
ATOM     20  H   UNL     1      -0.444  -2.494   3.492  0.00  0.00    +0.150 HD
BRANCH  17  21
ATOM     21  C   UNL     1       0.090  -0.823   2.296  0.00  0.00    +0.101 C 
ATOM     22  C   UNL     1       1.538  -0.452   2.622  0.00  0.00    +0.033 C 
BRANCH  21  29
ATOM     23  C   UNL     1       0.042   0.334  -0.351  0.00  0.00    +0.044 C 
ATOM     24  C   UNL     1       0.039  -1.163  -0.183  0.00  0.00    -0.046 A 
ATOM     25  C   UNL     1       0.018  -1.984  -1.296  0.00  0.00    +0.004 A 
ATOM     26  C   UNL     1       0.015  -3.357  -1.142  0.00  0.00    +0.000 A 
ATOM     27  C   UNL     1       0.032  -3.911   0.124  0.00  0.00    +0.000 A 
ATOM     28  C   UNL     1       0.053  -3.091   1.237  0.00  0.00    +0.006 A 
ATOM     29  C   UNL     1       0.061  -1.717   1.083  0.00  0.00    -0.025 A 
ENDBRANCH  21  29
ENDBRANCH  17  21
ENDBRANCH   1  18
TORSDOF 5
