REMARK  Name = ZINC21000912
REMARK  6 active torsions:
REMARK  status: ('A' for Active; 'I' for Inactive)
REMARK    1  A    between atoms: C_4  and  C_7
REMARK    2  A    between atoms: C_9  and  C_30
REMARK    3  A    between atoms: C_10  and  N_12
REMARK    4  A    between atoms: C_13  and  C_15
REMARK    5  A    between atoms: N_20  and  S_22
REMARK    6  A    between atoms: S_22  and  C_25
REMARK                            x       y       z     vdW  Elec       q    Type
REMARK                         _______ _______ _______ _____ _____    ______ ____
ROOT
ATOM      1  N   UNL     1      -2.191   4.086   0.043  0.00  0.00    -0.279 N 
ATOM      2  C   UNL     1      -1.927   5.408   0.048  0.00  0.00    +0.222 C 
ATOM      3  O   UNL     1      -0.779   5.798   0.040  0.00  0.00    -0.275 OA
ATOM      4  H   UNL     1      -3.232   3.733   0.051  0.00  0.00    +0.155 HD
ENDROOT
BRANCH   2   5
ATOM      5  C   UNL     1      -3.060   6.402   0.064  0.00  0.00    +0.091 C 
ATOM      6  C   UNL     1      -3.930   6.205  -1.180  0.00  0.00    +0.015 C 
ATOM      7  C   UNL     1      -5.098   7.192  -1.149  0.00  0.00    +0.018 C 
ATOM      8  C   UNL     1      -4.553   8.624  -1.162  0.00  0.00    +0.109 C 
ATOM      9  N   UNL     1      -3.603   8.778  -0.052  0.00  0.00    -0.175 NA
ATOM     10  C   UNL     1      -2.492   7.825   0.064  0.00  0.00    +0.122 C 
BRANCH   9  11
ATOM     11  S   UNL     1      -3.782  10.004   1.048  0.00  0.00    +0.067 S 
ATOM     12  O   UNL     1      -5.155  10.371   1.027  0.00  0.00    -0.152 OA
ATOM     13  O   UNL     1      -3.124   9.584   2.235  0.00  0.00    -0.152 OA
BRANCH  11  14
ATOM     14  C   UNL     1      -2.882  11.389   0.435  0.00  0.00    +0.143 A 
ATOM     15  C   UNL     1      -3.304  12.392  -0.372  0.00  0.00    +0.036 A 
ATOM     16  C   UNL     1      -2.412  13.386  -0.729  0.00  0.00    +0.010 A 
ATOM     17  C   UNL     1      -1.142  13.329  -0.260  0.00  0.00    +0.047 A 
ATOM     18  S   UNL     1      -1.178  11.838   0.723  0.00  0.00    -0.077 S 
ENDBRANCH  11  14
ENDBRANCH   9  11
ENDBRANCH   2   5
BRANCH   1  22
ATOM     19  C   UNL     1       1.142   1.796   0.001  0.00  0.00    +0.022 A 
ATOM     20  C   UNL     1      -0.013   1.076   0.008  0.00  0.00    +0.031 A 
ATOM     21  C   UNL     1      -1.216   1.781   0.017  0.00  0.00    +0.066 A 
ATOM     22  C   UNL     1      -1.150   3.173   0.029  0.00  0.00    +0.084 A 
ATOM     23  S   UNL     1       0.556   3.479   0.015  0.00  0.00    -0.073 S 
BRANCH  19  27
ATOM     24  C   UNL     1       5.147   0.383  -0.042  0.00  0.00    +0.000 A 
ATOM     25  C   UNL     1       4.897   1.744  -0.034  0.00  0.00    +0.001 A 
ATOM     26  C   UNL     1       3.599   2.209  -0.020  0.00  0.00    +0.009 A 
ATOM     27  C   UNL     1       2.536   1.304  -0.015  0.00  0.00    -0.011 A 
ATOM     28  C   UNL     1       2.796  -0.068  -0.018  0.00  0.00    +0.009 A 
ATOM     29  C   UNL     1       4.099  -0.520  -0.037  0.00  0.00    +0.001 A 
ENDBRANCH  19  27
BRANCH  21  30
ATOM     30  C   UNL     1      -2.506   1.082   0.020  0.00  0.00    +0.244 C 
ATOM     31  O   UNL     1      -3.543   1.719   0.028  0.00  0.00    -0.270 OA
ATOM     32  N   UNL     1      -2.542  -0.265   0.014  0.00  0.00    -0.325 N 
ATOM     33  H   UNL     1      -3.510  -0.789   0.016  0.00  0.00    +0.145 HD
ATOM     34  H   UNL     1      -1.605  -0.841   0.006  0.00  0.00    +0.145 HD
ENDBRANCH  21  30
ENDBRANCH   1  22
TORSDOF 6
