REMARK  Name = ZINC04730401
REMARK  6 active torsions:
REMARK  status: ('A' for Active; 'I' for Inactive)
REMARK    1  A    between atoms: C_1  and  O_2
REMARK    2  A    between atoms: O_2  and  C_3
REMARK    3  A    between atoms: C_3  and  C_4
REMARK    4  A    between atoms: C_11  and  N_25
REMARK    5  A    between atoms: C_12  and  C_23
REMARK    6  A    between atoms: C_13  and  C_15
REMARK                            x       y       z     vdW  Elec       q    Type
REMARK                         _______ _______ _______ _____ _____    ______ ____
ROOT
ATOM      1  C   UNL     1       0.614  -2.074  -1.042  0.00  0.00    +0.069 A 
ATOM      2  C   UNL     1       1.130  -2.937  -1.930  0.00  0.00    +0.051 A 
ATOM      3  C   UNL     1       0.881  -4.247  -1.465  0.00  0.00    +0.245 A 
ATOM      4  N   UNL     1       0.236  -4.158  -0.338  0.00  0.00    -0.135 NA
ATOM      5  N   UNL     1       0.057  -2.797  -0.043  0.00  0.00    -0.276 N 
ATOM      6  H   UNL     1      -0.389  -2.438   0.740  0.00  0.00    +0.189 HD
ATOM      7  O   UNL     1       1.291  -5.346  -2.152  0.00  0.00    -0.421 OA
ATOM      8  C   UNL     1       2.176  -5.160  -3.151  0.00  0.00    +0.201 C 
ATOM      9  C   UNL     1       2.485  -3.959  -3.685  0.00  0.00    +0.098 C 
ATOM     10  C   UNL     1       1.862  -2.667  -3.220  0.00  0.00    +0.103 C 
ENDROOT
BRANCH  10  11
ATOM     11  C   UNL     1       0.892  -2.167  -4.260  0.00  0.00    -0.015 A 
ATOM     12  C   UNL     1      -0.179  -2.953  -4.641  0.00  0.00    +0.006 A 
ATOM     13  C   UNL     1      -1.069  -2.495  -5.594  0.00  0.00    +0.002 A 
ATOM     14  C   UNL     1      -0.888  -1.250  -6.168  0.00  0.00    +0.021 A 
ATOM     15  C   UNL     1       0.184  -0.463  -5.789  0.00  0.00    +0.060 A 
ATOM     16  C   UNL     1       1.072  -0.919  -4.829  0.00  0.00    +0.063 A 
ATOM     17 CL   UNL     1       2.413   0.071  -4.346  0.00  0.00    -0.082 Cl
ATOM     18 CL   UNL     1       0.412   1.100  -6.510  0.00  0.00    -0.082 Cl
ENDBRANCH  10  11
BRANCH   8  19
ATOM     19  N   UNL     1       2.807  -6.267  -3.661  0.00  0.00    -0.328 N 
ATOM     20  H   UNL     1       2.609  -7.146  -3.302  0.00  0.00    +0.145 HD
ATOM     21  H   UNL     1       3.450  -6.170  -4.381  0.00  0.00    +0.145 HD
ENDBRANCH   8  19
BRANCH   9  22
ATOM     22  C   UNL     1       3.450  -3.910  -4.742  0.00  0.00    +0.101 C 
ATOM     23  N   UNL     1       4.215  -3.872  -5.581  0.00  0.00    -0.191 NA
ENDBRANCH   9  22
BRANCH   1  24
ATOM     24  C   UNL     1       0.652  -0.570  -1.138  0.00  0.00    +0.214 C 
BRANCH  24  26
ATOM     25  C   UNL     1      -0.017   1.425   0.010  0.00  0.00    +0.194 C 
ATOM     26  O   UNL     1       0.002  -0.004   0.002  0.00  0.00    -0.377 OA
ENDBRANCH  24  26
ENDBRANCH   1  24
TORSDOF 5
