REMARK  Name = ZINC31991926
REMARK  11 active torsions:
REMARK  status: ('A' for Active; 'I' for Inactive)
REMARK    1  A    between atoms: C_1  and  C_2
REMARK    2  A    between atoms: C_3  and  C_24
REMARK    3  A    between atoms: C_7  and  N_8
REMARK    4  A    between atoms: C_9  and  C_11
REMARK    5  A    between atoms: C_14  and  S_16
REMARK    6  A    between atoms: S_16  and  N_19
REMARK    7  A    between atoms: N_19  and  C_20
REMARK    8  A    between atoms: C_20  and  C_21
REMARK    9  A    between atoms: C_20  and  C_22
REMARK   10  A    between atoms: C_20  and  C_23
REMARK   11  A    between atoms: N_26  and  C_27
REMARK                            x       y       z     vdW  Elec       q    Type
REMARK                         _______ _______ _______ _____ _____    ______ ____
ROOT
ATOM      1  N   UNL     1       2.306   3.804   1.036  0.00  0.00    -0.279 N 
ATOM      2  C   UNL     1       3.181   2.811   1.295  0.00  0.00    +0.284 C 
ATOM      3  O   UNL     1       4.373   3.049   1.346  0.00  0.00    -0.266 OA
ATOM      4  H   UNL     1       1.225   3.605   1.065  0.00  0.00    +0.155 HD
ENDROOT
BRANCH   1  11
ATOM      5  C   UNL     1       0.749   5.418  -0.710  0.00  0.00    +0.046 C 
ATOM      6  C   UNL     1       2.045   5.906  -0.117  0.00  0.00    -0.017 A 
ATOM      7  C   UNL     1       2.513   7.186  -0.413  0.00  0.00    +0.041 A 
ATOM      8  C   UNL     1       3.718   7.628   0.135  0.00  0.00    +0.013 A 
ATOM      9  C   UNL     1       4.439   6.802   0.973  0.00  0.00    +0.003 A 
ATOM     10  C   UNL     1       3.973   5.536   1.272  0.00  0.00    +0.023 A 
ATOM     11  C   UNL     1       2.774   5.086   0.731  0.00  0.00    +0.037 A 
BRANCH   7  12
ATOM     12  C   UNL     1       1.738   8.070  -1.310  0.00  0.00    +0.244 C 
ATOM     13  O   UNL     1       0.637   7.728  -1.698  0.00  0.00    -0.270 OA
ATOM     14  N   UNL     1       2.251   9.253  -1.699  0.00  0.00    -0.314 N 
ATOM     15  C   UNL     1       1.484  10.129  -2.588  0.00  0.00    +0.128 C 
ATOM     16  H   UNL     1       3.247   9.562  -1.349  0.00  0.00    +0.149 HD
ENDBRANCH   7  12
ENDBRANCH   1  11
BRANCH   2  17
ATOM     17  C   UNL     1       2.696   1.446   1.516  0.00  0.00    +0.192 A 
ATOM     18  C   UNL     1       3.469   0.353   1.786  0.00  0.00    +0.057 A 
ATOM     19  C   UNL     1       2.594  -0.737   1.923  0.00  0.00    +0.072 A 
ATOM     20  C   UNL     1       1.342  -0.268   1.728  0.00  0.00    +0.258 A 
ATOM     21  O   UNL     1       1.407   1.048   1.488  0.00  0.00    -0.432 OA
BRANCH  20  22
ATOM     22  S   UNL     1      -0.134  -1.229   1.785  0.00  0.00    +0.092 S 
ATOM     23  O   UNL     1      -1.147  -0.456   1.157  0.00  0.00    -0.150 OA
ATOM     24  O   UNL     1       0.214  -2.534   1.342  0.00  0.00    -0.150 OA
BRANCH  22  25
ATOM     25  N   UNL     1      -0.565  -1.370   3.378  0.00  0.00    -0.182 NA
ATOM     26  H   UNL     1      -0.364  -2.312   3.908  0.00  0.00    +0.149 HD
BRANCH  25  27
ATOM     27  C   UNL     1      -1.005  -0.189   4.125  0.00  0.00    +0.032 C 
ATOM     28  C   UNL     1      -2.352   0.288   3.578  0.00  0.00    +0.029 C 
ATOM     29  C   UNL     1      -1.153  -0.547   5.605  0.00  0.00    +0.029 C 
ATOM     30  C   UNL     1       0.032   0.926   3.971  0.00  0.00    +0.029 C 
ENDBRANCH  25  27
ENDBRANCH  22  25
ENDBRANCH  20  22
ENDBRANCH   2  17
TORSDOF 6
