REMARK  Name = ZINC09686763
REMARK  8 active torsions:
REMARK  status: ('A' for Active; 'I' for Inactive)
REMARK    1  A    between atoms: C_1  and  C_2
REMARK    2  A    between atoms: C_4  and  C_25
REMARK    3  A    between atoms: C_6  and  N_8
REMARK    4  A    between atoms: N_8  and  S_9
REMARK    5  A    between atoms: S_9  and  C_12
REMARK    6  A    between atoms: C_15  and  C_17
REMARK    7  A    between atoms: C_18  and  C_24
REMARK    8  A    between atoms: C_19  and  C_23
REMARK                            x       y       z     vdW  Elec       q    Type
REMARK                         _______ _______ _______ _____ _____    ______ ____
ROOT
ATOM      1  S   UNL     1      -4.212  -4.122   0.861  0.00  0.00    +0.079 S 
ATOM      2  O   UNL     1      -3.836  -4.499   2.179  0.00  0.00    -0.149 OA
ATOM      3  O   UNL     1      -5.546  -3.772   0.520  0.00  0.00    -0.149 OA
ENDROOT
BRANCH   1   4
ATOM      4  C   UNL     1      -3.202  -2.746   0.423  0.00  0.00    +0.146 A 
ATOM      5  C   UNL     1      -1.949  -2.438   0.846  0.00  0.00    +0.037 A 
ATOM      6  C   UNL     1      -1.337  -1.302   0.363  0.00  0.00    +0.019 A 
ATOM      7  C   UNL     1      -2.023  -0.512  -0.523  0.00  0.00    +0.039 A 
ATOM      8  S   UNL     1      -3.563  -1.399  -0.691  0.00  0.00    -0.067 S 
BRANCH   7   9
ATOM      9  C   UNL     1      -1.597   0.740  -1.173  0.00  0.00    +0.075 A 
ATOM     10  C   UNL     1      -2.348   1.889  -1.310  0.00  0.00    -0.002 A 
ATOM     11  C   UNL     1      -1.566   2.827  -1.982  0.00  0.00    +0.063 A 
ATOM     12  N   UNL     1      -0.401   2.292  -2.245  0.00  0.00    -0.178 NA
ATOM     13  N   UNL     1      -0.385   0.982  -1.751  0.00  0.00    -0.276 N 
ATOM     14  H   UNL     1       0.378   0.339  -1.811  0.00  0.00    +0.189 HD
ATOM     15  C   UNL     1      -1.992   4.226  -2.346  0.00  0.00    +0.068 C 
ATOM     16  C   UNL     1      -3.759   2.093  -0.822  0.00  0.00    +0.048 C 
ENDBRANCH   7   9
ENDBRANCH   1   4
BRANCH   1  17
ATOM     17  N   UNL     1      -3.784  -5.378  -0.130  0.00  0.00    -0.216 N 
ATOM     18  H   UNL     1      -3.425  -6.196   0.250  0.00  0.00    +0.174 HD
BRANCH  17  24
ATOM     19  C   UNL     1      -6.558  -4.099  -3.980  0.00  0.00    +0.044 C 
ATOM     20  C   UNL     1      -5.274  -4.644  -3.408  0.00  0.00    -0.048 A 
ATOM     21  C   UNL     1      -4.250  -5.029  -4.253  0.00  0.00    +0.006 A 
ATOM     22  C   UNL     1      -3.071  -5.529  -3.732  0.00  0.00    -0.048 A 
ATOM     23  C   UNL     1      -2.913  -5.646  -2.365  0.00  0.00    +0.028 A 
ATOM     24  C   UNL     1      -3.940  -5.261  -1.513  0.00  0.00    +0.049 A 
ATOM     25  C   UNL     1      -5.125  -4.763  -2.040  0.00  0.00    +0.028 A 
ATOM     26  C   UNL     1      -1.956  -5.946  -4.657  0.00  0.00    +0.044 C 
ENDBRANCH  17  24
ENDBRANCH   1  17
TORSDOF 4
