REMARK  Name = ZINC43577405
REMARK  3 active torsions:
REMARK  status: ('A' for Active; 'I' for Inactive)
REMARK    1  A    between atoms: C_6  and  C_7
REMARK    2  A    between atoms: C_8  and  C_13
REMARK    3  A    between atoms: C_11  and  N_12
REMARK                            x       y       z     vdW  Elec       q    Type
REMARK                         _______ _______ _______ _____ _____    ______ ____
ROOT
ATOM      1  C   UNL     1      -1.307  -0.707   0.052  0.00  0.00    +0.071 A 
ATOM      2  C   UNL     1      -1.711  -1.719   1.030  0.00  0.00    +0.123 A 
ATOM      3  N   UNL     1      -2.853  -2.218   0.622  0.00  0.00    -0.075 NA
ATOM      4  O   UNL     1      -3.225  -1.581  -0.584  0.00  0.00    -0.339 OA
ATOM      5  C   UNL     1      -2.294  -0.673  -0.913  0.00  0.00    +0.224 A 
ENDROOT
BRANCH   2   6
ATOM      6  C   UNL     1      -0.967  -2.108   2.254  0.00  0.00    +0.007 A 
ATOM      7  C   UNL     1      -0.363  -1.132   3.044  0.00  0.00    +0.011 A 
ATOM      8  C   UNL     1       0.328  -1.497   4.181  0.00  0.00    +0.019 A 
ATOM      9  C   UNL     1       0.423  -2.831   4.538  0.00  0.00    +0.053 A 
ATOM     10  C   UNL     1      -0.176  -3.806   3.756  0.00  0.00    +0.138 A 
ATOM     11  C   UNL     1      -0.875  -3.449   2.619  0.00  0.00    +0.049 A 
ATOM     12  F   UNL     1      -0.080  -5.107   4.109  0.00  0.00    -0.204 F 
ATOM     13 BR   UNL     1       1.373  -3.324   6.098  0.00  0.00    -0.047 Br
ENDBRANCH   2   6
BRANCH   1  19
ATOM     14  C   UNL     1      -0.176   1.503   0.282  0.00  0.00    +0.010 A 
ATOM     15  C   UNL     1       0.969   2.272   0.321  0.00  0.00    +0.020 A 
ATOM     16  C   UNL     1       2.210   1.678   0.171  0.00  0.00    +0.041 A 
ATOM     17  C   UNL     1       2.310   0.310  -0.017  0.00  0.00    +0.020 A 
ATOM     18  C   UNL     1       1.172  -0.469  -0.057  0.00  0.00    +0.010 A 
ATOM     19  C   UNL     1      -0.081   0.124   0.093  0.00  0.00    -0.011 A 
ATOM     20 CL   UNL     1       3.647   2.652   0.220  0.00  0.00    -0.084 Cl
ENDBRANCH   1  19
BRANCH   5  21
ATOM     21  N   UNL     1      -2.317   0.148  -2.022  0.00  0.00    -0.327 N 
ATOM     22  H   UNL     1      -1.592   0.774  -2.176  0.00  0.00    +0.145 HD
ATOM     23  H   UNL     1      -3.057   0.098  -2.646  0.00  0.00    +0.145 HD
ENDBRANCH   5  21
TORSDOF 3
