REMARK  Name = ZINC11123472
REMARK  8 active torsions:
REMARK  status: ('A' for Active; 'I' for Inactive)
REMARK    1  A    between atoms: C_1  and  C_2
REMARK    2  A    between atoms: C_10  and  C_11
REMARK    3  A    between atoms: C_11  and  O_13
REMARK    4  A    between atoms: O_13  and  C_14
REMARK    5  A    between atoms: C_14  and  C_15
REMARK    6  A    between atoms: N_17  and  C_18
REMARK    7  A    between atoms: C_21  and  S_24
REMARK    8  A    between atoms: S_24  and  N_27
REMARK                            x       y       z     vdW  Elec       q    Type
REMARK                         _______ _______ _______ _____ _____    ______ ____
ROOT
ATOM      1  C   UNL     1      -6.667   2.160  -0.057  0.00  0.00    +0.255 C 
ATOM      2  O   UNL     1      -6.848   2.522   1.086  0.00  0.00    -0.272 OA
ATOM      3  N   UNL     1      -7.706   2.079  -0.911  0.00  0.00    -0.283 N 
ATOM      4  H   UNL     1      -7.553   1.854  -1.842  0.00  0.00    +0.155 HD
ENDROOT
BRANCH   3   5
ATOM      5  C   UNL     1      -9.007   2.318  -0.455  0.00  0.00    +0.034 A 
ATOM      6  C   UNL     1     -10.073   1.604  -0.986  0.00  0.00    +0.025 A 
ATOM      7  C   UNL     1     -11.355   1.837  -0.529  0.00  0.00    +0.030 A 
ATOM      8  C   UNL     1     -11.580   2.790   0.449  0.00  0.00    +0.105 A 
ATOM      9  C   UNL     1     -10.521   3.506   0.976  0.00  0.00    +0.030 A 
ATOM     10  C   UNL     1      -9.236   3.273   0.527  0.00  0.00    +0.025 A 
BRANCH   8  11
ATOM     11  S   UNL     1     -13.218   3.090   1.024  0.00  0.00    +0.056 S 
ATOM     12  O   UNL     1     -13.963   1.908   0.764  0.00  0.00    -0.153 OA
ATOM     13  O   UNL     1     -13.095   3.642   2.328  0.00  0.00    -0.153 OA
BRANCH  11  14
ATOM     14  N   UNL     1     -13.863   4.277   0.066  0.00  0.00    -0.204 NA
ATOM     15  H   UNL     1     -13.336   4.661  -0.652  0.00  0.00    +0.144 HD
ATOM     16  H   UNL     1     -14.768   4.588   0.223  0.00  0.00    +0.144 HD
ENDBRANCH  11  14
ENDBRANCH   8  11
ENDBRANCH   3   5
BRANCH   1  17
ATOM     17  C   UNL     1      -5.279   1.802  -0.523  0.00  0.00    +0.328 C 
BRANCH  17  18
ATOM     18  O   UNL     1      -4.342   1.971   0.573  0.00  0.00    -0.450 OA
BRANCH  18  19
ATOM     19  C   UNL     1      -3.047   1.689   0.321  0.00  0.00    +0.376 C 
ATOM     20  O   UNL     1      -2.712   1.313  -0.785  0.00  0.00    -0.241 OA
BRANCH  19  30
ATOM     21  C   UNL     1      -0.009   1.108   0.001  0.00  0.00    +0.048 C 
ATOM     22  C   UNL     1      -0.716   1.583   1.244  0.00  0.00    +0.010 A 
ATOM     23  C   UNL     1      -0.111   1.871   2.543  0.00  0.00    +0.025 A 
ATOM     24  C   UNL     1       1.192   1.816   3.045  0.00  0.00    +0.012 A 
ATOM     25  C   UNL     1       1.433   2.161   4.344  0.00  0.00    +0.002 A 
ATOM     26  C   UNL     1       0.393   2.566   5.170  0.00  0.00    +0.024 A 
ATOM     27  C   UNL     1      -0.900   2.628   4.695  0.00  0.00    +0.084 A 
ATOM     28  C   UNL     1      -1.170   2.281   3.375  0.00  0.00    +0.154 A 
ATOM     29  O   UNL     1      -2.301   2.242   2.643  0.00  0.00    -0.446 OA
ATOM     30  C   UNL     1      -2.044   1.837   1.382  0.00  0.00    +0.216 A 
ATOM     31 CL   UNL     1      -2.188   3.136   5.742  0.00  0.00    -0.080 Cl
ENDBRANCH  19  30
ENDBRANCH  18  19
ENDBRANCH  17  18
ENDBRANCH   1  17
TORSDOF 7
