REMARK  Name = ZINC35062850
REMARK  5 active torsions:
REMARK  status: ('A' for Active; 'I' for Inactive)
REMARK    1  A    between atoms: C_1  and  C_2
REMARK    2  A    between atoms: N_7  and  S_9
REMARK    3  A    between atoms: S_9  and  C_12
REMARK    4  A    between atoms: C_17  and  N_18
REMARK    5  A    between atoms: N_18  and  N_19
REMARK                            x       y       z     vdW  Elec       q    Type
REMARK                         _______ _______ _______ _____ _____    ______ ____
ROOT
ATOM      1  C   UNL     1       2.440  -3.339  -0.235  0.00  0.00    +0.127 A 
ATOM      2  C   UNL     1       3.678  -2.983  -0.732  0.00  0.00    +0.030 A 
ATOM      3  C   UNL     1       4.067  -3.404  -1.991  0.00  0.00    +0.002 A 
ATOM      4  C   UNL     1       3.218  -4.184  -2.755  0.00  0.00    +0.002 A 
ATOM      5  C   UNL     1       1.979  -4.544  -2.264  0.00  0.00    +0.026 A 
ATOM      6  C   UNL     1       1.587  -4.127  -0.998  0.00  0.00    +0.067 A 
ENDROOT
BRANCH   1   7
ATOM      7  S   UNL     1       1.945  -2.801   1.368  0.00  0.00    +0.063 S 
ATOM      8  O   UNL     1       3.030  -2.053   1.898  0.00  0.00    -0.153 OA
ATOM      9  O   UNL     1       1.408  -3.938   2.030  0.00  0.00    -0.153 OA
BRANCH   7  15
ATOM     10  C   UNL     1       0.294   1.509  -0.745  0.00  0.00    +0.009 C 
ATOM     11  C   UNL     1       0.143   0.017  -0.442  0.00  0.00    +0.002 C 
ATOM     12  C   UNL     1      -1.332  -0.309  -0.201  0.00  0.00    +0.006 C 
ATOM     13  C   UNL     1      -1.488  -1.807   0.070  0.00  0.00    +0.017 C 
ATOM     14  C   UNL     1      -0.699  -2.179   1.329  0.00  0.00    +0.109 C 
ATOM     15  N   UNL     1       0.692  -1.738   1.163  0.00  0.00    -0.176 NA
ATOM     16  C   UNL     1       0.952  -0.335   0.811  0.00  0.00    +0.112 C 
ENDBRANCH   7  15
ENDBRANCH   1   7
BRANCH   6  17
ATOM     17  N   UNL     1       0.337  -4.494  -0.496  0.00  0.00    -0.281 N 
ATOM     18  H   UNL     1       0.050  -4.173   0.373  0.00  0.00    +0.166 HD
BRANCH  17  19
ATOM     19  N   UNL     1      -0.482  -5.305  -1.229  0.00  0.00    -0.256 NA
ATOM     20  H   UNL     1      -0.018  -6.168  -1.467  0.00  0.00    +0.140 HD
ATOM     21  H   UNL     1      -1.347  -5.482  -0.740  0.00  0.00    +0.140 HD
ENDBRANCH  17  19
ENDBRANCH   6  17
TORSDOF 4
