REMARK  Name = ZINC37360240
REMARK  5 active torsions:
REMARK  status: ('A' for Active; 'I' for Inactive)
REMARK    1  A    between atoms: C_4  and  N_7
REMARK    2  A    between atoms: C_8  and  N_31
REMARK    3  A    between atoms: C_10  and  C_24
REMARK    4  A    between atoms: N_16  and  C_17
REMARK    5  A    between atoms: C_17  and  C_18
REMARK                            x       y       z     vdW  Elec       q    Type
REMARK                         _______ _______ _______ _____ _____    ______ ____
ROOT
ATOM      1  N   UNL     1       3.793  -0.482   0.323  0.00  0.00    -0.216 N 
ATOM      2  C   UNL     1       4.016  -1.691   0.875  0.00  0.00    +0.131 A 
ATOM      3  C   UNL     1       5.281  -2.105   0.478  0.00  0.00    +0.086 A 
ATOM      4  C   UNL     1       6.091  -3.242   0.702  0.00  0.00    +0.091 A 
ATOM      5  N   UNL     1       7.289  -3.281   0.133  0.00  0.00    -0.214 NA
ATOM      6  C   UNL     1       7.742  -2.293  -0.631  0.00  0.00    +0.218 A 
ATOM      7  N   UNL     1       7.055  -1.199  -0.892  0.00  0.00    -0.193 NA
ATOM      8  C   UNL     1       5.822  -1.032  -0.376  0.00  0.00    +0.189 A 
ATOM      9  N   UNL     1       4.900  -0.097  -0.441  0.00  0.00    -0.144 NA
ATOM     10  N   UNL     1       9.004  -2.419  -1.184  0.00  0.00    -0.309 N 
ATOM     11  H   UNL     1       9.533  -3.213  -1.009  0.00  0.00    +0.149 HD
ENDROOT
BRANCH   4  12
ATOM     12  C   UNL     1       5.615  -4.358   1.548  0.00  0.00    +0.036 A 
ATOM     13  C   UNL     1       4.438  -5.033   1.222  0.00  0.00    +0.013 A 
ATOM     14  C   UNL     1       3.999  -6.073   2.015  0.00  0.00    +0.001 A 
ATOM     15  C   UNL     1       4.723  -6.449   3.133  0.00  0.00    +0.003 A 
ATOM     16  C   UNL     1       5.890  -5.785   3.465  0.00  0.00    +0.039 A 
ATOM     17  C   UNL     1       6.345  -4.745   2.675  0.00  0.00    +0.133 A 
ATOM     18  F   UNL     1       7.489  -4.101   2.996  0.00  0.00    -0.205 F 
ENDBRANCH   4  12
BRANCH   1  22
ATOM     19  C   UNL     1       0.317   1.765   0.803  0.00  0.00    +0.000 A 
ATOM     20  C   UNL     1       1.541   2.401   0.701  0.00  0.00    +0.002 A 
ATOM     21  C   UNL     1       2.695   1.659   0.542  0.00  0.00    +0.028 A 
ATOM     22  C   UNL     1       2.625   0.273   0.485  0.00  0.00    +0.067 A 
ATOM     23  C   UNL     1       1.394  -0.362   0.588  0.00  0.00    +0.028 A 
ATOM     24  C   UNL     1       0.244   0.386   0.747  0.00  0.00    +0.002 A 
ENDBRANCH   1  22
BRANCH   2  25
ATOM     25  N   UNL     1       3.144  -2.391   1.688  0.00  0.00    -0.342 N 
ATOM     26  H   UNL     1       2.317  -1.979   1.981  0.00  0.00    +0.144 HD
ATOM     27  H   UNL     1       3.360  -3.295   1.966  0.00  0.00    +0.144 HD
ENDBRANCH   2  25
BRANCH  10  28
ATOM     28  C   UNL     1       9.542  -1.353  -2.032  0.00  0.00    +0.141 C 
BRANCH  28  29
ATOM     29  C   UNL     1      10.922  -1.733  -2.503  0.00  0.00    -0.012 A 
ATOM     30  C   UNL     1      12.039  -1.388  -1.756  0.00  0.00    +0.008 A 
ATOM     31  C   UNL     1      13.288  -1.759  -2.228  0.00  0.00    +0.020 A 
ATOM     32  C   UNL     1      13.379  -2.456  -3.418  0.00  0.00    +0.111 A 
ATOM     33  N   UNL     1      12.296  -2.767  -4.102  0.00  0.00    -0.263 NA
ATOM     34  C   UNL     1      11.091  -2.436  -3.681  0.00  0.00    +0.115 A 
ENDBRANCH  28  29
ENDBRANCH  10  28
TORSDOF 5
