REMARK  Name = ZINC61818247
REMARK  3 active torsions:
REMARK  status: ('A' for Active; 'I' for Inactive)
REMARK    1  A    between atoms: C_1  and  C_2
REMARK    2  A    between atoms: C_5  and  N_21
REMARK    3  A    between atoms: C_7  and  C_8
REMARK                            x       y       z     vdW  Elec       q    Type
REMARK                         _______ _______ _______ _____ _____    ______ ____
ROOT
ATOM      1  C   UNL     1       0.126   0.185   2.390  0.00  0.00    +0.247 C 
ATOM      2  O   UNL     1      -0.021   1.390   2.330  0.00  0.00    -0.270 OA
ATOM      3  N   UNL     1       0.324  -0.411   3.583  0.00  0.00    -0.297 N 
ATOM      4  C   UNL     1       0.601  -1.852   3.664  0.00  0.00    +0.108 C 
ATOM      5  C   UNL     1      -0.401  -2.494   4.628  0.00  0.00    +0.026 C 
ATOM      6  C   UNL     1      -0.345  -1.767   5.974  0.00  0.00    -0.026 C 
ATOM      7  C   UNL     1      -1.322  -2.426   6.950  0.00  0.00    +0.007 C 
ATOM      8  C   UNL     1      -0.935  -3.893   7.146  0.00  0.00    +0.001 C 
ATOM      9  C   UNL     1       0.484  -3.975   7.712  0.00  0.00    +0.000 C 
ATOM     10  C   UNL     1       1.461  -3.316   6.736  0.00  0.00    +0.001 C 
ATOM     11  C   UNL     1       1.074  -1.849   6.540  0.00  0.00    +0.007 C 
ATOM     12  C   UNL     1      -0.733  -0.299   5.780  0.00  0.00    +0.026 C 
ATOM     13  C   UNL     1       0.271   0.368   4.827  0.00  0.00    +0.108 C 
ENDROOT
BRANCH   1  20
ATOM     14  C   UNL     1      -2.172   0.347   0.644  0.00  0.00    +0.044 C 
ATOM     15  C   UNL     1      -1.016  -0.557   0.304  0.00  0.00    -0.038 A 
ATOM     16  C   UNL     1      -1.046  -1.311  -0.851  0.00  0.00    +0.006 A 
ATOM     17  C   UNL     1       0.013  -2.142  -1.167  0.00  0.00    +0.023 A 
ATOM     18  C   UNL     1       1.115  -2.224  -0.324  0.00  0.00    +0.025 A 
ATOM     19  C   UNL     1       1.154  -1.470   0.839  0.00  0.00    +0.036 A 
ATOM     20  C   UNL     1       0.089  -0.627   1.155  0.00  0.00    +0.042 A 
BRANCH  18  21
ATOM     21  N   UNL     1       2.182  -3.066  -0.647  0.00  0.00    -0.358 N 
ATOM     22  H   UNL     1       2.154  -3.593  -1.461  0.00  0.00    +0.142 HD
ATOM     23  H   UNL     1       2.950  -3.122  -0.059  0.00  0.00    +0.142 HD
ENDBRANCH  18  21
ENDBRANCH   1  20
TORSDOF 2
