REMARK  Name = ZINC44068996
REMARK  8 active torsions:
REMARK  status: ('A' for Active; 'I' for Inactive)
REMARK    1  A    between atoms: C_1  and  C_2
REMARK    2  A    between atoms: C_2  and  C_3
REMARK    3  A    between atoms: C_2  and  C_4
REMARK    4  A    between atoms: C_8  and  C_21
REMARK    5  A    between atoms: C_9  and  O_20
REMARK    6  A    between atoms: C_11  and  C_17
REMARK    7  A    between atoms: C_13  and  O_16
REMARK    8  A    between atoms: C_17  and  C_19
REMARK                            x       y       z     vdW  Elec       q    Type
REMARK                         _______ _______ _______ _____ _____    ______ ____
ROOT
ATOM      1  C   UNL     1      -1.855  -0.229   0.319  0.00  0.00    +0.024 C 
ATOM      2  C   UNL     1      -2.633  -0.043  -1.002  0.00  0.00    +0.007 C 
ATOM      3  C   UNL     1      -3.531  -1.287  -1.159  0.00  0.00    +0.010 C 
ATOM      4  C   UNL     1      -3.262  -2.159   0.075  0.00  0.00    -0.001 C 
ATOM      5  C   UNL     1      -1.844  -1.771   0.535  0.00  0.00    +0.075 C 
ATOM      6  C   UNL     1      -0.794  -2.339  -0.423  0.00  0.00    +0.049 C 
ATOM      7  C   UNL     1      -0.965  -3.848  -0.580  0.00  0.00    +0.086 C 
ATOM      8  C   UNL     1      -2.345  -4.124  -1.187  0.00  0.00    +0.125 C 
ATOM      9  C   UNL     1      -3.411  -3.635  -0.212  0.00  0.00    +0.041 C 
ATOM     10  C   UNL     1      -4.241  -1.766   1.183  0.00  0.00    +0.014 C 
ENDROOT
BRANCH   1  12
ATOM     11  C   UNL     1      -0.471   1.796  -0.157  0.00  0.00    +0.007 C 
ATOM     12  C   UNL     1      -0.428   0.304   0.181  0.00  0.00    -0.011 C 
ATOM     13  C   UNL     1       0.322   0.102   1.500  0.00  0.00    +0.007 C 
ENDBRANCH   1  12
BRANCH   7  14
ATOM     14  C   UNL     1       0.109  -4.387  -1.489  0.00  0.00    +0.136 C 
ATOM     15  O   UNL     1       0.630  -3.663  -2.304  0.00  0.00    -0.297 OA
ATOM     16  C   UNL     1       0.532  -5.829  -1.383  0.00  0.00    +0.086 C 
ENDBRANCH   7  14
BRANCH   8  17
ATOM     17  O   UNL     1      -2.501  -5.527  -1.411  0.00  0.00    -0.391 OA
ATOM     18  H   UNL     1      -1.845  -5.904  -2.013  0.00  0.00    +0.210 HD
ENDBRANCH   8  17
BRANCH   5  19
ATOM     19  O   UNL     1      -1.596  -2.129   1.897  0.00  0.00    -0.388 OA
ATOM     20  H   UNL     1      -0.698  -1.935   2.197  0.00  0.00    +0.210 HD
ENDBRANCH   5  19
TORSDOF 4
