REMARK  Name = ZINC38069405
REMARK  4 active torsions:
REMARK  status: ('A' for Active; 'I' for Inactive)
REMARK    1  A    between atoms: C_1  and  C_2
REMARK    2  A    between atoms: C_3  and  C_9
REMARK    3  A    between atoms: C_4  and  C_8
REMARK    4  A    between atoms: N_5  and  C_7
REMARK                            x       y       z     vdW  Elec       q    Type
REMARK                         _______ _______ _______ _____ _____    ______ ____
ROOT
ATOM      1  C   UNL     1      -0.018   1.503   0.010  0.00  0.00    +0.068 C 
ATOM      2  C   UNL     1       0.002  -0.004   0.002  0.00  0.00    +0.068 A 
ATOM      3  C   UNL     1       0.008  -0.825  -1.144  0.00  0.00    +0.034 A 
ATOM      4  C   UNL     1       0.028  -2.123  -0.720  0.00  0.00    +0.044 A 
ATOM      5  N   UNL     1       0.034  -2.111   0.631  0.00  0.00    -0.271 N 
ATOM      6  N   UNL     1       0.023  -0.777   1.056  0.00  0.00    -0.176 NA
ATOM      7  C   UNL     1       0.053  -3.289   1.500  0.00  0.00    +0.172 C 
ATOM      8  C   UNL     1       0.040  -3.347  -1.599  0.00  0.00    +0.066 C 
ENDROOT
BRANCH   3   9
ATOM      9  C   UNL     1      -0.005  -0.364  -2.551  0.00  0.00    +0.044 A 
ATOM     10  C   UNL     1       0.938   0.338  -3.248  0.00  0.00    +0.129 A 
ATOM     11  N   UNL     1       0.718   0.646  -4.509  0.00  0.00    -0.233 NA
ATOM     12  C   UNL     1      -0.401   0.290  -5.120  0.00  0.00    +0.156 A 
ATOM     13  S   UNL     1      -1.255  -0.578  -3.812  0.00  0.00    -0.053 S 
ATOM     14  N   UNL     1      -0.801   0.524  -6.426  0.00  0.00    -0.338 N 
ATOM     15  H   UNL     1      -0.221   1.013  -7.030  0.00  0.00    +0.144 HD
ATOM     16  H   UNL     1      -1.660   0.198  -6.736  0.00  0.00    +0.144 HD
ENDBRANCH   3   9
TORSDOF 1
