REMARK  Name = ZINC51734335
REMARK  4 active torsions:
REMARK  status: ('A' for Active; 'I' for Inactive)
REMARK    1  A    between atoms: C_1  and  C_2
REMARK    2  A    between atoms: C_7  and  C_10
REMARK    3  A    between atoms: CA_15  and  C_17
REMARK    4  A    between atoms: C_17  and  O_18
REMARK                            x       y       z     vdW  Elec       q    Type
REMARK                         _______ _______ _______ _____ _____    ______ ____
ROOT
ATOM      1  C   UNL     1      -0.040   1.494   0.424  0.00  0.00    +0.007 C 
ATOM      2  C   UNL     1      -0.008  -0.019   0.202  0.00  0.00    -0.011 C 
ATOM      3  C   UNL     1       0.859  -0.337  -1.018  0.00  0.00    +0.022 C 
ATOM      4  C   UNL     1       0.861  -1.850  -1.258  0.00  0.00    +0.107 C 
ATOM      5  N   UNL     1       1.285  -2.525  -0.024  0.00  0.00    -0.312 N 
ATOM      6  C   UNL     1       0.576  -2.221   1.227  0.00  0.00    +0.072 C 
ATOM      7  C   UNL     1       0.578  -0.704   1.439  0.00  0.00    +0.025 C 
ATOM      8  C   UNL     1      -0.865  -2.728   1.135  0.00  0.00    +0.028 C 
ATOM      9  C   UNL     1       2.338  -3.433  -0.038  0.00  0.00    +0.122 A 
ATOM     10  C   UNL     1       2.848  -3.877  -1.254  0.00  0.00    +0.045 A 
ATOM     11  C   UNL     1       3.896  -4.780  -1.255  0.00  0.00    +0.025 A 
ATOM     12  C   UNL     1       4.400  -5.211  -0.034  0.00  0.00    +0.065 A 
ATOM     13  CA  UNL     1       3.845  -4.729   1.135  0.00  0.00    +0.087 A 
ATOM     14  N   UNL     1       2.849  -3.863   1.105  0.00  0.00    -0.233 NA
ATOM     15 CL   UNL     1       5.714  -6.344   0.021  0.00  0.00    -0.082 Cl
ENDROOT
BRANCH  13  16
ATOM     16  C   UNL     1       4.387  -5.192   2.463  0.00  0.00    +0.212 C 
BRANCH  16  17
ATOM     17  O   UNL     1       5.439  -4.319   2.879  0.00  0.00    -0.389 OA
ATOM     18  H   UNL     1       5.835  -4.558   3.728  0.00  0.00    +0.210 HD
ENDBRANCH  16  17
ENDBRANCH  13  16
TORSDOF 2
