REMARK  Name = ZINC44919065
REMARK  6 active torsions:
REMARK  status: ('A' for Active; 'I' for Inactive)
REMARK    1  A    between atoms: C_1  and  O_2
REMARK    2  A    between atoms: O_2  and  C_3
REMARK    3  A    between atoms: C_6  and  C_10
REMARK    4  A    between atoms: C_8  and  O_9
REMARK    5  A    between atoms: C_13  and  O_27
REMARK    6  A    between atoms: C_19  and  C_20
REMARK                            x       y       z     vdW  Elec       q    Type
REMARK                         _______ _______ _______ _____ _____    ______ ____
ROOT
ATOM      1  C   UNL     1      -4.987  -2.627   0.035  0.00  0.00    +0.068 C 
ATOM      2  C   UNL     1      -5.784  -2.212   1.280  0.00  0.00    +0.109 C 
ATOM      3  C   UNL     1      -7.248  -2.488   1.097  0.00  0.00    +0.188 C 
ATOM      4  N   UNL     1      -7.866  -2.421  -0.036  0.00  0.00    -0.214 NA
ATOM      5  C   UNL     1      -7.155  -2.127  -1.188  0.00  0.00    +0.106 A 
ATOM      6  C   UNL     1      -5.781  -2.220  -1.166  0.00  0.00    +0.044 A 
ATOM      7  S   UNL     1      -5.303  -1.797  -2.698  0.00  0.00    +0.010 S 
ATOM      8  N   UNL     1      -6.799  -1.528  -3.403  0.00  0.00    -0.208 NA
ATOM      9  C   UNL     1      -7.668  -1.755  -2.436  0.00  0.00    +0.106 A 
ENDROOT
BRANCH   9  10
ATOM     10  C   UNL     1      -9.127  -1.627  -2.663  0.00  0.00    +0.003 A 
ATOM     11  C   UNL     1     -10.014  -2.483  -2.012  0.00  0.00    +0.011 A 
ATOM     12  C   UNL     1     -11.372  -2.358  -2.226  0.00  0.00    +0.020 A 
ATOM     13  C   UNL     1     -11.853  -1.386  -3.086  0.00  0.00    +0.041 A 
ATOM     14  C   UNL     1     -10.976  -0.533  -3.735  0.00  0.00    +0.020 A 
ATOM     15  C   UNL     1      -9.617  -0.645  -3.523  0.00  0.00    +0.011 A 
ATOM     16 CL   UNL     1     -13.562  -1.235  -3.351  0.00  0.00    -0.084 Cl
ENDBRANCH   9  10
BRANCH   1  20
ATOM     17  C   UNL     1      -1.201  -0.638   0.010  0.00  0.00    +0.161 A 
ATOM     18  C   UNL     1      -2.374   0.099   0.019  0.00  0.00    +0.049 A 
ATOM     19  C   UNL     1      -3.596  -0.546   0.027  0.00  0.00    +0.008 A 
ATOM     20  C   UNL     1      -3.652  -1.928   0.026  0.00  0.00    -0.035 A 
ATOM     21  C   UNL     1      -2.485  -2.669   0.017  0.00  0.00    +0.053 A 
ATOM     22  C   UNL     1      -1.257  -2.028   0.003  0.00  0.00    +0.159 A 
BRANCH  17  24
ATOM     23  C   UNL     1      -0.017   1.425   0.010  0.00  0.00    +0.277 C 
ATOM     24  O   UNL     1       0.002  -0.004   0.002  0.00  0.00    -0.491 OA
ENDBRANCH  17  24
BRANCH  22  25
ATOM     25  O   UNL     1      -0.108  -2.756  -0.012  0.00  0.00    -0.503 OA
ATOM     26  H   UNL     1       0.232  -2.972   0.867  0.00  0.00    +0.292 HD
ENDBRANCH  22  25
ENDBRANCH   1  20
BRANCH   3  27
ATOM     27  O   UNL     1      -7.967  -2.829   2.189  0.00  0.00    -0.495 OA
ATOM     28  H   UNL     1      -8.902  -2.994   2.008  0.00  0.00    +0.293 HD
ENDBRANCH   3  27
TORSDOF 5
