REMARK  Name = ZINC12608333
REMARK  6 active torsions:
REMARK  status: ('A' for Active; 'I' for Inactive)
REMARK    1  A    between atoms: C_1  and  C_2
REMARK    2  A    between atoms: C_2  and  C_3
REMARK    3  A    between atoms: C_2  and  N_4
REMARK    4  A    between atoms: C_9  and  C_16
REMARK    5  A    between atoms: C_11  and  C_13
REMARK    6  A    between atoms: C_26  and  N_30
REMARK                            x       y       z     vdW  Elec       q    Type
REMARK                         _______ _______ _______ _____ _____    ______ ____
ROOT
ATOM      1  C   UNL     1       2.993   5.162   0.273  0.00  0.00    +0.248 C 
ATOM      2  O   UNL     1       4.107   5.648   0.273  0.00  0.00    -0.270 OA
ATOM      3  N   UNL     1       2.182   5.336   1.335  0.00  0.00    -0.292 N 
ATOM      4  C   UNL     1       2.561   6.216   2.451  0.00  0.00    +0.113 C 
ATOM      5  C   UNL     1       1.589   7.393   2.526  0.00  0.00    +0.056 C 
ATOM      6  C   UNL     1       0.156   6.871   2.458  0.00  0.00    -0.022 A 
ATOM      7  C   UNL     1      -0.112   5.644   1.956  0.00  0.00    +0.013 A 
ATOM      8  S   UNL     1      -1.873   5.463   2.067  0.00  0.00    -0.072 S 
ATOM      9  C   UNL     1      -2.253   7.027   2.788  0.00  0.00    +0.114 A 
ATOM     10  C   UNL     1      -0.984   7.646   2.919  0.00  0.00    +0.051 A 
ATOM     11  C   UNL     1      -0.962   8.954   3.485  0.00  0.00    +0.128 A 
ATOM     12  N   UNL     1      -2.146   9.456   3.831  0.00  0.00    -0.220 NA
ATOM     13  C   UNL     1      -3.289   8.819   3.678  0.00  0.00    +0.224 A 
ATOM     14  N   UNL     1      -3.381   7.601   3.159  0.00  0.00    -0.228 NA
ATOM     15  C   UNL     1       0.875   4.655   1.422  0.00  0.00    +0.150 C 
ENDROOT
BRANCH   1  21
ATOM     16  N   UNL     1       3.046   4.455  -4.412  0.00  0.00    -0.244 N 
ATOM     17  C   UNL     1       2.479   3.926  -3.281  0.00  0.00    +0.159 A 
ATOM     18  C   UNL     1       2.952   4.701  -2.202  0.00  0.00    +0.051 A 
ATOM     19  C   UNL     1       3.804   5.688  -2.741  0.00  0.00    +0.145 A 
ATOM     20  N   UNL     1       3.852   5.535  -4.033  0.00  0.00    -0.177 NA
ATOM     21  C   UNL     1       2.527   4.381  -0.893  0.00  0.00    +0.051 A 
ATOM     22  C   UNL     1       1.651   3.310  -0.738  0.00  0.00    +0.037 A 
ATOM     23  C   UNL     1       1.241   2.599  -1.855  0.00  0.00    +0.047 A 
ATOM     24  N   UNL     1       1.650   2.916  -3.064  0.00  0.00    -0.232 NA
BRANCH  16  26
ATOM     25  C   UNL     1       2.239   5.091  -6.631  0.00  0.00    +0.032 C 
ATOM     26  C   UNL     1       2.843   3.973  -5.780  0.00  0.00    +0.103 C 
ATOM     27  C   UNL     1       4.187   3.548  -6.376  0.00  0.00    +0.032 C 
ENDBRANCH  16  26
BRANCH  23  28
ATOM     28  C   UNL     1       0.297   1.437  -1.681  0.00  0.00    +0.038 C 
ATOM     29  C   UNL     1      -0.451   1.327  -0.351  0.00  0.00    +0.010 C 
ATOM     30  C   UNL     1      -1.200   1.745  -1.619  0.00  0.00    +0.010 C 
ENDBRANCH  23  28
ENDBRANCH   1  21
BRANCH  11  31
ATOM     31  N   UNL     1       0.215   9.657   3.664  0.00  0.00    -0.343 N 
ATOM     32  H   UNL     1       1.013   9.399   3.177  0.00  0.00    +0.144 HD
ATOM     33  H   UNL     1       0.243  10.408   4.277  0.00  0.00    +0.144 HD
ENDBRANCH  11  31
TORSDOF 4
