REMARK  Name = ZINC05343188
REMARK  8 active torsions:
REMARK  status: ('A' for Active; 'I' for Inactive)
REMARK    1  A    between atoms: C_1  and  C_2
REMARK    2  A    between atoms: C_5  and  C_8
REMARK    3  A    between atoms: C_11  and  C_22
REMARK    4  A    between atoms: N_18  and  C_19
REMARK    5  A    between atoms: C_19  and  C_20
REMARK    6  A    between atoms: C_20  and  O_21
REMARK    7  A    between atoms: C_25  and  C_29
REMARK    8  A    between atoms: C_27  and  O_28
REMARK                            x       y       z     vdW  Elec       q    Type
REMARK                         _______ _______ _______ _____ _____    ______ ____
ROOT
ATOM      1  C   UNL     1       0.229  -3.875   0.250  0.00  0.00    +0.141 C 
ATOM      2  C   UNL     1       1.544  -4.604   0.231  0.00  0.00    +0.035 A 
ATOM      3  C   UNL     1       2.764  -4.818  -0.419  0.00  0.00    +0.102 A 
ATOM      4  N   UNL     1       3.434  -5.711   0.283  0.00  0.00    -0.173 NA
ATOM      5  N   UNL     1       2.758  -6.081   1.312  0.00  0.00    -0.272 N 
ATOM      6  H   UNL     1       3.054  -6.729   1.969  0.00  0.00    +0.189 HD
ATOM      7  C   UNL     1       1.560  -5.425   1.341  0.00  0.00    +0.126 A 
ATOM      8  C   UNL     1       0.300  -5.247   2.071  0.00  0.00    +0.266 C 
ATOM      9  O   UNL     1       0.003  -5.830   3.097  0.00  0.00    -0.268 OA
ATOM     10  N   UNL     1      -0.483  -4.348   1.445  0.00  0.00    -0.283 N 
ENDROOT
BRANCH   3  11
ATOM     11  C   UNL     1       3.220  -4.162  -1.670  0.00  0.00    +0.045 A 
ATOM     12  C   UNL     1       2.358  -3.328  -2.377  0.00  0.00    +0.034 A 
ATOM     13  C   UNL     1       2.787  -2.720  -3.540  0.00  0.00    +0.045 A 
ATOM     14  C   UNL     1       4.073  -2.937  -4.007  0.00  0.00    -0.029 A 
ATOM     15  C   UNL     1       4.935  -3.764  -3.312  0.00  0.00    +0.050 A 
ATOM     16  C   UNL     1       4.519  -4.375  -2.141  0.00  0.00    +0.126 A 
ATOM     17  C   UNL     1       4.533  -2.269  -5.277  0.00  0.00    +0.045 C 
ATOM     18 CL   UNL     1       1.711  -1.680  -4.421  0.00  0.00    -0.083 Cl
BRANCH  16  19
ATOM     19  O   UNL     1       5.369  -5.183  -1.454  0.00  0.00    -0.506 OA
ATOM     20  H   UNL     1       5.332  -6.111  -1.723  0.00  0.00    +0.292 HD
ENDBRANCH  16  19
ENDBRANCH   3  11
BRANCH   1  25
ATOM     21  C   UNL     1       1.121   1.825   0.591  0.00  0.00    +0.044 C 
ATOM     22  C   UNL     1       0.888   0.338   0.502  0.00  0.00    -0.050 A 
ATOM     23  C   UNL     1       1.193  -0.475   1.578  0.00  0.00    +0.004 A 
ATOM     24  C   UNL     1       0.979  -1.838   1.497  0.00  0.00    +0.006 A 
ATOM     25  C   UNL     1       0.461  -2.388   0.340  0.00  0.00    -0.022 A 
ATOM     26  C   UNL     1       0.155  -1.575  -0.736  0.00  0.00    +0.006 A 
ATOM     27  C   UNL     1       0.365  -0.211  -0.653  0.00  0.00    +0.004 A 
ENDBRANCH   1  25
BRANCH  10  28
ATOM     28  C   UNL     1      -1.813  -3.915   1.880  0.00  0.00    +0.137 C 
BRANCH  28  29
ATOM     29  C   UNL     1      -2.874  -4.823   1.256  0.00  0.00    +0.175 C 
BRANCH  29  30
ATOM     30  O   UNL     1      -2.724  -6.150   1.764  0.00  0.00    -0.393 OA
ATOM     31  H   UNL     1      -3.366  -6.781   1.410  0.00  0.00    +0.209 HD
ENDBRANCH  29  30
ENDBRANCH  28  29
ENDBRANCH  10  28
TORSDOF 6
