REMARK  Name = ZINC50045688
REMARK  5 active torsions:
REMARK  status: ('A' for Active; 'I' for Inactive)
REMARK    1  A    between atoms: C_1  and  C_2
REMARK    2  A    between atoms: C_2  and  C_4
REMARK    3  A    between atoms: C_2  and  O_21
REMARK    4  A    between atoms: C_9  and  N_10
REMARK    5  A    between atoms: C_11  and  C_13
REMARK                            x       y       z     vdW  Elec       q    Type
REMARK                         _______ _______ _______ _____ _____    ______ ____
ROOT
ATOM      1  N   UNL     1       2.833  -0.269  -0.113  0.00  0.00    -0.281 N 
ATOM      2  C   UNL     1       3.945  -0.965   0.196  0.00  0.00    +0.251 C 
ATOM      3  O   UNL     1       4.354  -1.824  -0.561  0.00  0.00    -0.270 OA
ATOM      4  H   UNL     1       2.543   0.460   0.457  0.00  0.00    +0.155 HD
ENDROOT
BRANCH   2   5
ATOM      5  C   UNL     1       4.666  -0.684   1.454  0.00  0.00    +0.075 A 
ATOM      6  C   UNL     1       4.202   0.298   2.337  0.00  0.00    +0.033 A 
ATOM      7  C   UNL     1       4.914   0.522   3.503  0.00  0.00    +0.037 A 
ATOM      8  C   UNL     1       6.051  -0.225   3.757  0.00  0.00    +0.127 A 
ATOM      9  N   UNL     1       6.466  -1.145   2.907  0.00  0.00    -0.242 NA
ATOM     10  C   UNL     1       5.819  -1.399   1.786  0.00  0.00    +0.141 A 
ATOM     11 CL   UNL     1       6.411  -2.628   0.712  0.00  0.00    -0.061 Cl
ATOM     12 BR   UNL     1       4.339   1.836   4.736  0.00  0.00    -0.049 Br
ENDBRANCH   2   5
BRANCH   1  18
ATOM     13  C   UNL     1       0.713  -0.480  -1.251  0.00  0.00    +0.002 A 
ATOM     14  C   UNL     1      -0.010  -0.801  -2.383  0.00  0.00    +0.008 A 
ATOM     15  C   UNL     1       0.642  -1.243  -3.520  0.00  0.00    +0.000 A 
ATOM     16  C   UNL     1       2.020  -1.365  -3.527  0.00  0.00    +0.002 A 
ATOM     17  C   UNL     1       2.749  -1.047  -2.398  0.00  0.00    +0.023 A 
ATOM     18  C   UNL     1       2.097  -0.598  -1.256  0.00  0.00    +0.039 A 
BRANCH  13  20
ATOM     19  C   UNL     1      -0.015   1.532   0.002  0.00  0.00    +0.043 C 
ATOM     20  C   UNL     1       0.002   0.002  -0.013  0.00  0.00    +0.143 C 
BRANCH  20  21
ATOM     21  O   UNL     1      -1.340  -0.490  -0.013  0.00  0.00    -0.387 OA
ATOM     22  H   UNL     1      -1.858  -0.218   0.757  0.00  0.00    +0.210 HD
ENDBRANCH  20  21
ENDBRANCH  13  20
ENDBRANCH   1  18
TORSDOF 4
