REMARK  Name = ZINC54621216
REMARK  7 active torsions:
REMARK  status: ('A' for Active; 'I' for Inactive)
REMARK    1  A    between atoms: C_6  and  C_12
REMARK    2  A    between atoms: C_7  and  O_11
REMARK    3  A    between atoms: C_12  and  C_14
REMARK    4  A    between atoms: C_12  and  N_19
REMARK    5  A    between atoms: N_19  and  C_20
REMARK    6  A    between atoms: C_23  and  S_26
REMARK    7  A    between atoms: S_26  and  N_29
REMARK                            x       y       z     vdW  Elec       q    Type
REMARK                         _______ _______ _______ _____ _____    ______ ____
ROOT
ATOM      1  C   UNL     1       5.995  -0.906  -0.060  0.00  0.00    +0.141 C 
ENDROOT
BRANCH   1   7
ATOM      2  C   UNL     1       0.079   1.584   0.400  0.00  0.00    +0.020 A 
ATOM      3  C   UNL     1       1.279   2.236   0.431  0.00  0.00    +0.011 A 
ATOM      4  C   UNL     1       2.454   1.471   0.310  0.00  0.00    +0.004 A 
ATOM      5  C   UNL     1       3.723   2.071   0.334  0.00  0.00    +0.010 A 
ATOM      6  C   UNL     1       4.838   1.299   0.215  0.00  0.00    +0.010 A 
ATOM      7  C   UNL     1       4.740  -0.083   0.070  0.00  0.00    +0.021 A 
ATOM      8  C   UNL     1       3.523  -0.702   0.042  0.00  0.00    +0.148 A 
ATOM      9  C   UNL     1       2.346   0.066   0.163  0.00  0.00    +0.113 A 
ATOM     10  N   UNL     1       1.141  -0.510   0.140  0.00  0.00    -0.251 NA
ATOM     11  C   UNL     1       0.044   0.200   0.252  0.00  0.00    +0.111 A 
BRANCH   8  12
ATOM     12  O   UNL     1       3.446  -2.051  -0.101  0.00  0.00    -0.504 OA
ATOM     13  H   UNL     1       3.453  -2.536   0.735  0.00  0.00    +0.292 HD
ENDBRANCH   8  12
ENDBRANCH   1   7
BRANCH   1  14
ATOM     14  C   UNL     1       6.426  -1.384   1.303  0.00  0.00    +0.014 A 
ATOM     15  C   UNL     1       6.244  -2.597   1.879  0.00  0.00    +0.013 A 
ATOM     16  C   UNL     1       6.731  -2.813   3.155  0.00  0.00    +0.008 A 
ATOM     17  C   UNL     1       7.377  -1.805   3.791  0.00  0.00    +0.045 A 
ATOM     18  S   UNL     1       7.315  -0.500   2.574  0.00  0.00    -0.099 S 
ENDBRANCH   1  14
BRANCH   1  19
ATOM     19  N   UNL     1       7.057  -0.088  -0.650  0.00  0.00    -0.332 N 
ATOM     20  H   UNL     1       7.033   0.877  -0.559  0.00  0.00    +0.147 HD
BRANCH  19  21
ATOM     21  C   UNL     1       8.106  -0.698  -1.342  0.00  0.00    +0.028 A 
ATOM     22  C   UNL     1       8.140  -2.080  -1.478  0.00  0.00    +0.025 A 
ATOM     23  C   UNL     1       9.178  -2.679  -2.164  0.00  0.00    +0.030 A 
ATOM     24  C   UNL     1      10.183  -1.906  -2.715  0.00  0.00    +0.105 A 
ATOM     25  C   UNL     1      10.152  -0.530  -2.581  0.00  0.00    +0.030 A 
ATOM     26  C   UNL     1       9.114   0.077  -1.902  0.00  0.00    +0.025 A 
BRANCH  24  27
ATOM     27  S   UNL     1      11.506  -2.675  -3.588  0.00  0.00    +0.056 S 
ATOM     28  O   UNL     1      12.604  -1.774  -3.538  0.00  0.00    -0.153 OA
ATOM     29  O   UNL     1      11.591  -4.008  -3.104  0.00  0.00    -0.153 OA
BRANCH  27  30
ATOM     30  N   UNL     1      11.050  -2.777  -5.177  0.00  0.00    -0.204 NA
ATOM     31  H   UNL     1      10.184  -2.439  -5.456  0.00  0.00    +0.144 HD
ATOM     32  H   UNL     1      11.648  -3.175  -5.829  0.00  0.00    +0.144 HD
ENDBRANCH  27  30
ENDBRANCH  24  27
ENDBRANCH  19  21
ENDBRANCH   1  19
TORSDOF 7
