REMARK  Name = ZINC20300670
REMARK  6 active torsions:
REMARK  status: ('A' for Active; 'I' for Inactive)
REMARK    1  A    between atoms: C_1  and  C_2
REMARK    2  A    between atoms: C_2  and  N_3
REMARK    3  A    between atoms: C_7  and  C_9
REMARK    4  A    between atoms: C_9  and  C_11
REMARK    5  A    between atoms: C_9  and  N_12
REMARK    6  A    between atoms: N_12  and  C_13
REMARK                            x       y       z     vdW  Elec       q    Type
REMARK                         _______ _______ _______ _____ _____    ______ ____
ROOT
ATOM      1  C   UNL     1       1.281  -0.719  -0.014  0.00  0.00    +0.154 C 
ATOM      2  C   UNL     1       1.773  -0.851  -1.456  0.00  0.00    +0.038 C 
ENDROOT
BRANCH   1   7
ATOM      3  N   UNL     1       3.028  -5.003   1.292  0.00  0.00    -0.299 N 
ATOM      4  C   UNL     1       1.979  -4.161   1.202  0.00  0.00    +0.306 C 
ATOM      5  O   UNL     1       0.885  -4.508   1.601  0.00  0.00    -0.252 OA
ATOM      6  N   UNL     1       2.144  -2.934   0.670  0.00  0.00    -0.239 N 
ATOM      7  C   UNL     1       1.096  -2.091   0.581  0.00  0.00    +0.240 C 
ATOM      8  O   UNL     1       0.004  -2.438   0.979  0.00  0.00    -0.273 OA
ATOM      9  H   UNL     1       4.018  -4.689   0.931  0.00  0.00    +0.150 HD
ATOM     10  H   UNL     1       3.135  -2.619   0.309  0.00  0.00    +0.159 HD
BRANCH   3  12
ATOM     11  C   UNL     1       4.184  -7.084   1.853  0.00  0.00    +0.024 C 
ATOM     12  C   UNL     1       2.848  -6.337   1.870  0.00  0.00    +0.102 C 
ENDBRANCH   3  12
ENDBRANCH   1   7
BRANCH   1  13
ATOM     13  N   UNL     1       0.002  -0.004   0.002  0.00  0.00    -0.332 N 
ATOM     14  H   UNL     1      -0.943  -0.567   0.008  0.00  0.00    +0.147 HD
BRANCH  13  15
ATOM     15  C   UNL     1      -0.017   1.393   0.010  0.00  0.00    +0.042 A 
ATOM     16  C   UNL     1       1.175   2.105   0.002  0.00  0.00    +0.024 A 
ATOM     17  C   UNL     1       1.153   3.486   0.009  0.00  0.00    +0.002 A 
ATOM     18  C   UNL     1      -0.054   4.160   0.024  0.00  0.00    +0.001 A 
ATOM     19  C   UNL     1      -1.243   3.455   0.031  0.00  0.00    +0.017 A 
ATOM     20  C   UNL     1      -1.229   2.073   0.019  0.00  0.00    +0.039 A 
ATOM     21 BR   UNL     1      -2.856   1.109   0.022  0.00  0.00    -0.048 Br
ENDBRANCH  13  15
ENDBRANCH   1  13
TORSDOF 4
