REMARK  Name = ZINC52586068
REMARK  9 active torsions:
REMARK  status: ('A' for Active; 'I' for Inactive)
REMARK    1  A    between atoms: C_1  and  C_2
REMARK    2  A    between atoms: C_7  and  C_9
REMARK    3  A    between atoms: C_7  and  N_27
REMARK    4  A    between atoms: C_9  and  N_10
REMARK    5  A    between atoms: N_13  and  C_14
REMARK    6  A    between atoms: C_14  and  C_15
REMARK    7  A    between atoms: C_19  and  N_21
REMARK    8  A    between atoms: N_27  and  C_28
REMARK    9  A    between atoms: N_27  and  C_29
REMARK                            x       y       z     vdW  Elec       q    Type
REMARK                         _______ _______ _______ _____ _____    ______ ____
ROOT
ATOM      1  N   UNL     1       1.149  -4.115   2.383  0.00  0.00    -0.301 N 
ATOM      2  C   UNL     1       1.601  -4.886   3.392  0.00  0.00    +0.300 C 
ATOM      3  O   UNL     1       2.207  -4.381   4.318  0.00  0.00    -0.253 OA
ATOM      4  N   UNL     1       1.381  -6.215   3.375  0.00  0.00    -0.295 N 
ATOM      5  H   UNL     1       0.666  -4.517   1.644  0.00  0.00    +0.150 HD
ATOM      6  H   UNL     1       0.898  -6.618   2.636  0.00  0.00    +0.151 HD
ENDROOT
BRANCH   1   7
ATOM      7  C   UNL     1       1.388  -2.670   2.401  0.00  0.00    +0.094 C 
BRANCH   7  13
ATOM      8  C   UNL     1       1.111  -2.509  -2.585  0.00  0.00    +0.007 C 
ATOM      9  C   UNL     1       0.543  -1.940  -1.284  0.00  0.00    -0.015 C 
ATOM     10  C   UNL     1      -0.957  -2.236  -1.210  0.00  0.00    +0.003 C 
ATOM     11  C   UNL     1      -1.525  -1.667   0.092  0.00  0.00    -0.001 C 
ATOM     12  C   UNL     1      -0.819  -2.316   1.283  0.00  0.00    -0.010 C 
ATOM     13  C   UNL     1       0.681  -2.021   1.210  0.00  0.00    -0.050 C 
ATOM     14  C   UNL     1       1.250  -2.589  -0.092  0.00  0.00    -0.007 C 
BRANCH  13  15
ATOM     15  N   UNL     1       0.896  -0.568   1.245  0.00  0.00    +0.381 N 
ATOM     16  C   UNL     1       0.328  -0.019   2.483  0.00  0.00    -0.096 C 
ATOM     17  C   UNL     1       2.337  -0.285   1.199  0.00  0.00    -0.096 C 
ATOM     18  H   UNL     1       0.444  -0.142   0.449  0.00  0.00    -0.082 HD
ENDBRANCH  13  15
ENDBRANCH   7  13
ENDBRANCH   1   7
BRANCH   4  19
ATOM     19  C   UNL     1       1.873  -7.053   4.472  0.00  0.00    +0.141 C 
BRANCH  19  20
ATOM     20  C   UNL     1       1.499  -8.490   4.213  0.00  0.00    -0.029 A 
ATOM     21  C   UNL     1       0.293  -8.984   4.676  0.00  0.00    +0.005 A 
ATOM     22  C   UNL     1      -0.054 -10.302   4.441  0.00  0.00    +0.002 A 
ATOM     23  C   UNL     1       0.804 -11.129   3.742  0.00  0.00    +0.023 A 
ATOM     24  C   UNL     1       2.015 -10.636   3.276  0.00  0.00    +0.040 A 
ATOM     25  C   UNL     1       2.358  -9.310   3.509  0.00  0.00    +0.028 A 
BRANCH  24  26
ATOM     26  N   UNL     1       2.887 -11.471   2.567  0.00  0.00    -0.234 N 
ATOM     27  C   UNL     1       2.654 -12.890   2.235  0.00  0.00    +0.158 C 
ATOM     28  C   UNL     1       3.731 -13.155   1.157  0.00  0.00    +0.253 C 
ATOM     29  O   UNL     1       4.715 -12.147   1.462  0.00  0.00    -0.448 OA
ATOM     30  C   UNL     1       4.085 -11.123   2.062  0.00  0.00    +0.407 C 
ATOM     31  O   UNL     1       4.549 -10.002   2.143  0.00  0.00    -0.226 OA
ENDBRANCH  24  26
ENDBRANCH  19  20
ENDBRANCH   4  19
TORSDOF 6
