REMARK  Name = ZINC45891250
REMARK  3 active torsions:
REMARK  status: ('A' for Active; 'I' for Inactive)
REMARK    1  A    between atoms: C_2  and  N_16
REMARK    2  A    between atoms: C_3  and  N_10
REMARK    3  A    between atoms: C_5  and  N_8
REMARK                            x       y       z     vdW  Elec       q    Type
REMARK                         _______ _______ _______ _____ _____    ______ ____
ROOT
ATOM      1  C   UNL     1      -0.017   1.378   0.010  0.00  0.00    +0.056 A 
ATOM      2  C   UNL     1       1.169   2.088   0.002  0.00  0.00    +0.150 A 
ATOM      3  C   UNL     1       2.384   1.415  -0.014  0.00  0.00    +0.076 A 
ATOM      4  C   UNL     1       2.407   0.027  -0.021  0.00  0.00    +0.063 A 
ATOM      5  C   UNL     1       1.215  -0.684  -0.013  0.00  0.00    +0.059 A 
ATOM      6  C   UNL     1       0.002  -0.004   0.002  0.00  0.00    +0.065 A 
ATOM      7 CL   UNL     1      -1.490  -0.892   0.012  0.00  0.00    -0.082 Cl
ATOM      8 BR   UNL     1       4.059  -0.894  -0.043  0.00  0.00    -0.046 Br
ENDROOT
BRANCH   3   9
ATOM      9  N   UNL     1       3.582   2.135  -0.022  0.00  0.00    -0.323 N 
ATOM     10  C   UNL     1       4.216   2.536  -1.288  0.00  0.00    +0.133 C 
ATOM     11  C   UNL     1       4.531   4.035  -1.217  0.00  0.00    +0.178 C 
ATOM     12  O   UNL     1       5.271   4.304  -0.024  0.00  0.00    -0.377 OA
ATOM     13  C   UNL     1       4.561   4.013   1.183  0.00  0.00    +0.178 C 
ATOM     14  C   UNL     1       4.245   2.518   1.235  0.00  0.00    +0.133 C 
ENDBRANCH   3   9
BRANCH   5  15
ATOM     15  N   UNL     1       1.233  -2.082  -0.021  0.00  0.00    -0.356 N 
ATOM     16  H   UNL     1       2.080  -2.556  -0.033  0.00  0.00    +0.142 HD
ATOM     17  H   UNL     1       0.400  -2.578  -0.016  0.00  0.00    +0.142 HD
ENDBRANCH   5  15
BRANCH   2  18
ATOM     18  N   UNL     1       1.144   3.568   0.010  0.00  0.00    +0.058 N 
ATOM     19  O   UNL     1       0.087   4.155   0.024  0.00  0.00    -0.126 OA
ATOM     20  O   UNL     1       2.181   4.190   0.004  0.00  0.00    -0.126 OA
ENDBRANCH   2  18
TORSDOF 3
