REMARK  Name = ZINC36899678
REMARK  3 active torsions:
REMARK  status: ('A' for Active; 'I' for Inactive)
REMARK    1  A    between atoms: C_3  and  O_18
REMARK    2  A    between atoms: C_6  and  N_7
REMARK    3  A    between atoms: O_18  and  C_19
REMARK                            x       y       z     vdW  Elec       q    Type
REMARK                         _______ _______ _______ _____ _____    ______ ____
ROOT
ATOM      1  N   UNL     1      -1.203  -0.722   0.010  0.00  0.00    -0.281 N 
ATOM      2  C   UNL     1      -1.661  -1.550   1.024  0.00  0.00    +0.075 A 
ATOM      3  C   UNL     1      -1.155  -1.928   2.259  0.00  0.00    +0.029 A 
ATOM      4  C   UNL     1      -1.873  -2.793   3.059  0.00  0.00    +0.017 A 
ATOM      5  C   UNL     1      -3.099  -3.287   2.638  0.00  0.00    +0.020 A 
ATOM      6  C   UNL     1      -3.616  -2.922   1.414  0.00  0.00    +0.045 A 
ATOM      7  C   UNL     1      -2.902  -2.047   0.592  0.00  0.00    +0.092 A 
ATOM      8  N   UNL     1      -3.141  -1.515  -0.635  0.00  0.00    -0.214 NA
ATOM      9  C   UNL     1      -2.148  -0.732  -0.978  0.00  0.00    +0.199 A 
ATOM     10  N   UNL     1      -2.067  -0.026  -2.160  0.00  0.00    -0.329 N 
ATOM     11 BR   UNL     1      -4.066  -4.471   3.751  0.00  0.00    -0.050 Br
ATOM     12  H   UNL     1      -1.294   0.531  -2.340  0.00  0.00    +0.145 HD
ATOM     13  H   UNL     1      -2.783  -0.088  -2.812  0.00  0.00    +0.145 HD
ENDROOT
BRANCH   1  19
ATOM     14  C   UNL     1      -0.017   1.384   0.010  0.00  0.00    +0.030 A 
ATOM     15  C   UNL     1       1.170   2.090   0.002  0.00  0.00    +0.048 A 
ATOM     16  C   UNL     1       2.380   1.413  -0.013  0.00  0.00    +0.127 A 
ATOM     17  C   UNL     1       2.400   0.026  -0.022  0.00  0.00    +0.048 A 
ATOM     18  C   UNL     1       1.214  -0.681  -0.014  0.00  0.00    +0.030 A 
ATOM     19  C   UNL     1       0.002  -0.004   0.002  0.00  0.00    +0.050 A 
BRANCH  16  20
ATOM     20  O   UNL     1       3.548   2.109  -0.021  0.00  0.00    -0.434 OA
BRANCH  20  21
ATOM     21  C   UNL     1       4.757   1.348  -0.037  0.00  0.00    +0.541 C 
ATOM     22  F   UNL     1       4.812   0.535   1.100  0.00  0.00    -0.166 F 
ATOM     23  F   UNL     1       4.789   0.547  -1.185  0.00  0.00    -0.166 F 
ENDBRANCH  20  21
ENDBRANCH  16  20
ENDBRANCH   1  19
TORSDOF 3
