REMARK  Name = ZINC41067969
REMARK  6 active torsions:
REMARK  status: ('A' for Active; 'I' for Inactive)
REMARK    1  A    between atoms: C_1  and  N_2
REMARK    2  A    between atoms: N_2  and  C_3
REMARK    3  A    between atoms: C_4  and  C_6
REMARK    4  A    between atoms: N_11  and  S_12
REMARK    5  A    between atoms: S_12  and  C_15
REMARK    6  A    between atoms: C_17  and  N_20
REMARK                            x       y       z     vdW  Elec       q    Type
REMARK                         _______ _______ _______ _____ _____    ______ ____
ROOT
ATOM      1  S   UNL     1       0.643  -2.639  -3.564  0.00  0.00    +0.068 S 
ATOM      2  O   UNL     1       0.044  -2.712  -4.850  0.00  0.00    -0.152 OA
ATOM      3  O   UNL     1       1.507  -1.576  -3.184  0.00  0.00    -0.152 OA
ENDROOT
BRANCH   1   8
ATOM      4  C   UNL     1      -0.533  -2.125  -1.095  0.00  0.00    +0.166 C 
ATOM      5  C   UNL     1      -1.920  -2.340  -0.453  0.00  0.00    +0.031 C 
ATOM      6  C   UNL     1      -2.856  -2.470  -1.683  0.00  0.00    +0.019 C 
ATOM      7  C   UNL     1      -1.944  -3.214  -2.691  0.00  0.00    +0.110 C 
ATOM      8  N   UNL     1      -0.594  -2.659  -2.463  0.00  0.00    -0.164 NA
BRANCH   4  12
ATOM      9  C   UNL     1       0.636   1.373  -0.078  0.00  0.00    +0.131 C 
ATOM     10  N   UNL     1       0.420  -0.075  -0.090  0.00  0.00    -0.306 N 
ATOM     11  C   UNL     1       0.885  -0.895   1.031  0.00  0.00    +0.131 C 
ATOM     12  C   UNL     1      -0.208  -0.654  -1.133  0.00  0.00    +0.234 C 
ATOM     13  O   UNL     1      -0.512   0.009  -2.102  0.00  0.00    -0.274 OA
ENDBRANCH   4  12
ENDBRANCH   1   8
BRANCH   1  14
ATOM     14  C   UNL     1       1.556  -4.131  -3.349  0.00  0.00    +0.144 A 
ATOM     15  C   UNL     1       1.383  -5.331  -3.954  0.00  0.00    +0.059 A 
ATOM     16  C   UNL     1       2.230  -6.377  -3.625  0.00  0.00    +0.034 A 
ATOM     17  C   UNL     1       3.209  -6.164  -2.706  0.00  0.00    +0.069 A 
ATOM     18  S   UNL     1       2.953  -4.449  -2.284  0.00  0.00    -0.075 S 
BRANCH  16  19
ATOM     19  N   UNL     1       2.080  -7.638  -4.232  0.00  0.00    -0.358 N 
ATOM     20  H   UNL     1       1.379  -7.781  -4.886  0.00  0.00    +0.142 HD
ATOM     21  H   UNL     1       2.679  -8.365  -3.996  0.00  0.00    +0.142 HD
ENDBRANCH  16  19
ENDBRANCH   1  14
TORSDOF 4
