REMARK  Name = ZINC39503394
REMARK  6 active torsions:
REMARK  status: ('A' for Active; 'I' for Inactive)
REMARK    1  A    between atoms: C_1  and  O_2
REMARK    2  A    between atoms: O_2  and  C_3
REMARK    3  A    between atoms: C_10  and  C_21
REMARK    4  A    between atoms: N_13  and  C_14
REMARK    5  A    between atoms: C_19  and  O_20
REMARK    6  A    between atoms: C_26  and  O_27
REMARK                            x       y       z     vdW  Elec       q    Type
REMARK                         _______ _______ _______ _____ _____    ______ ____
ROOT
ATOM      1  C   UNL     1      -1.589  -0.583   0.507  0.00  0.00    +0.120 C 
ATOM      2  C   UNL     1      -2.218  -1.053   1.842  0.00  0.00    +0.034 C 
ATOM      3  C   UNL     1      -3.146  -2.218   1.434  0.00  0.00    +0.028 C 
ATOM      4  C   UNL     1      -2.602  -2.759   0.106  0.00  0.00    +0.038 C 
ATOM      5  C   UNL     1      -1.372  -1.911  -0.263  0.00  0.00    +0.057 C 
ATOM      6  C   UNL     1      -2.202  -4.237   0.257  0.00  0.00    +0.035 C 
ATOM      7  C   UNL     1      -3.425  -4.986  -0.339  0.00  0.00    +0.042 C 
ATOM      8  C   UNL     1      -3.852  -4.029  -1.481  0.00  0.00    +0.114 C 
ATOM      9  N   UNL     1      -3.618  -2.674  -0.945  0.00  0.00    -0.321 N 
ENDROOT
BRANCH   9  10
ATOM     10  C   UNL     1      -4.258  -1.504  -1.371  0.00  0.00    +0.072 A 
ATOM     11  C   UNL     1      -5.376  -1.038  -0.696  0.00  0.00    +0.027 A 
ATOM     12  C   UNL     1      -6.006   0.118  -1.118  0.00  0.00    +0.002 A 
ATOM     13  C   UNL     1      -5.525   0.811  -2.213  0.00  0.00    +0.004 A 
ATOM     14  C   UNL     1      -4.410   0.353  -2.891  0.00  0.00    +0.047 A 
ATOM     15  C   UNL     1      -3.770  -0.802  -2.471  0.00  0.00    +0.138 A 
BRANCH  15  16
ATOM     16  O   UNL     1      -2.671  -1.251  -3.134  0.00  0.00    -0.505 OA
ATOM     17  H   UNL     1      -2.873  -1.797  -3.906  0.00  0.00    +0.292 HD
ENDBRANCH  15  16
ENDBRANCH   9  10
BRANCH   7  18
ATOM     18  C   UNL     1      -3.020  -6.331  -0.885  0.00  0.00    -0.001 A 
ATOM     19  C   UNL     1      -2.077  -6.414  -1.892  0.00  0.00    +0.007 A 
ATOM     20  C   UNL     1      -1.706  -7.647  -2.393  0.00  0.00    +0.001 A 
ATOM     21  C   UNL     1      -2.276  -8.802  -1.888  0.00  0.00    +0.004 A 
ATOM     22  C   UNL     1      -3.218  -8.725  -0.880  0.00  0.00    +0.046 A 
ATOM     23  C   UNL     1      -3.588  -7.488  -0.372  0.00  0.00    +0.120 A 
BRANCH  23  24
ATOM     24  O   UNL     1      -4.511  -7.410   0.623  0.00  0.00    -0.506 OA
ATOM     25  H   UNL     1      -5.423  -7.337   0.309  0.00  0.00    +0.292 HD
ENDBRANCH  23  24
ENDBRANCH   7  18
BRANCH   1  27
ATOM     26  C   UNL     1      -0.449   1.497   0.854  0.00  0.00    +0.194 C 
ATOM     27  O   UNL     1      -0.342   0.076   0.739  0.00  0.00    -0.380 OA
ENDBRANCH   1  27
TORSDOF 5
