REMARK  Name = ZINC66952598
REMARK  5 active torsions:
REMARK  status: ('A' for Active; 'I' for Inactive)
REMARK    1  A    between atoms: C_10  and  C_11
REMARK    2  A    between atoms: C_10  and  O_29
REMARK    3  A    between atoms: C_11  and  N_12
REMARK    4  A    between atoms: N_15  and  C_16
REMARK    5  A    between atoms: C_18  and  N_23
REMARK                            x       y       z     vdW  Elec       q    Type
REMARK                         _______ _______ _______ _____ _____    ______ ____
ROOT
ATOM      1  N   UNL     1       4.748   1.474  -0.613  0.00  0.00    -0.296 N 
ATOM      2  C   UNL     1       5.424   2.342  -1.391  0.00  0.00    +0.304 C 
ATOM      3  O   UNL     1       5.987   1.948  -2.394  0.00  0.00    -0.253 OA
ATOM      4  N   UNL     1       5.475   3.647  -1.058  0.00  0.00    -0.267 N 
ATOM      5  H   UNL     1       4.299   1.788   0.187  0.00  0.00    +0.150 HD
ATOM      6  H   UNL     1       5.081   3.950  -0.225  0.00  0.00    +0.156 HD
ENDROOT
BRANCH   4   7
ATOM      7  C   UNL     1       6.098   4.564  -1.914  0.00  0.00    +0.072 A 
ATOM      8  C   UNL     1       7.210   4.183  -2.650  0.00  0.00    +0.049 A 
ATOM      9  C   UNL     1       7.824   5.095  -3.497  0.00  0.00    +0.041 A 
ATOM     10  C   UNL     1       7.323   6.385  -3.607  0.00  0.00    +0.026 A 
ATOM     11  C   UNL     1       6.215   6.764  -2.874  0.00  0.00    +0.042 A 
ATOM     12  C   UNL     1       5.597   5.856  -2.032  0.00  0.00    +0.145 A 
ATOM     13  F   UNL     1       4.510   6.227  -1.321  0.00  0.00    -0.204 F 
BRANCH   9  14
ATOM     14  N   UNL     1       8.948   4.713  -4.240  0.00  0.00    -0.234 N 
ATOM     15  C   UNL     1       9.706   5.570  -5.174  0.00  0.00    +0.158 C 
ATOM     16  C   UNL     1      11.007   4.758  -5.380  0.00  0.00    +0.253 C 
ATOM     17  O   UNL     1      10.575   3.417  -5.073  0.00  0.00    -0.448 OA
ATOM     18  C   UNL     1       9.534   3.501  -4.228  0.00  0.00    +0.407 C 
ATOM     19  O   UNL     1       9.159   2.580  -3.529  0.00  0.00    -0.226 OA
ENDBRANCH   9  14
ENDBRANCH   4   7
BRANCH   1  20
ATOM     20  C   UNL     1       4.693   0.055  -0.975  0.00  0.00    +0.145 C 
BRANCH  20  30
ATOM     21  C   UNL     1       3.603  -4.788  -1.192  0.00  0.00    +0.000 A 
ATOM     22  C   UNL     1       3.575  -3.777  -2.134  0.00  0.00    +0.000 A 
ATOM     23  C   UNL     1       3.631  -2.460  -1.727  0.00  0.00    +0.007 A 
ATOM     24  C   UNL     1       3.719  -2.142  -0.378  0.00  0.00    -0.011 A 
ATOM     25  C   UNL     1       3.752  -3.149   0.560  0.00  0.00    -0.041 A 
ATOM     26  C   UNL     1       3.691  -4.474   0.148  0.00  0.00    +0.004 A 
ATOM     27  C   UNL     1       3.863  -2.878   2.037  0.00  0.00    +0.035 C 
ATOM     28  C   UNL     1       3.489  -1.429   2.347  0.00  0.00    +0.008 C 
ATOM     29  C   UNL     1       4.296  -0.513   1.420  0.00  0.00    +0.041 C 
ATOM     30  C   UNL     1       3.769  -0.683  -0.004  0.00  0.00    +0.107 C 
BRANCH  30  31
ATOM     31  O   UNL     1       2.455  -0.129  -0.090  0.00  0.00    -0.382 OA
ATOM     32  H   UNL     1       2.062  -0.185  -0.971  0.00  0.00    +0.211 HD
ENDBRANCH  30  31
ENDBRANCH  20  30
ENDBRANCH   1  20
TORSDOF 5
