REMARK  Name = ZINC39855987
REMARK  7 active torsions:
REMARK  status: ('A' for Active; 'I' for Inactive)
REMARK    1  A    between atoms: C_1  and  C_2
REMARK    2  A    between atoms: C_6  and  C_7
REMARK    3  A    between atoms: N_9  and  N_10
REMARK    4  A    between atoms: N_10  and  C_11
REMARK    5  A    between atoms: C_18  and  C_26
REMARK    6  A    between atoms: C_18  and  C_27
REMARK    7  A    between atoms: N_21  and  N_22
REMARK                            x       y       z     vdW  Elec       q    Type
REMARK                         _______ _______ _______ _____ _____    ______ ____
ROOT
ATOM      1  C   UNL     1      -0.018   1.503   0.010  0.00  0.00    +0.048 C 
ATOM      2  C   UNL     1       0.002  -0.004   0.002  0.00  0.00    +0.009 A 
ATOM      3  C   UNL     1       0.008  -0.838  -1.123  0.00  0.00    +0.043 A 
ATOM      4  C   UNL     1       0.026  -2.137  -0.673  0.00  0.00    +0.116 A 
ATOM      5  O   UNL     1       0.034  -2.112   0.658  0.00  0.00    -0.454 OA
ATOM      6  C   UNL     1       0.024  -0.830   1.091  0.00  0.00    +0.194 A 
ATOM      7  C   UNL     1       0.033  -3.326  -1.600  0.00  0.00    +0.081 C 
ATOM      8  C   UNL     1      -0.492  -2.902  -2.974  0.00  0.00    -0.023 C 
ATOM      9  C   UNL     1       0.279  -1.685  -3.495  0.00  0.00    +0.064 C 
ATOM     10  C   UNL     1       0.001  -0.512  -2.566  0.00  0.00    +0.073 C 
ATOM     11  N   UNL     1      -0.227   0.686  -3.008  0.00  0.00    -0.175 NA
ATOM     12  C   UNL     1      -0.325  -4.063  -3.957  0.00  0.00    +0.011 C 
ATOM     13  C   UNL     1      -1.976  -2.548  -2.861  0.00  0.00    +0.011 C 
ENDROOT
BRANCH  11  14
ATOM     14  N   UNL     1      -0.222   0.938  -4.386  0.00  0.00    -0.248 N 
ATOM     15  C   UNL     1      -0.462   2.203  -4.852  0.00  0.00    +0.187 C 
ATOM     16  N   UNL     1      -0.458   2.442  -6.163  0.00  0.00    -0.370 N 
ATOM     17  N   UNL     1      -0.701   3.194  -3.994  0.00  0.00    -0.370 N 
ATOM     18  H   UNL     1      -0.048   0.216  -5.010  0.00  0.00    +0.192 HD
ATOM     19  H   UNL     1      -0.283   1.720  -6.787  0.00  0.00    +0.159 HD
ATOM     20  H   UNL     1      -0.705   3.020  -3.040  0.00  0.00    +0.159 HD
ATOM     21  H   UNL     1      -0.872   4.090  -4.324  0.00  0.00    +0.159 HD
ATOM     22  H   UNL     1      -0.628   3.338  -6.493  0.00  0.00    +0.159 HD
ENDBRANCH  11  14
BRANCH   6  23
ATOM     23  C   UNL     1       0.032  -0.400   2.494  0.00  0.00    +0.296 C 
ATOM     24  O   UNL     1       0.018   0.786   2.766  0.00  0.00    -0.265 OA
ATOM     25  N   UNL     1       0.054  -1.317   3.480  0.00  0.00    -0.230 N 
ATOM     26  H   UNL     1       0.065  -2.263   3.263  0.00  0.00    +0.173 HD
BRANCH  25  27
ATOM     27  N   UNL     1       0.061  -0.906   4.819  0.00  0.00    -0.264 N 
ATOM     28  H   UNL     1       0.050   0.039   5.037  0.00  0.00    +0.170 HD
BRANCH  27  29
ATOM     29  C   UNL     1       0.084  -1.857   5.842  0.00  0.00    +0.044 A 
ATOM     30  C   UNL     1       0.106  -3.211   5.533  0.00  0.00    +0.024 A 
ATOM     31  C   UNL     1       0.129  -4.149   6.546  0.00  0.00    +0.002 A 
ATOM     32  C   UNL     1       0.131  -3.741   7.868  0.00  0.00    +0.000 A 
ATOM     33  C   UNL     1       0.109  -2.394   8.179  0.00  0.00    +0.002 A 
ATOM     34  C   UNL     1       0.091  -1.451   7.170  0.00  0.00    +0.024 A 
ENDBRANCH  27  29
ENDBRANCH  25  27
ENDBRANCH   6  23
TORSDOF 4
