REMARK  Name = ZINC62926110
REMARK  6 active torsions:
REMARK  status: ('A' for Active; 'I' for Inactive)
REMARK    1  A    between atoms: C_1  and  C_2
REMARK    2  A    between atoms: C_2  and  C_3
REMARK    3  A    between atoms: C_3  and  N_4
REMARK    4  A    between atoms: N_4  and  C_5
REMARK    5  A    between atoms: C_16  and  C_18
REMARK    6  A    between atoms: C_16  and  C_19
REMARK                            x       y       z     vdW  Elec       q    Type
REMARK                         _______ _______ _______ _____ _____    ______ ____
ROOT
ATOM      1  N   UNL     1      -1.527  -1.989  -0.128  0.00  0.00    -0.283 N 
ATOM      2  C   UNL     1      -1.353  -2.561  -1.336  0.00  0.00    +0.305 C 
ATOM      3  O   UNL     1      -1.331  -3.773  -1.437  0.00  0.00    -0.252 OA
ATOM      4  N   UNL     1      -1.204  -1.791  -2.431  0.00  0.00    -0.284 N 
ATOM      5  C   UNL     1      -1.020  -2.250  -3.827  0.00  0.00    +0.110 C 
ATOM      6  C   UNL     1       0.022  -1.255  -4.395  0.00  0.00    +0.038 C 
ATOM      7  C   UNL     1      -0.385   0.083  -3.736  0.00  0.00    +0.086 C 
ATOM      8  C   UNL     1      -1.196  -0.317  -2.486  0.00  0.00    +0.127 C 
ATOM      9  C   UNL     1      -1.256   0.902  -4.690  0.00  0.00    +0.024 C 
ENDROOT
BRANCH   1  10
ATOM     10  C   UNL     1      -1.525  -2.816   1.081  0.00  0.00    +0.074 C 
ATOM     11  C   UNL     1      -0.184  -3.546   1.200  0.00  0.00    +0.003 C 
ATOM     12  C   UNL     1      -0.217  -4.468   2.421  0.00  0.00    -0.081 C 
ATOM     13  N   UNL     1      -1.298  -5.449   2.268  0.00  0.00    +0.379 N 
ATOM     14  C   UNL     1      -2.593  -4.761   2.225  0.00  0.00    -0.081 C 
ATOM     15  C   UNL     1      -2.651  -3.850   0.997  0.00  0.00    +0.003 C 
ATOM     16  H   UNL     1      -1.163  -5.965   1.411  0.00  0.00    -0.086 HD
ATOM     17  H   UNL     1      -1.283  -6.088   3.048  0.00  0.00    -0.086 HD
ENDBRANCH   1  10
BRANCH   7  18
ATOM     18  C   UNL     1       0.841   0.866  -3.341  0.00  0.00    +0.363 C 
ATOM     19  O   UNL     1       1.635   1.226  -4.193  0.00  0.00    -0.246 OA
ATOM     20  O   UNL     1       1.037   1.140  -2.169  0.00  0.00    -0.246 OA
ENDBRANCH   7  18
BRANCH   1  21
ATOM     21  C   UNL     1      -1.719  -0.541  -0.025  0.00  0.00    +0.109 C 
BRANCH  21  23
ATOM     22  C   UNL     1      -0.550   1.652   0.240  0.00  0.00    +0.005 C 
ATOM     23  C   UNL     1      -0.377   0.132   0.272  0.00  0.00    +0.016 C 
ENDBRANCH  21  23
ENDBRANCH   1  21
TORSDOF 4
