REMARK  Name = ZINC36316759
REMARK  6 active torsions:
REMARK  status: ('A' for Active; 'I' for Inactive)
REMARK    1  A    between atoms: C_1  and  O_2
REMARK    2  A    between atoms: O_2  and  C_3
REMARK    3  A    between atoms: C_6  and  S_19
REMARK    4  A    between atoms: C_8  and  C_9
REMARK    5  A    between atoms: N_11  and  C_12
REMARK    6  A    between atoms: S_19  and  N_22
REMARK                            x       y       z     vdW  Elec       q    Type
REMARK                         _______ _______ _______ _____ _____    ______ ____
ROOT
ATOM      1  C   UNL     1       0.647  -0.617   1.025  0.00  0.00    +0.132 A 
ATOM      2  C   UNL     1       1.233   0.139   2.029  0.00  0.00    +0.048 A 
ATOM      3  C   UNL     1       1.869  -0.486   3.083  0.00  0.00    +0.032 A 
ATOM      4  C   UNL     1       1.928  -1.869   3.147  0.00  0.00    +0.106 A 
ATOM      5  C   UNL     1       1.350  -2.635   2.157  0.00  0.00    +0.045 A 
ATOM      6  C   UNL     1       0.699  -2.016   1.088  0.00  0.00    +0.080 A 
ENDROOT
BRANCH   6   7
ATOM      7  C   UNL     1       0.073  -2.830   0.028  0.00  0.00    +0.252 C 
ATOM      8  O   UNL     1      -0.489  -2.287  -0.903  0.00  0.00    -0.270 OA
ATOM      9  N   UNL     1       0.126  -4.175   0.093  0.00  0.00    -0.279 N 
ATOM     10  H   UNL     1       0.629  -4.607   0.800  0.00  0.00    +0.155 HD
BRANCH   9  11
ATOM     11  C   UNL     1      -0.547  -4.948  -0.861  0.00  0.00    +0.069 A 
ATOM     12  C   UNL     1      -0.642  -4.506  -2.173  0.00  0.00    +0.026 A 
ATOM     13  C   UNL     1      -1.306  -5.271  -3.112  0.00  0.00    +0.002 A 
ATOM     14  C   UNL     1      -1.876  -6.477  -2.747  0.00  0.00    +0.003 A 
ATOM     15  C   UNL     1      -1.784  -6.922  -1.442  0.00  0.00    +0.040 A 
ATOM     16  C   UNL     1      -1.116  -6.164  -0.497  0.00  0.00    +0.144 A 
ATOM     17  F   UNL     1      -1.020  -6.601   0.778  0.00  0.00    -0.204 F 
ENDBRANCH   9  11
ENDBRANCH   6   7
BRANCH   4  18
ATOM     18  S   UNL     1       2.744  -2.651   4.498  0.00  0.00    +0.056 S 
ATOM     19  O   UNL     1       3.135  -3.940   4.045  0.00  0.00    -0.153 OA
ATOM     20  O   UNL     1       3.676  -1.709   5.010  0.00  0.00    -0.153 OA
BRANCH  18  21
ATOM     21  N   UNL     1       1.612  -2.889   5.683  0.00  0.00    -0.204 NA
ATOM     22  H   UNL     1       1.696  -3.641   6.290  0.00  0.00    +0.144 HD
ATOM     23  H   UNL     1       0.865  -2.276   5.770  0.00  0.00    +0.144 HD
ENDBRANCH  18  21
ENDBRANCH   4  18
BRANCH   1  25
ATOM     24  C   UNL     1       0.008   1.425  -0.008  0.00  0.00    +0.277 C 
ATOM     25  O   UNL     1       0.021  -0.004  -0.011  0.00  0.00    -0.494 OA
ENDBRANCH   1  25
TORSDOF 5
