REMARK  Name = ZINC05588232
REMARK  6 active torsions:
REMARK  status: ('A' for Active; 'I' for Inactive)
REMARK    1  A    between atoms: C_1  and  C_2
REMARK    2  A    between atoms: C_6  and  N_8
REMARK    3  A    between atoms: N_8  and  C_9
REMARK    4  A    between atoms: C_9  and  C_11
REMARK    5  A    between atoms: N_13  and  C_14
REMARK    6  A    between atoms: C_15  and  C_24
REMARK                            x       y       z     vdW  Elec       q    Type
REMARK                         _______ _______ _______ _____ _____    ______ ____
ROOT
ATOM      1  C   UNL     1       1.059   7.407   0.247  0.00  0.00    +0.270 C 
ATOM      2  O   UNL     1      -0.003   7.997   0.260  0.00  0.00    -0.268 OA
ATOM      3  N   UNL     1       2.213   8.097   0.342  0.00  0.00    -0.274 N 
ATOM      4  H   UNL     1       3.062   7.626   0.331  0.00  0.00    +0.156 HD
ENDROOT
BRANCH   3   5
ATOM      5  C   UNL     1       2.189   9.476   0.454  0.00  0.00    +0.085 A 
ATOM      6  C   UNL     1       3.259  10.351   0.567  0.00  0.00    +0.068 A 
ATOM      7  C   UNL     1       2.963  11.773   0.664  0.00  0.00    -0.023 A 
ATOM      8  C   UNL     1       1.649  12.084   0.651  0.00  0.00    -0.004 A 
ATOM      9  S   UNL     1       0.814  10.528   0.495  0.00  0.00    -0.077 S 
ATOM     10  C   UNL     1       1.028  13.442   0.759  0.00  0.00    +0.043 C 
ATOM     11  C   UNL     1       1.722  14.396  -0.222  0.00  0.00    +0.005 C 
ATOM     12  C   UNL     1       2.907  15.041   0.489  0.00  0.00    +0.001 C 
ATOM     13  C   UNL     1       3.515  14.063   1.492  0.00  0.00    +0.005 C 
ATOM     14  C   UNL     1       4.055  12.831   0.773  0.00  0.00    +0.037 C 
BRANCH   6  15
ATOM     15  C   UNL     1       4.641   9.861   0.583  0.00  0.00    +0.244 C 
ATOM     16  O   UNL     1       5.256   9.742  -0.460  0.00  0.00    -0.270 OA
ATOM     17  N   UNL     1       5.229   9.542   1.753  0.00  0.00    -0.325 N 
ATOM     18  H   UNL     1       4.738   9.637   2.584  0.00  0.00    +0.145 HD
ATOM     19  H   UNL     1       6.143   9.217   1.764  0.00  0.00    +0.145 HD
ENDBRANCH   6  15
ENDBRANCH   3   5
BRANCH   1  20
ATOM     20  C   UNL     1       1.085   5.928   0.126  0.00  0.00    +0.139 C 
ATOM     21  S   UNL     1       2.582   5.098   0.108  0.00  0.00    -0.030 S 
BRANCH  20  22
ATOM     22  N   UNL     1      -0.069   5.239   0.031  0.00  0.00    -0.305 N 
ATOM     23  H   UNL     1      -0.912   5.713  -0.038  0.00  0.00    +0.153 HD
BRANCH  22  29
ATOM     24  C   UNL     1      -1.722   0.985  -1.791  0.00  0.00    +0.044 C 
ATOM     25  C   UNL     1      -0.842   1.754  -0.840  0.00  0.00    -0.049 A 
ATOM     26  C   UNL     1      -0.016   1.076   0.038  0.00  0.00    +0.003 A 
ATOM     27  C   UNL     1       0.797   1.777   0.909  0.00  0.00    +0.002 A 
ATOM     28  C   UNL     1       0.782   3.158   0.910  0.00  0.00    +0.023 A 
ATOM     29  C   UNL     1      -0.051   3.843   0.033  0.00  0.00    +0.032 A 
ATOM     30  C   UNL     1      -0.867   3.134  -0.841  0.00  0.00    +0.026 A 
ENDBRANCH  22  29
ENDBRANCH  20  22
ENDBRANCH   1  20
TORSDOF 5
