REMARK  Name = ZINC39657011
REMARK  6 active torsions:
REMARK  status: ('A' for Active; 'I' for Inactive)
REMARK    1  A    between atoms: C_1  and  C_2
REMARK    2  A    between atoms: C_2  and  C_4
REMARK    3  A    between atoms: C_2  and  N_11
REMARK    4  A    between atoms: C_12  and  C_14
REMARK    5  A    between atoms: C_25  and  C_27
REMARK    6  A    between atoms: C_33  and  C_35
REMARK                            x       y       z     vdW  Elec       q    Type
REMARK                         _______ _______ _______ _____ _____    ______ ____
ROOT
ATOM      1  C   UNL     1      -3.468  -1.220  -1.235  0.00  0.00    +0.100 C 
ATOM      2  C   UNL     1      -3.494  -2.703  -0.802  0.00  0.00    +0.121 C 
ATOM      3  N   UNL     1      -4.570  -3.312  -1.618  0.00  0.00    -0.300 N 
ATOM      4  C   UNL     1      -4.423  -2.682  -2.952  0.00  0.00    +0.115 C 
ATOM      5  C   UNL     1      -4.077  -1.210  -2.647  0.00  0.00    -0.004 C 
ATOM      6  C   UNL     1      -5.341  -0.356  -2.671  0.00  0.00    -0.010 C 
ATOM      7  C   UNL     1      -5.897  -0.316  -4.098  0.00  0.00    -0.082 C 
ATOM      8  N   UNL     1      -4.886   0.244  -5.003  0.00  0.00    +0.379 N 
ATOM      9  C   UNL     1      -3.710  -0.634  -5.045  0.00  0.00    -0.082 C 
ATOM     10  C   UNL     1      -3.062  -0.688  -3.659  0.00  0.00    -0.010 C 
ATOM     11  C   UNL     1      -5.477  -4.233  -1.235  0.00  0.00    +0.219 C 
ATOM     12  O   UNL     1      -6.301  -4.638  -2.027  0.00  0.00    -0.275 OA
ATOM     13  H   UNL     1      -5.276   0.326  -5.931  0.00  0.00    -0.086 HD
ATOM     14  H   UNL     1      -4.611   1.157  -4.675  0.00  0.00    -0.086 HD
ENDROOT
BRANCH  11  15
ATOM     15  C   UNL     1      -5.467  -4.758   0.177  0.00  0.00    +0.078 C 
ATOM     16  C   UNL     1      -4.119  -5.424   0.464  0.00  0.00    +0.032 C 
ATOM     17  C   UNL     1      -4.099  -5.926   1.911  0.00  0.00    +0.108 C 
ATOM     18  N   UNL     1      -5.261  -6.800   2.124  0.00  0.00    -0.302 N 
ATOM     19  C   UNL     1      -6.599  -6.290   1.793  0.00  0.00    +0.108 C 
ATOM     20  C   UNL     1      -6.590  -5.784   0.347  0.00  0.00    +0.032 C 
ATOM     21  C   UNL     1      -5.103  -8.046   2.612  0.00  0.00    +0.212 C 
ATOM     22  O   UNL     1      -6.055  -8.794   2.687  0.00  0.00    -0.276 OA
ATOM     23  C   UNL     1      -3.743  -8.511   3.066  0.00  0.00    +0.109 C 
ENDBRANCH  11  15
BRANCH   1  25
ATOM     24  N   UNL     1      -1.809   0.615  -1.211  0.00  0.00    -0.308 N 
ATOM     25  C   UNL     1      -2.050  -0.709  -1.272  0.00  0.00    +0.219 C 
ATOM     26  O   UNL     1      -1.126  -1.490  -1.358  0.00  0.00    -0.275 OA
ATOM     27  H   UNL     1      -2.548   1.240  -1.143  0.00  0.00    +0.149 HD
BRANCH  24  29
ATOM     28  C   UNL     1       0.025   1.245  -2.701  0.00  0.00    +0.033 C 
ATOM     29  C   UNL     1      -0.431   1.112  -1.247  0.00  0.00    +0.100 C 
BRANCH  29  30
ATOM     30  C   UNL     1      -0.365   2.458  -0.574  0.00  0.00    -0.027 A 
ATOM     31  C   UNL     1      -1.379   3.378  -0.766  0.00  0.00    +0.006 A 
ATOM     32  C   UNL     1      -1.319   4.613  -0.149  0.00  0.00    +0.015 A 
ATOM     33  C   UNL     1      -0.243   4.929   0.661  0.00  0.00    +0.018 A 
ATOM     34  C   UNL     1       0.772   4.009   0.853  0.00  0.00    +0.015 A 
ATOM     35  C   UNL     1       0.708   2.772   0.240  0.00  0.00    +0.006 A 
ATOM     36 BR   UNL     1      -0.160   6.619   1.506  0.00  0.00    -0.050 Br
ENDBRANCH  29  30
ENDBRANCH  24  29
ENDBRANCH   1  25
TORSDOF 4
