REMARK  Name = ZINC63572496
REMARK  5 active torsions:
REMARK  status: ('A' for Active; 'I' for Inactive)
REMARK    1  A    between atoms: C_1  and  C_2
REMARK    2  A    between atoms: C_2  and  O_3
REMARK    3  A    between atoms: O_3  and  C_4
REMARK    4  A    between atoms: C_7  and  N_10
REMARK    5  A    between atoms: C_26  and  C_28
REMARK                            x       y       z     vdW  Elec       q    Type
REMARK                         _______ _______ _______ _____ _____    ______ ____
ROOT
ATOM      1  N   UNL     1       1.641  -5.472  -2.132  0.00  0.00    -0.269 N 
ATOM      2  C   UNL     1       1.950  -6.191  -3.230  0.00  0.00    +0.307 C 
ATOM      3  O   UNL     1       2.308  -5.626  -4.245  0.00  0.00    -0.252 OA
ATOM      4  N   UNL     1       1.862  -7.535  -3.201  0.00  0.00    -0.276 N 
ATOM      5  C   UNL     1       1.294  -8.200  -2.024  0.00  0.00    +0.114 C 
ATOM      6  C   UNL     1       0.091  -9.061  -2.451  0.00  0.00    +0.052 C 
ATOM      7  C   UNL     1       0.519  -9.820  -3.683  0.00  0.00    -0.035 C 
ATOM      8  C   UNL     1       0.474 -11.114  -3.977  0.00  0.00    +0.001 A 
ATOM      9  C   UNL     1      -0.104 -12.261  -3.260  0.00  0.00    +0.030 A 
ATOM     10  C   UNL     1       0.051 -13.477  -3.850  0.00  0.00    +0.042 A 
ATOM     11  C   UNL     1       0.717 -13.662  -5.067  0.00  0.00    +0.022 A 
ATOM     12  C   UNL     1       1.271 -12.663  -5.798  0.00  0.00    +0.027 A 
ATOM     13  C   UNL     1       1.164 -11.337  -5.284  0.00  0.00    +0.043 A 
ATOM     14  N   UNL     1       1.577 -10.208  -5.779  0.00  0.00    -0.375 N 
ATOM     15  C   UNL     1       1.149  -9.130  -4.887  0.00  0.00    +0.131 C 
ATOM     16  C   UNL     1       2.330  -8.320  -4.355  0.00  0.00    +0.134 C 
ATOM     17 CL   UNL     1      -0.610 -14.870  -3.052  0.00  0.00    -0.084 Cl
ATOM     18  H   UNL     1       1.429  -5.923  -1.301  0.00  0.00    +0.156 HD
ATOM     19  H   UNL     1       2.082 -10.099  -6.600  0.00  0.00    +0.160 HD
ENDROOT
BRANCH  16  20
ATOM     20  C   UNL     1       3.431  -9.254  -3.923  0.00  0.00    -0.025 A 
ATOM     21  C   UNL     1       4.725  -9.046  -4.363  0.00  0.00    +0.008 A 
ATOM     22  C   UNL     1       5.736  -9.901  -3.968  0.00  0.00    +0.038 A 
ATOM     23  C   UNL     1       5.452 -10.967  -3.131  0.00  0.00    +0.123 A 
ATOM     24  C   UNL     1       4.156 -11.175  -2.691  0.00  0.00    +0.038 A 
ATOM     25  C   UNL     1       3.148 -10.315  -3.083  0.00  0.00    +0.008 A 
ATOM     26  F   UNL     1       6.440 -11.804  -2.744  0.00  0.00    -0.205 F 
ENDBRANCH  16  20
BRANCH   1  30
ATOM     27  C   UNL     1       1.600  -1.306  -2.312  0.00  0.00    +0.121 A 
ATOM     28  C   UNL     1       0.715  -1.972  -1.477  0.00  0.00    +0.047 A 
ATOM     29  C   UNL     1       0.728  -3.352  -1.417  0.00  0.00    +0.027 A 
ATOM     30  C   UNL     1       1.627  -4.072  -2.193  0.00  0.00    +0.035 A 
ATOM     31  C   UNL     1       2.512  -3.404  -3.028  0.00  0.00    +0.027 A 
ATOM     32  C   UNL     1       2.495  -2.024  -3.091  0.00  0.00    +0.047 A 
BRANCH  27  33
ATOM     33  O   UNL     1       1.587   0.053  -2.370  0.00  0.00    -0.492 OA
BRANCH  33  35
ATOM     34  C   UNL     1       0.772   2.240  -1.741  0.00  0.00    +0.048 C 
ATOM     35  C   UNL     1       0.639   0.729  -1.541  0.00  0.00    +0.225 C 
ENDBRANCH  33  35
ENDBRANCH  27  33
ENDBRANCH   1  30
TORSDOF 4
