REMARK  Name = ZINC43317057
REMARK  2 active torsions:
REMARK  status: ('A' for Active; 'I' for Inactive)
REMARK    1  A    between atoms: C_3  and  N_9
REMARK    2  A    between atoms: C_16  and  O_19
REMARK                            x       y       z     vdW  Elec       q    Type
REMARK                         _______ _______ _______ _____ _____    ______ ____
ROOT
ATOM      1  N   UNL     1       3.584   2.126  -0.032  0.00  0.00    -0.268 N 
ATOM      2  C   UNL     1       3.568   3.471  -0.116  0.00  0.00    +0.307 C 
ATOM      3  O   UNL     1       2.510   4.069  -0.094  0.00  0.00    -0.252 OA
ATOM      4  N   UNL     1       4.726   4.152  -0.225  0.00  0.00    -0.283 N 
ATOM      5  C   UNL     1       6.004   3.441  -0.359  0.00  0.00    +0.109 C 
ATOM      6  C   UNL     1       6.733   3.964  -1.600  0.00  0.00    +0.022 C 
ATOM      7  C   UNL     1       6.868   5.486  -1.504  0.00  0.00    +0.034 C 
ATOM      8  C   UNL     1       5.476   6.121  -1.457  0.00  0.00    +0.132 C 
ATOM      9  C   UNL     1       4.732   5.622  -0.220  0.00  0.00    +0.140 C 
ATOM     10  H   UNL     1       4.429   1.651  -0.009  0.00  0.00    +0.156 HD
ENDROOT
BRANCH   1  13
ATOM     11  C   UNL     1       0.041   1.326   0.547  0.00  0.00    +0.017 A 
ATOM     12  C   UNL     1       1.228   2.031   0.493  0.00  0.00    +0.025 A 
ATOM     13  C   UNL     1       2.379   1.414   0.024  0.00  0.00    +0.049 A 
ATOM     14  C   UNL     1       2.334   0.088  -0.391  0.00  0.00    +0.040 A 
ATOM     15  C   UNL     1       1.144  -0.611  -0.335  0.00  0.00    +0.032 A 
ATOM     16  C   UNL     1      -0.002   0.007   0.133  0.00  0.00    +0.019 A 
ATOM     17 BR   UNL     1      -1.629  -0.954   0.208  0.00  0.00    -0.050 Br
ATOM     18 BR   UNL     1       3.900  -0.757  -1.032  0.00  0.00    -0.048 Br
ENDBRANCH   1  13
BRANCH   8  19
ATOM     19  O   UNL     1       5.603   7.543  -1.398  0.00  0.00    -0.390 OA
ATOM     20  H   UNL     1       4.758   8.012  -1.366  0.00  0.00    +0.210 HD
ENDBRANCH   8  19
TORSDOF 2
