REMARK  Name = ZINC39685162
REMARK  8 active torsions:
REMARK  status: ('A' for Active; 'I' for Inactive)
REMARK    1  A    between atoms: C_1  and  O_2
REMARK    2  A    between atoms: O_2  and  C_3
REMARK    3  A    between atoms: C_4  and  C_9
REMARK    4  A    between atoms: C_13  and  C_22
REMARK    5  A    between atoms: N_24  and  C_25
REMARK    6  A    between atoms: C_25  and  C_26
REMARK    7  A    between atoms: C_26  and  O_27
REMARK    8  A    between atoms: O_27  and  C_28
REMARK                            x       y       z     vdW  Elec       q    Type
REMARK                         _______ _______ _______ _____ _____    ______ ____
ROOT
ATOM      1  C   UNL     1      -1.280  -0.698   2.560  0.00  0.00    +0.251 C 
ATOM      2  O   UNL     1      -1.797  -0.875   1.474  0.00  0.00    -0.270 OA
ATOM      3  N   UNL     1      -1.891  -1.139   3.678  0.00  0.00    -0.296 N 
ATOM      4  C   UNL     1      -3.136  -1.935   3.778  0.00  0.00    +0.121 C 
ATOM      5  C   UNL     1      -2.866  -2.941   4.919  0.00  0.00    +0.100 C 
ATOM      6  C   UNL     1      -1.772  -2.280   5.774  0.00  0.00    -0.004 C 
ATOM      7  C   UNL     1      -1.464  -0.943   5.084  0.00  0.00    +0.115 C 
ATOM      8  C   UNL     1      -2.282  -2.039   7.191  0.00  0.00    -0.010 C 
ATOM      9  C   UNL     1      -1.158  -1.435   8.038  0.00  0.00    -0.082 C 
ATOM     10  N   UNL     1      -0.012  -2.351   8.058  0.00  0.00    +0.379 N 
ATOM     11  C   UNL     1       0.531  -2.505   6.703  0.00  0.00    -0.082 C 
ATOM     12  C   UNL     1      -0.522  -3.154   5.800  0.00  0.00    -0.010 C 
ATOM     13  H   UNL     1       0.704  -1.980   8.665  0.00  0.00    -0.086 HD
ATOM     14  H   UNL     1      -0.308  -3.252   8.404  0.00  0.00    -0.086 HD
ENDROOT
BRANCH   1  16
ATOM     15  C   UNL     1       1.033  -0.162   1.643  0.00  0.00    +0.158 A 
ATOM     16  C   UNL     1       0.013  -0.003   2.654  0.00  0.00    +0.087 A 
ATOM     17  C   UNL     1       0.309   0.830   3.711  0.00  0.00    +0.063 A 
ATOM     18  S   UNL     1       1.861   1.378   3.384  0.00  0.00    -0.081 S 
ATOM     19  C   UNL     1       2.176   0.529   1.852  0.00  0.00    +0.120 A 
ATOM     20 CL   UNL     1       3.604   0.577   0.866  0.00  0.00    -0.072 Cl
BRANCH  15  22
ATOM     21  C   UNL     1       1.251  -2.326   0.678  0.00  0.00    +0.277 C 
ATOM     22  O   UNL     1       0.856  -0.958   0.553  0.00  0.00    -0.492 OA
ENDBRANCH  15  22
ENDBRANCH   1  16
BRANCH   5  23
ATOM     23  C   UNL     1      -2.378  -4.252   4.359  0.00  0.00    +0.218 C 
ATOM     24  O   UNL     1      -1.672  -4.264   3.372  0.00  0.00    -0.275 OA
ATOM     25  N   UNL     1      -2.724  -5.410   4.954  0.00  0.00    -0.312 N 
ATOM     26  H   UNL     1      -3.289  -5.400   5.742  0.00  0.00    +0.149 HD
BRANCH  25  27
ATOM     27  C   UNL     1      -2.249  -6.684   4.409  0.00  0.00    +0.145 C 
BRANCH  27  28
ATOM     28  C   UNL     1      -2.783  -7.835   5.264  0.00  0.00    +0.248 C 
BRANCH  28  29
ATOM     29  O   UNL     1      -4.207  -7.887   5.159  0.00  0.00    -0.488 OA
BRANCH  29  30
ATOM     30  C   UNL     1      -4.843  -8.860   5.863  0.00  0.00    +0.156 A 
ATOM     31  C   UNL     1      -4.112  -9.743   6.644  0.00  0.00    +0.048 A 
ATOM     32  C   UNL     1      -4.761 -10.732   7.359  0.00  0.00    +0.004 A 
ATOM     33  C   UNL     1      -6.138 -10.842   7.297  0.00  0.00    +0.003 A 
ATOM     34  C   UNL     1      -6.870  -9.964   6.520  0.00  0.00    +0.042 A 
ATOM     35  C   UNL     1      -6.227  -8.969   5.807  0.00  0.00    +0.165 A 
ATOM     36  F   UNL     1      -6.943  -8.107   5.052  0.00  0.00    -0.202 F 
ENDBRANCH  29  30
ENDBRANCH  28  29
ENDBRANCH  27  28
ENDBRANCH  25  27
ENDBRANCH   5  23
TORSDOF 7
