REMARK  Name = ZINC62243084
REMARK  4 active torsions:
REMARK  status: ('A' for Active; 'I' for Inactive)
REMARK    1  A    between atoms: C_3  and  C_8
REMARK    2  A    between atoms: N_10  and  C_11
REMARK    3  A    between atoms: C_11  and  C_12
REMARK    4  A    between atoms: N_13  and  O_14
REMARK                            x       y       z     vdW  Elec       q    Type
REMARK                         _______ _______ _______ _____ _____    ______ ____
ROOT
ATOM      1  C   UNL     1       3.587   1.931  -1.206  0.00  0.00    +0.219 C 
ATOM      2  O   UNL     1       3.993   2.632  -0.303  0.00  0.00    -0.275 OA
ATOM      3  N   UNL     1       4.424   1.552  -2.193  0.00  0.00    -0.308 N 
ATOM      4  H   UNL     1       4.099   0.991  -2.915  0.00  0.00    +0.149 HD
ENDROOT
BRANCH   1   7
ATOM      5  C   UNL     1      -0.019   1.527   0.010  0.00  0.00    +0.029 C 
ATOM      6  C   UNL     1       1.421   2.049  -0.001  0.00  0.00    +0.017 C 
ATOM      7  C   UNL     1       2.148   1.484  -1.225  0.00  0.00    +0.101 C 
ATOM      8  C   UNL     1       2.085  -0.045  -1.185  0.00  0.00    +0.172 C 
ATOM      9  O   UNL     1       0.720  -0.463  -1.145  0.00  0.00    -0.379 OA
ATOM     10  C   UNL     1       0.002  -0.004   0.002  0.00  0.00    +0.160 C 
ENDBRANCH   1   7
BRANCH   3  11
ATOM     11  C   UNL     1       5.823   1.986  -2.175  0.00  0.00    +0.178 C 
BRANCH  11  12
ATOM     12  C   UNL     1       6.537   1.429  -3.379  0.00  0.00    +0.149 C 
ATOM     13  N   UNL     1       5.897   0.693  -4.227  0.00  0.00    -0.075 NA
ATOM     14  N   UNL     1       7.872   1.706  -3.577  0.00  0.00    -0.343 N 
ATOM     15  H   UNL     1       8.352   2.259  -2.941  0.00  0.00    +0.144 HD
ATOM     16  H   UNL     1       8.331   1.348  -4.353  0.00  0.00    +0.144 HD
BRANCH  13  17
ATOM     17  O   UNL     1       6.569   0.171  -5.359  0.00  0.00    -0.408 OA
ATOM     18  H   UNL     1       6.008  -0.367  -5.934  0.00  0.00    +0.328 HD
ENDBRANCH  13  17
ENDBRANCH  11  12
ENDBRANCH   3  11
TORSDOF 4
