REMARK  Name = ZINC36949025
REMARK  4 active torsions:
REMARK  status: ('A' for Active; 'I' for Inactive)
REMARK    1  A    between atoms: C_1  and  C_2
REMARK    2  A    between atoms: C_2  and  N_3
REMARK    3  A    between atoms: N_6  and  C_7
REMARK    4  A    between atoms: C_10  and  C_14
REMARK                            x       y       z     vdW  Elec       q    Type
REMARK                         _______ _______ _______ _____ _____    ______ ____
ROOT
ATOM      1  N   UNL     1       1.250  -0.444  -1.049  0.00  0.00    -0.299 N 
ATOM      2  C   UNL     1       1.399  -1.765  -1.272  0.00  0.00    +0.304 C 
ATOM      3  O   UNL     1       1.480  -2.534  -0.333  0.00  0.00    -0.253 OA
ATOM      4  N   UNL     1       1.458  -2.233  -2.534  0.00  0.00    -0.268 N 
ATOM      5  H   UNL     1       1.185   0.170  -1.798  0.00  0.00    +0.150 HD
ATOM      6  H   UNL     1       1.327  -1.630  -3.282  0.00  0.00    +0.156 HD
ENDROOT
BRANCH   4   7
ATOM      7  C   UNL     1       1.707  -3.591  -2.765  0.00  0.00    +0.049 A 
ATOM      8  C   UNL     1       1.210  -4.549  -1.891  0.00  0.00    +0.025 A 
ATOM      9  C   UNL     1       1.457  -5.888  -2.123  0.00  0.00    +0.005 A 
ATOM     10  C   UNL     1       2.198  -6.276  -3.224  0.00  0.00    -0.049 A 
ATOM     11  C   UNL     1       2.695  -5.325  -4.096  0.00  0.00    +0.020 A 
ATOM     12  C   UNL     1       2.447  -3.984  -3.874  0.00  0.00    +0.039 A 
ATOM     13 BR   UNL     1       3.120  -2.685  -5.072  0.00  0.00    -0.048 Br
ATOM     14  C   UNL     1       2.466  -7.738  -3.472  0.00  0.00    +0.044 C 
ENDBRANCH   4   7
BRANCH   1  16
ATOM     15  C   UNL     1       1.015   1.586   0.295  0.00  0.00    +0.024 C 
ATOM     16  C   UNL     1       1.186   0.066   0.323  0.00  0.00    +0.102 C 
ENDBRANCH   1  16
TORSDOF 2
