REMARK  Name = ZINC67279982
REMARK  9 active torsions:
REMARK  status: ('A' for Active; 'I' for Inactive)
REMARK    1  A    between atoms: C_1  and  C_2
REMARK    2  A    between atoms: C_5  and  N_13
REMARK    3  A    between atoms: C_6  and  C_12
REMARK    4  A    between atoms: C_7  and  N_8
REMARK    5  A    between atoms: C_9  and  C_11
REMARK    6  A    between atoms: N_16  and  C_17
REMARK    7  A    between atoms: C_17  and  C_18
REMARK    8  A    between atoms: C_18  and  C_19
REMARK    9  A    between atoms: C_19  and  C_20
REMARK                            x       y       z     vdW  Elec       q    Type
REMARK                         _______ _______ _______ _____ _____    ______ ____
ROOT
ATOM      1  N   UNL     1      -1.068  -3.815  -0.419  0.00  0.00    -0.269 N 
ATOM      2  C   UNL     1      -0.910  -4.453  -1.595  0.00  0.00    +0.304 C 
ATOM      3  O   UNL     1      -0.190  -3.978  -2.453  0.00  0.00    -0.253 OA
ATOM      4  N   UNL     1      -1.549  -5.618  -1.822  0.00  0.00    -0.299 N 
ATOM      5  H   UNL     1      -1.594  -4.222   0.287  0.00  0.00    +0.156 HD
ATOM      6  H   UNL     1      -2.123  -5.997  -1.138  0.00  0.00    +0.150 HD
ENDROOT
BRANCH   1  11
ATOM      7  C   UNL     1       1.353   1.256   0.395  0.00  0.00    +0.045 C 
ATOM      8  C   UNL     1       0.710  -0.090   0.180  0.00  0.00    -0.029 A 
ATOM      9  C   UNL     1       1.272  -0.990  -0.704  0.00  0.00    +0.007 A 
ATOM     10  C   UNL     1       0.685  -2.225  -0.904  0.00  0.00    +0.024 A 
ATOM     11  C   UNL     1      -0.473  -2.564  -0.215  0.00  0.00    +0.039 A 
ATOM     12  C   UNL     1      -1.040  -1.663   0.674  0.00  0.00    -0.008 A 
ATOM     13  C   UNL     1      -0.444  -0.425   0.876  0.00  0.00    +0.041 A 
ATOM     14  C   UNL     1      -2.296  -2.027   1.422  0.00  0.00    +0.047 C 
BRANCH  13  15
ATOM     15  N   UNL     1      -1.009   0.485   1.776  0.00  0.00    -0.285 N 
ATOM     16  C   UNL     1      -1.271   0.106   3.043  0.00  0.00    +0.214 C 
ATOM     17  O   UNL     1      -0.944  -0.998   3.425  0.00  0.00    -0.276 OA
ATOM     18  C   UNL     1      -1.970   1.053   3.984  0.00  0.00    +0.109 C 
ATOM     19  H   UNL     1      -1.212   1.389   1.489  0.00  0.00    +0.155 HD
ENDBRANCH  13  15
ENDBRANCH   1  11
BRANCH   4  20
ATOM     20  C   UNL     1      -1.377  -6.311  -3.100  0.00  0.00    +0.106 C 
BRANCH  20  21
ATOM     21  C   UNL     1      -2.204  -7.598  -3.098  0.00  0.00    +0.026 C 
BRANCH  21  22
ATOM     22  C   UNL     1      -2.025  -8.322  -4.434  0.00  0.00    +0.078 C 
BRANCH  22  23
ATOM     23  C   UNL     1      -2.840  -9.590  -4.432  0.00  0.00    +0.134 A 
ATOM     24  N   UNL     1      -2.442 -10.768  -4.029  0.00  0.00    -0.134 NA
ATOM     25  N   UNL     1      -3.400 -11.618  -4.162  0.00  0.00    -0.134 NA
ATOM     26  C   UNL     1      -4.449 -11.020  -4.649  0.00  0.00    +0.133 A 
ATOM     27  N   UNL     1      -4.121  -9.720  -4.840  0.00  0.00    -0.315 N 
ATOM     28  C   UNL     1      -4.984  -8.677  -5.395  0.00  0.00    +0.125 C 
ATOM     29  C   UNL     1      -6.447  -9.013  -5.093  0.00  0.00    +0.022 C 
ATOM     30  C   UNL     1      -7.021  -9.872  -6.218  0.00  0.00    +0.002 C 
ATOM     31  C   UNL     1      -6.257 -11.188  -6.329  0.00  0.00    +0.008 C 
ATOM     32  C   UNL     1      -5.793 -11.634  -4.944  0.00  0.00    +0.076 C 
ENDBRANCH  22  23
ENDBRANCH  21  22
ENDBRANCH  20  21
ENDBRANCH   4  20
TORSDOF 6
