REMARK  Name = ZINC20733403
REMARK  2 active torsions:
REMARK  status: ('A' for Active; 'I' for Inactive)
REMARK    1  A    between atoms: C_3  and  C_6
REMARK    2  A    between atoms: C_15  and  O_18
REMARK                            x       y       z     vdW  Elec       q    Type
REMARK                         _______ _______ _______ _____ _____    ______ ____
ROOT
ATOM      1  C   UNL     1       3.761   1.845  -0.024  0.00  0.00    +0.118 C 
ATOM      2  C   UNL     1       4.457   1.367   1.214  0.00  0.00    +0.034 A 
ATOM      3  C   UNL     1       3.784   1.069   2.360  0.00  0.00    +0.112 A 
ATOM      4  N   UNL     1       4.679   0.681   3.286  0.00  0.00    -0.282 N 
ATOM      5  H   UNL     1       4.479   0.412   4.196  0.00  0.00    +0.188 HD
ATOM      6  N   UNL     1       5.947   0.735   2.707  0.00  0.00    -0.154 NA
ATOM      7  C   UNL     1       5.821   1.146   1.444  0.00  0.00    +0.182 A 
ATOM      8  N   UNL     1       6.898   1.271   0.637  0.00  0.00    -0.195 NA
ATOM      9  C   UNL     1       7.102   1.619  -0.547  0.00  0.00    +0.199 C 
ATOM     10  C   UNL     1       6.161   2.114  -1.571  0.00  0.00    +0.165 C 
ATOM     11  S   UNL     1       4.565   1.287  -1.530  0.00  0.00    -0.138 S 
ENDROOT
BRANCH   1  14
ATOM     12  C   UNL     1      -0.016   1.351   0.009  0.00  0.00    +0.008 A 
ATOM     13  C   UNL     1       1.183   2.038   0.002  0.00  0.00    +0.012 A 
ATOM     14  C   UNL     1       2.343   1.336  -0.013  0.00  0.00    +0.007 A 
ATOM     15  S   UNL     1       1.754  -0.349  -0.017  0.00  0.00    -0.100 S 
ATOM     16  C   UNL     1       0.002  -0.004   0.002  0.00  0.00    +0.045 A 
ENDBRANCH   1  14
BRANCH   9  17
ATOM     17  O   UNL     1       8.386   1.528  -0.952  0.00  0.00    -0.495 OA
ATOM     18  H   UNL     1       8.991   1.203  -0.271  0.00  0.00    +0.293 HD
ENDBRANCH   9  17
TORSDOF 2
