REMARK  Name = ZINC23950648
REMARK  10 active torsions:
REMARK  status: ('A' for Active; 'I' for Inactive)
REMARK    1  A    between atoms: C_1  and  C_2
REMARK    2  A    between atoms: C_5  and  N_8
REMARK    3  A    between atoms: C_9  and  C_30
REMARK    4  A    between atoms: C_10  and  N_14
REMARK    5  A    between atoms: C_11  and  C_13
REMARK    6  A    between atoms: C_15  and  C_17
REMARK    7  A    between atoms: C_17  and  O_18
REMARK    8  A    between atoms: O_18  and  C_19
REMARK    9  A    between atoms: C_19  and  C_21
REMARK   10  A    between atoms: C_26  and  N_27
REMARK                            x       y       z     vdW  Elec       q    Type
REMARK                         _______ _______ _______ _____ _____    ______ ____
ROOT
ATOM      1  N   UNL     1       1.241  -7.304   1.458  0.00  0.00    -0.280 N 
ATOM      2  C   UNL     1       0.643  -8.511   1.511  0.00  0.00    +0.255 C 
ATOM      3  O   UNL     1      -0.265  -8.771   0.750  0.00  0.00    -0.272 OA
ATOM      4  H   UNL     1       2.021  -7.125   2.007  0.00  0.00    +0.155 HD
ENDROOT
BRANCH   1   7
ATOM      5  N   UNL     1       0.025  -4.377  -0.162  0.00  0.00    -0.235 N 
ATOM      6  C   UNL     1       0.516  -5.006   0.941  0.00  0.00    +0.063 A 
ATOM      7  C   UNL     1       0.735  -6.304   0.608  0.00  0.00    +0.078 A 
ATOM      8  C   UNL     1       0.367  -6.471  -0.736  0.00  0.00    +0.082 A 
ATOM      9  N   UNL     1      -0.062  -5.322  -1.192  0.00  0.00    -0.170 NA
ATOM     10  C   UNL     1       0.447  -7.756  -1.519  0.00  0.00    +0.069 C 
ATOM     11  C   UNL     1       0.771  -4.377   2.286  0.00  0.00    +0.068 C 
BRANCH   5  16
ATOM     12  C   UNL     1      -1.437   1.095  -0.514  0.00  0.00    +0.044 C 
ATOM     13  C   UNL     1      -1.048  -0.357  -0.420  0.00  0.00    -0.050 A 
ATOM     14  C   UNL     1      -0.489  -0.994  -1.513  0.00  0.00    +0.005 A 
ATOM     15  C   UNL     1      -0.133  -2.326  -1.431  0.00  0.00    +0.028 A 
ATOM     16  C   UNL     1      -0.335  -3.025  -0.248  0.00  0.00    +0.066 A 
ATOM     17  C   UNL     1      -0.896  -2.383   0.847  0.00  0.00    +0.028 A 
ATOM     18  C   UNL     1      -1.246  -1.050   0.760  0.00  0.00    +0.005 A 
ENDBRANCH   5  16
ENDBRANCH   1   7
BRANCH   2  19
ATOM     19  C   UNL     1       1.104  -9.537   2.514  0.00  0.00    +0.328 C 
BRANCH  19  20
ATOM     20  O   UNL     1       0.322 -10.725   2.373  0.00  0.00    -0.452 OA
BRANCH  20  21
ATOM     21  C   UNL     1       0.608 -11.748   3.202  0.00  0.00    +0.342 C 
ATOM     22  O   UNL     1       1.498 -11.634   4.022  0.00  0.00    -0.245 OA
BRANCH  21  23
ATOM     23  C   UNL     1      -0.157 -13.003   3.115  0.00  0.00    +0.082 A 
ATOM     24  C   UNL     1      -1.262 -13.096   2.262  0.00  0.00    +0.037 A 
ATOM     25  C   UNL     1      -1.974 -14.273   2.185  0.00  0.00    +0.043 A 
ATOM     26  C   UNL     1      -1.601 -15.369   2.949  0.00  0.00    +0.042 A 
ATOM     27  C   UNL     1      -0.513 -15.293   3.795  0.00  0.00    +0.064 A 
ATOM     28  C   UNL     1       0.221 -14.115   3.882  0.00  0.00    +0.057 A 
ATOM     29 CL   UNL     1      -0.057 -16.672   4.747  0.00  0.00    -0.082 Cl
ATOM     30 CL   UNL     1      -3.344 -14.385   1.125  0.00  0.00    -0.083 Cl
BRANCH  28  31
ATOM     31  N   UNL     1       1.320 -14.039   4.729  0.00  0.00    -0.356 N 
ATOM     32  H   UNL     1       1.770 -13.190   4.864  0.00  0.00    +0.142 HD
ATOM     33  H   UNL     1       1.638 -14.834   5.184  0.00  0.00    +0.142 HD
ENDBRANCH  28  31
ENDBRANCH  21  23
ENDBRANCH  20  21
ENDBRANCH  19  20
ENDBRANCH   2  19
TORSDOF 7
