REMARK  Name = ZINC13543025
REMARK  9 active torsions:
REMARK  status: ('A' for Active; 'I' for Inactive)
REMARK    1  A    between atoms: N_9  and  C_20
REMARK    2  A    between atoms: C_20  and  C_21
REMARK    3  A    between atoms: C_21  and  C_23
REMARK    4  A    between atoms: C_21  and  O_31
REMARK    5  A    between atoms: C_23  and  C_25
REMARK    6  A    between atoms: C_23  and  O_30
REMARK    7  A    between atoms: C_25  and  C_27
REMARK    8  A    between atoms: C_25  and  O_29
REMARK    9  A    between atoms: C_27  and  O_28
REMARK                            x       y       z     vdW  Elec       q    Type
REMARK                         _______ _______ _______ _____ _____    ______ ____
ROOT
ATOM      1  C   UNL     1      -1.284   3.768   0.034  0.00  0.00    +0.051 A 
ATOM      2  C   UNL     1      -0.085   4.509   0.026  0.00  0.00    +0.090 A 
ATOM      3  C   UNL     1       1.151   3.823   0.011  0.00  0.00    +0.071 A 
ATOM      4  C   UNL     1       1.166   2.431   0.004  0.00  0.00    +0.049 A 
ATOM      5  C   UNL     1      -0.021   1.732   0.012  0.00  0.00    +0.061 A 
ATOM      6  C   UNL     1      -1.242   2.406   0.021  0.00  0.00    +0.061 A 
ATOM      7 CL   UNL     1      -2.723   1.501   0.024  0.00  0.00    -0.082 Cl
ATOM      8 CL   UNL     1       0.002  -0.004   0.002  0.00  0.00    -0.082 Cl
ATOM      9  N   UNL     1       2.338   4.526   0.003  0.00  0.00    -0.319 N 
ATOM     10  C   UNL     1       2.286   5.888   0.010  0.00  0.00    +0.170 A 
ATOM     11  N   UNL     1       3.377   6.636   0.004  0.00  0.00    -0.173 NA
ATOM     12  C   UNL     1       3.309   7.965   0.011  0.00  0.00    +0.351 A 
ATOM     13  O   UNL     1       4.355   8.591   0.004  0.00  0.00    -0.245 OA
ATOM     14  N   UNL     1       2.162   8.658   0.025  0.00  0.00    -0.272 N 
ATOM     15  H   UNL     1       2.192   9.628   0.029  0.00  0.00    +0.174 HD
ATOM     16  C   UNL     1       0.962   8.032   0.033  0.00  0.00    +0.282 A 
ATOM     17  O   UNL     1      -0.080   8.659   0.046  0.00  0.00    -0.265 OA
ATOM     18  C   UNL     1       0.973   6.553   0.026  0.00  0.00    +0.171 A 
ATOM     19  N   UNL     1      -0.130   5.847   0.033  0.00  0.00    -0.237 NA
ENDROOT
BRANCH   9  20
ATOM     20  C   UNL     1       3.624   3.826  -0.013  0.00  0.00    +0.158 C 
BRANCH  20  21
ATOM     21  C   UNL     1       4.058   3.588  -1.460  0.00  0.00    +0.165 C 
BRANCH  21  22
ATOM     22  O   UNL     1       3.136   2.700  -2.095  0.00  0.00    -0.387 OA
ATOM     23  H   UNL     1       3.070   1.833  -1.671  0.00  0.00    +0.210 HD
ENDBRANCH  21  22
BRANCH  21  24
ATOM     24  C   UNL     1       5.457   2.970  -1.479  0.00  0.00    +0.175 C 
BRANCH  24  25
ATOM     25  O   UNL     1       6.379   3.858  -0.845  0.00  0.00    -0.387 OA
ATOM     26  H   UNL     1       6.445   4.725  -1.268  0.00  0.00    +0.210 HD
ENDBRANCH  24  25
BRANCH  24  27
ATOM     27  C   UNL     1       5.891   2.732  -2.927  0.00  0.00    +0.171 C 
BRANCH  27  28
ATOM     28  O   UNL     1       4.969   1.844  -3.561  0.00  0.00    -0.387 OA
ATOM     29  H   UNL     1       4.903   0.977  -3.137  0.00  0.00    +0.210 HD
ENDBRANCH  27  28
BRANCH  27  30
ATOM     30  C   UNL     1       7.290   2.114  -2.945  0.00  0.00    +0.189 C 
BRANCH  30  31
ATOM     31  O   UNL     1       7.743   2.000  -4.295  0.00  0.00    -0.392 OA
ATOM     32  H   UNL     1       8.626   1.614  -4.383  0.00  0.00    +0.210 HD
ENDBRANCH  30  31
ENDBRANCH  27  30
ENDBRANCH  24  27
ENDBRANCH  21  24
ENDBRANCH  20  21
ENDBRANCH   9  20
TORSDOF 9
