REMARK  Name = ZINC02291646
REMARK  6 active torsions:
REMARK  status: ('A' for Active; 'I' for Inactive)
REMARK    1  A    between atoms: C_1  and  C_2
REMARK    2  A    between atoms: C_2  and  C_4
REMARK    3  A    between atoms: C_2  and  N_10
REMARK    4  A    between atoms: C_11  and  C_13
REMARK    5  A    between atoms: N_24  and  C_27
REMARK    6  A    between atoms: C_25  and  N_26
REMARK                            x       y       z     vdW  Elec       q    Type
REMARK                         _______ _______ _______ _____ _____    ______ ____
ROOT
ATOM      1  C   UNL     1      -0.018   1.457   0.010  0.00  0.00    +0.104 A 
ATOM      2  C   UNL     1      -1.209   2.321   0.020  0.00  0.00    +0.123 A 
ATOM      3  C   UNL     1      -0.694   3.694   0.027  0.00  0.00    +0.166 A 
ATOM      4  N   UNL     1      -1.539   4.702   0.040  0.00  0.00    -0.225 NA
ATOM      5  C   UNL     1      -2.858   4.467   0.036  0.00  0.00    +0.092 A 
ATOM      6  C   UNL     1      -3.769   5.540   0.044  0.00  0.00    +0.030 A 
ATOM      7  C   UNL     1      -5.106   5.293   0.048  0.00  0.00    +0.002 A 
ATOM      8  C   UNL     1      -5.594   3.987   0.044  0.00  0.00    +0.002 A 
ATOM      9  C   UNL     1      -4.745   2.924   0.036  0.00  0.00    +0.030 A 
ATOM     10  C   UNL     1      -3.354   3.140   0.032  0.00  0.00    +0.090 A 
ATOM     11  N   UNL     1      -2.509   2.102   0.024  0.00  0.00    -0.241 NA
ATOM     12  N   UNL     1       0.685   3.607   0.014  0.00  0.00    -0.280 N 
ATOM     13  C   UNL     1       1.085   2.304   0.004  0.00  0.00    +0.117 A 
ENDROOT
BRANCH  12  14
ATOM     14  C   UNL     1       1.553   4.707   0.012  0.00  0.00    +0.050 A 
ATOM     15  C   UNL     1       1.590   5.565   1.103  0.00  0.00    +0.028 A 
ATOM     16  C   UNL     1       2.449   6.647   1.100  0.00  0.00    +0.022 A 
ATOM     17  C   UNL     1       3.265   6.881   0.007  0.00  0.00    +0.041 A 
ATOM     18  C   UNL     1       3.226   6.030  -1.083  0.00  0.00    +0.022 A 
ATOM     19  C   UNL     1       2.372   4.944  -1.083  0.00  0.00    +0.028 A 
ATOM     20 CL   UNL     1       4.339   8.245   0.004  0.00  0.00    -0.084 Cl
ENDBRANCH  12  14
BRANCH   1  22
ATOM     21  N   UNL     1       0.001  -0.672  -1.169  0.00  0.00    -0.305 N 
ATOM     22  C   UNL     1       0.002  -0.004   0.002  0.00  0.00    +0.250 C 
ATOM     23  O   UNL     1       0.020  -0.619   1.053  0.00  0.00    -0.270 OA
ATOM     24  H   UNL     1      -0.014  -0.182  -2.006  0.00  0.00    +0.150 HD
BRANCH  21  26
ATOM     25  C   UNL     1      -1.408  -2.667  -1.041  0.00  0.00    +0.033 C 
ATOM     26  C   UNL     1       0.020  -2.136  -1.177  0.00  0.00    +0.100 C 
BRANCH  26  27
ATOM     27  C   UNL     1       0.616  -2.624  -2.473  0.00  0.00    -0.027 A 
ATOM     28  C   UNL     1       0.299  -1.991  -3.660  0.00  0.00    +0.005 A 
ATOM     29  C   UNL     1       0.849  -2.435  -4.848  0.00  0.00    +0.000 A 
ATOM     30  C   UNL     1       1.708  -3.518  -4.850  0.00  0.00    +0.000 A 
ATOM     31  C   UNL     1       2.021  -4.154  -3.663  0.00  0.00    +0.000 A 
ATOM     32  C   UNL     1       1.474  -3.707  -2.475  0.00  0.00    +0.005 A 
ENDBRANCH  26  27
ENDBRANCH  21  26
ENDBRANCH   1  22
BRANCH  13  33
ATOM     33  N   UNL     1       2.391   1.887  -0.011  0.00  0.00    -0.343 N 
ATOM     34  H   UNL     1       2.598   0.940  -0.017  0.00  0.00    +0.144 HD
ATOM     35  H   UNL     1       3.108   2.540  -0.014  0.00  0.00    +0.144 HD
ENDBRANCH  13  33
TORSDOF 5
