REMARK  Name = ZINC67535001
REMARK  10 active torsions:
REMARK  status: ('A' for Active; 'I' for Inactive)
REMARK    1  A    between atoms: C_1  and  C_2
REMARK    2  A    between atoms: C_5  and  C_7
REMARK    3  A    between atoms: C_7  and  C_9
REMARK    4  A    between atoms: C_7  and  N_10
REMARK    5  A    between atoms: N_13  and  C_14
REMARK    6  A    between atoms: C_14  and  C_16
REMARK    7  A    between atoms: C_14  and  C_17
REMARK    8  A    between atoms: C_18  and  C_24
REMARK    9  A    between atoms: N_20  and  C_23
REMARK   10  A    between atoms: C_21  and  C_22
REMARK                            x       y       z     vdW  Elec       q    Type
REMARK                         _______ _______ _______ _____ _____    ______ ____
ROOT
ATOM      1  N   UNL     1       3.034  -2.858  -0.712  0.00  0.00    -0.290 N 
ATOM      2  C   UNL     1       3.681  -3.893  -1.285  0.00  0.00    +0.301 C 
ATOM      3  O   UNL     1       3.493  -5.025  -0.884  0.00  0.00    -0.253 OA
ATOM      4  N   UNL     1       4.536  -3.672  -2.304  0.00  0.00    -0.293 N 
ATOM      5  H   UNL     1       3.184  -1.955  -1.032  0.00  0.00    +0.151 HD
ATOM      6  H   UNL     1       4.686  -2.768  -2.624  0.00  0.00    +0.151 HD
ENDROOT
BRANCH   1   7
ATOM      7  C   UNL     1       2.105  -3.099   0.395  0.00  0.00    +0.137 C 
ATOM      8  C   UNL     1       2.883  -3.151   1.711  0.00  0.00    +0.036 C 
BRANCH   7  13
ATOM      9  C   UNL     1       0.084   1.520   0.240  0.00  0.00    +0.086 C 
ATOM     10  C   UNL     1       0.215   0.026   0.386  0.00  0.00    +0.102 A 
ATOM     11  C   UNL     1      -0.785  -0.828   0.667  0.00  0.00    +0.045 A 
ATOM     12  C   UNL     1      -0.219  -2.123   0.710  0.00  0.00    +0.047 A 
ATOM     13  C   UNL     1       1.094  -1.982   0.453  0.00  0.00    +0.125 A 
ATOM     14  O   UNL     1       1.350  -0.679   0.252  0.00  0.00    -0.463 OA
ENDBRANCH   7  13
ENDBRANCH   1   7
BRANCH   4  15
ATOM     15  C   UNL     1       5.239  -4.796  -2.927  0.00  0.00    +0.105 C 
ATOM     16  C   UNL     1       6.379  -5.254  -2.014  0.00  0.00    +0.033 C 
BRANCH  15  17
ATOM     17  C   UNL     1       5.803  -4.362  -4.255  0.00  0.00    +0.016 A 
ATOM     18  C   UNL     1       6.549  -3.203  -4.493  0.00  0.00    +0.065 A 
ATOM     19  N   UNL     1       6.860  -3.171  -5.764  0.00  0.00    -0.176 NA
ATOM     20  N   UNL     1       6.321  -4.310  -6.375  0.00  0.00    -0.271 N 
ATOM     21  C   UNL     1       5.682  -5.027  -5.427  0.00  0.00    +0.041 A 
ATOM     22  C   UNL     1       4.960  -6.333  -5.637  0.00  0.00    +0.065 C 
ATOM     23  C   UNL     1       6.436  -4.664  -7.792  0.00  0.00    +0.172 C 
ATOM     24  C   UNL     1       6.928  -2.169  -3.464  0.00  0.00    +0.068 C 
ENDBRANCH  15  17
ENDBRANCH   4  15
TORSDOF 4
