REMARK  Name = ZINC62222118
REMARK  8 active torsions:
REMARK  status: ('A' for Active; 'I' for Inactive)
REMARK    1  A    between atoms: C_1  and  C_2
REMARK    2  A    between atoms: C_2  and  N_3
REMARK    3  A    between atoms: N_3  and  S_4
REMARK    4  A    between atoms: S_4  and  N_7
REMARK    5  A    between atoms: N_7  and  C_8
REMARK    6  A    between atoms: C_8  and  C_9
REMARK    7  A    between atoms: C_13  and  C_22
REMARK    8  A    between atoms: C_14  and  C_21
REMARK                            x       y       z     vdW  Elec       q    Type
REMARK                         _______ _______ _______ _____ _____    ______ ____
ROOT
ATOM      1  C   UNL     1       3.140  -4.045  -0.673  0.00  0.00    +0.033 A 
ATOM      2  C   UNL     1       3.211  -3.909  -2.020  0.00  0.00    +0.020 A 
ATOM      3  C   UNL     1       3.644  -5.058  -2.817  0.00  0.00    -0.001 A 
ATOM      4  C   UNL     1       3.737  -4.978  -4.211  0.00  0.00    +0.013 A 
ATOM      5  C   UNL     1       4.144  -6.069  -4.926  0.00  0.00    -0.047 A 
ATOM      6  C   UNL     1       4.466  -7.256  -4.282  0.00  0.00    -0.046 A 
ATOM      7  C   UNL     1       4.381  -7.357  -2.910  0.00  0.00    +0.030 A 
ATOM      8  C   UNL     1       3.970  -6.260  -2.161  0.00  0.00    +0.049 A 
ATOM      9  N   UNL     1       3.877  -6.333  -0.787  0.00  0.00    -0.322 N 
ATOM     10  H   UNL     1       4.102  -7.162  -0.337  0.00  0.00    +0.169 HD
ATOM     11  C   UNL     1       3.484  -5.270  -0.063  0.00  0.00    +0.254 A 
ATOM     12  O   UNL     1       3.418  -5.370   1.150  0.00  0.00    -0.268 OA
ATOM     13  C   UNL     1       4.912  -8.446  -5.091  0.00  0.00    +0.044 C 
ATOM     14  C   UNL     1       4.244  -5.983  -6.427  0.00  0.00    +0.044 C 
ENDROOT
BRANCH   1  15
ATOM     15  C   UNL     1       2.700  -2.881   0.177  0.00  0.00    +0.147 C 
BRANCH  15  16
ATOM     16  N   UNL     1       1.264  -2.989   0.446  0.00  0.00    -0.175 NA
ATOM     17  H   UNL     1       0.717  -3.596  -0.077  0.00  0.00    +0.149 HD
BRANCH  16  18
ATOM     18  S   UNL     1       0.575  -2.076   1.643  0.00  0.00    +0.095 S 
ATOM     19  O   UNL     1       1.387  -2.239   2.797  0.00  0.00    -0.141 OA
ATOM     20  O   UNL     1      -0.813  -2.382   1.640  0.00  0.00    -0.141 OA
BRANCH  18  21
ATOM     21  N   UNL     1       0.711  -0.489   1.189  0.00  0.00    -0.180 NA
ATOM     22  H   UNL     1       1.260   0.119   1.708  0.00  0.00    +0.149 HD
BRANCH  21  24
ATOM     23  C   UNL     1      -0.019   1.526   0.010  0.00  0.00    +0.022 C 
ATOM     24  C   UNL     1       0.002  -0.004   0.002  0.00  0.00    +0.103 C 
ENDBRANCH  21  24
ENDBRANCH  18  21
ENDBRANCH  16  18
ENDBRANCH  15  16
ENDBRANCH   1  15
TORSDOF 5
