REMARK  Name = ZINC37945669
REMARK  5 active torsions:
REMARK  status: ('A' for Active; 'I' for Inactive)
REMARK    1  A    between atoms: C_3  and  O_18
REMARK    2  A    between atoms: C_6  and  C_7
REMARK    3  A    between atoms: C_7  and  C_9
REMARK    4  A    between atoms: C_7  and  N_12
REMARK    5  A    between atoms: O_18  and  C_19
REMARK                            x       y       z     vdW  Elec       q    Type
REMARK                         _______ _______ _______ _____ _____    ______ ____
ROOT
ATOM      1  C   UNL     1      -1.293  -0.774   0.011  0.00  0.00    +0.173 C 
ENDROOT
BRANCH   1   2
ATOM      2  N   UNL     1      -1.787  -1.786  -0.933  0.00  0.00    -0.291 NA
ATOM      3  C   UNL     1      -3.223  -2.033  -0.737  0.00  0.00    +0.066 C 
ATOM      4  C   UNL     1      -3.683  -3.133  -1.696  0.00  0.00    -0.067 C 
ATOM      5  N   UNL     1      -3.426  -2.715  -3.080  0.00  0.00    +0.381 N 
ATOM      6  C   UNL     1      -1.985  -2.495  -3.268  0.00  0.00    -0.067 C 
ATOM      7  C   UNL     1      -1.510  -1.390  -2.321  0.00  0.00    +0.066 C 
ATOM      8  H   UNL     1      -3.741  -3.435  -3.713  0.00  0.00    -0.086 HD
ATOM      9  H   UNL     1      -3.924  -1.858  -3.271  0.00  0.00    -0.086 HD
ENDBRANCH   1   2
BRANCH   1  15
ATOM     10  C   UNL     1       0.658   0.761  -0.306  0.00  0.00    +0.009 A 
ATOM     11  C   UNL     1       2.002   0.985  -0.530  0.00  0.00    +0.046 A 
ATOM     12  C   UNL     1       2.867  -0.089  -0.682  0.00  0.00    +0.130 A 
ATOM     13  C   UNL     1       2.379  -1.385  -0.610  0.00  0.00    +0.046 A 
ATOM     14  C   UNL     1       1.034  -1.604  -0.386  0.00  0.00    +0.009 A 
ATOM     15  C   UNL     1       0.174  -0.532  -0.234  0.00  0.00    -0.021 A 
BRANCH  12  16
ATOM     16  O   UNL     1       4.191   0.129  -0.903  0.00  0.00    -0.406 OA
BRANCH  16  17
ATOM     17  C   UNL     1       5.022  -1.024  -1.050  0.00  0.00    +0.575 C 
ATOM     18  F   UNL     1       4.579  -1.782  -2.140  0.00  0.00    -0.133 F 
ATOM     19  F   UNL     1       6.344  -0.620  -1.270  0.00  0.00    -0.133 F 
ATOM     20  F   UNL     1       4.958  -1.797   0.113  0.00  0.00    -0.133 F 
ENDBRANCH  16  17
ENDBRANCH  12  16
ENDBRANCH   1  15
BRANCH   1  21
ATOM     21  C   UNL     1      -1.493  -1.264   1.422  0.00  0.00    +0.232 C 
ATOM     22  O   UNL     1      -1.512  -2.454   1.654  0.00  0.00    -0.274 OA
ATOM     23  N   UNL     1      -1.651  -0.379   2.426  0.00  0.00    -0.328 N 
ATOM     24  H   UNL     1      -1.636   0.573   2.241  0.00  0.00    +0.145 HD
ATOM     25  H   UNL     1      -1.780  -0.694   3.334  0.00  0.00    +0.145 HD
ENDBRANCH   1  21
TORSDOF 5
