REMARK  Name = ZINC43395925
REMARK  4 active torsions:
REMARK  status: ('A' for Active; 'I' for Inactive)
REMARK    1  A    between atoms: C_1  and  C_2
REMARK    2  A    between atoms: C_5  and  C_19
REMARK    3  A    between atoms: C_6  and  N_8
REMARK    4  A    between atoms: C_16  and  N_17
REMARK                            x       y       z     vdW  Elec       q    Type
REMARK                         _______ _______ _______ _____ _____    ______ ____
ROOT
ATOM      1  N   UNL     1      -0.374  -2.617   2.391  0.00  0.00    -0.310 N 
ATOM      2  C   UNL     1      -0.632  -1.857   3.626  0.00  0.00    +0.111 C 
ATOM      3  C   UNL     1      -2.039  -2.208   4.108  0.00  0.00    +0.056 C 
ATOM      4  C   UNL     1      -2.254  -3.698   4.096  0.00  0.00    -0.021 A 
ATOM      5  C   UNL     1      -1.485  -4.558   3.346  0.00  0.00    -0.025 A 
ATOM      6  C   UNL     1      -1.748  -5.921   3.370  0.00  0.00    +0.005 A 
ATOM      7  C   UNL     1      -2.771  -6.428   4.147  0.00  0.00    +0.002 A 
ATOM      8  C   UNL     1      -3.542  -5.572   4.909  0.00  0.00    +0.023 A 
ATOM      9  C   UNL     1      -3.286  -4.210   4.885  0.00  0.00    +0.028 A 
ATOM     10  C   UNL     1      -0.341  -4.079   2.494  0.00  0.00    +0.142 C 
ENDROOT
BRANCH   1  16
ATOM     11  C   UNL     1      -2.301  -0.663  -1.522  0.00  0.00    +0.065 C 
ATOM     12  C   UNL     1      -1.077  -1.026  -0.721  0.00  0.00    +0.040 A 
ATOM     13  C   UNL     1       0.177  -0.711  -1.216  0.00  0.00    +0.024 A 
ATOM     14  C   UNL     1       1.302  -1.043  -0.483  0.00  0.00    +0.018 A 
ATOM     15  C   UNL     1       1.128  -1.691   0.746  0.00  0.00    +0.076 A 
ATOM     16  C   UNL     1      -0.178  -1.977   1.181  0.00  0.00    +0.134 A 
ATOM     17  N   UNL     1      -1.220  -1.632   0.441  0.00  0.00    -0.236 NA
BRANCH  15  18
ATOM     18  C   UNL     1       2.292  -2.068   1.567  0.00  0.00    +0.245 C 
ATOM     19  O   UNL     1       2.127  -2.536   2.678  0.00  0.00    -0.270 OA
ATOM     20  N   UNL     1       3.540  -1.894   1.088  0.00  0.00    -0.325 N 
ATOM     21  H   UNL     1       3.671  -1.520   0.203  0.00  0.00    +0.145 HD
ATOM     22  H   UNL     1       4.306  -2.142   1.629  0.00  0.00    +0.145 HD
ENDBRANCH  15  18
ENDBRANCH   1  16
BRANCH   9  23
ATOM     23  N   UNL     1      -4.066  -3.344   5.654  0.00  0.00    -0.358 N 
ATOM     24  H   UNL     1      -3.890  -2.390   5.639  0.00  0.00    +0.142 HD
ATOM     25  H   UNL     1      -4.784  -3.696   6.204  0.00  0.00    +0.142 HD
ENDBRANCH   9  23
TORSDOF 3
