REMARK  Name = ZINC37844064
REMARK  6 active torsions:
REMARK  status: ('A' for Active; 'I' for Inactive)
REMARK    1  A    between atoms: C_1  and  C_2
REMARK    2  A    between atoms: C_2  and  C_3
REMARK    3  A    between atoms: C_2  and  N_4
REMARK    4  A    between atoms: C_8  and  C_9
REMARK    5  A    between atoms: N_11  and  N_12
REMARK    6  A    between atoms: C_13  and  C_15
REMARK                            x       y       z     vdW  Elec       q    Type
REMARK                         _______ _______ _______ _____ _____    ______ ____
ROOT
ATOM      1  N   UNL     1      -1.374  -0.508   0.011  0.00  0.00    -0.339 N 
ATOM      2  C   UNL     1      -2.268  -0.349   1.018  0.00  0.00    +0.102 A 
ATOM      3  C   UNL     1      -3.428  -0.961   0.675  0.00  0.00    +0.036 A 
ATOM      4  C   UNL     1      -3.256  -1.524  -0.594  0.00  0.00    +0.047 A 
ATOM      5  C   UNL     1      -1.971  -1.229  -0.998  0.00  0.00    +0.107 A 
ATOM      6 BR   UNL     1      -4.998  -1.038   1.724  0.00  0.00    -0.049 Br
ENDROOT
BRANCH   5   7
ATOM      7  C   UNL     1      -1.352  -1.615  -2.271  0.00  0.00    +0.277 C 
ATOM      8  O   UNL     1      -0.176  -1.377  -2.473  0.00  0.00    -0.267 OA
ATOM      9  N   UNL     1      -2.086  -2.234  -3.216  0.00  0.00    -0.229 N 
ATOM     10  H   UNL     1      -3.039  -2.358  -3.087  0.00  0.00    +0.173 HD
BRANCH   9  11
ATOM     11  N   UNL     1      -1.472  -2.699  -4.387  0.00  0.00    -0.234 N 
ATOM     12  C   UNL     1      -2.207  -3.318  -5.333  0.00  0.00    +0.226 C 
ATOM     13  O   UNL     1      -3.398  -3.473  -5.170  0.00  0.00    -0.275 OA
ATOM     14  C   UNL     1      -1.546  -3.817  -6.592  0.00  0.00    +0.110 C 
ATOM     15  H   UNL     1      -0.519  -2.575  -4.517  0.00  0.00    +0.173 HD
ENDBRANCH   9  11
ENDBRANCH   5   7
BRANCH   1  17
ATOM     16  C   UNL     1      -0.032   1.536   0.000  0.00  0.00    +0.030 C 
ATOM     17  C   UNL     1      -0.002   0.007  -0.003  0.00  0.00    +0.081 C 
ATOM     18  C   UNL     1       0.742  -0.492   1.237  0.00  0.00    +0.030 C 
ENDBRANCH   1  17
TORSDOF 3
