REMARK  Name = ZINC03022080
REMARK  11 active torsions:
REMARK  status: ('A' for Active; 'I' for Inactive)
REMARK    1  A    between atoms: C_1  and  C_2
REMARK    2  A    between atoms: C_4  and  N_9
REMARK    3  A    between atoms: C_13  and  C_35
REMARK    4  A    between atoms: C_19  and  S_20
REMARK    5  A    between atoms: S_20  and  C_21
REMARK    6  A    between atoms: C_21  and  C_22
REMARK    7  A    between atoms: N_24  and  C_25
REMARK    8  A    between atoms: C_28  and  O_33
REMARK    9  A    between atoms: C_30  and  O_31
REMARK   10  A    between atoms: O_31  and  C_32
REMARK   11  A    between atoms: O_33  and  C_34
REMARK                            x       y       z     vdW  Elec       q    Type
REMARK                         _______ _______ _______ _____ _____    ______ ____
ROOT
ATOM      1  N   UNL     1      -7.687   1.509  -0.522  0.00  0.00    -0.275 N 
ATOM      2  C   UNL     1      -8.801   2.330  -0.603  0.00  0.00    +0.124 A 
ATOM      3  N   UNL     1     -10.006   1.834  -0.707  0.00  0.00    -0.384 N 
ATOM      4  C   UNL     1      -8.569   3.785  -0.575  0.00  0.00    +0.082 A 
ATOM      5  C   UNL     1      -9.361   4.901  -0.634  0.00  0.00    +0.072 A 
ATOM      6  N   UNL     1      -8.558   5.977  -0.561  0.00  0.00    -0.177 NA
ATOM      7  H   UNL     1      -6.294   6.146  -0.372  0.00  0.00    +0.191 HD
ATOM      8  N   UNL     1      -7.224   5.565  -0.453  0.00  0.00    -0.260 N 
ATOM      9  C   UNL     1      -7.180   4.252  -0.458  0.00  0.00    +0.162 A 
ATOM     10  N   UNL     1      -6.186   3.327  -0.381  0.00  0.00    -0.204 NA
ATOM     11  C   UNL     1      -6.431   2.044  -0.410  0.00  0.00    +0.177 A 
ATOM     12  C   UNL     1     -10.862   4.920  -0.758  0.00  0.00    +0.068 C 
ATOM     13  H   UNL     1     -10.874   2.507  -0.769  0.00  0.00    +0.157 HD
ATOM     14  H   UNL     1     -10.152   0.744  -0.731  0.00  0.00    +0.157 HD
ENDROOT
BRANCH   1  18
ATOM     15  C   UNL     1      -7.318  -2.840   1.742  0.00  0.00    +0.045 C 
ATOM     16  C   UNL     1      -7.676  -2.014   0.534  0.00  0.00    -0.030 A 
ATOM     17  C   UNL     1      -7.517  -0.643   0.564  0.00  0.00    +0.031 A 
ATOM     18  C   UNL     1      -7.847   0.117  -0.550  0.00  0.00    +0.051 A 
ATOM     19  C   UNL     1      -8.342  -0.503  -1.690  0.00  0.00    +0.028 A 
ATOM     20  C   UNL     1      -8.495  -1.875  -1.716  0.00  0.00    +0.022 A 
ATOM     21  C   UNL     1      -8.165  -2.631  -0.604  0.00  0.00    +0.044 A 
ATOM     22 CL   UNL     1      -8.364  -4.355  -0.638  0.00  0.00    -0.083 Cl
ENDBRANCH   1  18
BRANCH  11  23
ATOM     23  S   UNL     1      -5.065   0.937  -0.304  0.00  0.00    -0.078 S 
BRANCH  23  24
ATOM     24  C   UNL     1      -3.705   2.125  -0.184  0.00  0.00    +0.173 C 
BRANCH  24  25
ATOM     25  C   UNL     1      -2.397   1.384  -0.081  0.00  0.00    +0.228 C 
ATOM     26  O   UNL     1      -2.386   0.171  -0.088  0.00  0.00    -0.275 OA
ATOM     27  N   UNL     1      -1.241   2.068   0.019  0.00  0.00    -0.282 N 
ATOM     28  H   UNL     1      -1.257   3.164   0.117  0.00  0.00    +0.155 HD
BRANCH  27  29
ATOM     29  C   UNL     1      -0.016   1.384  -0.002  0.00  0.00    +0.076 A 
ATOM     30  C   UNL     1       0.075   0.144  -0.616  0.00  0.00    +0.030 A 
ATOM     31  C   UNL     1       1.282  -0.528  -0.642  0.00  0.00    +0.047 A 
ATOM     32  C   UNL     1       2.405   0.036  -0.053  0.00  0.00    +0.124 A 
ATOM     33  C   UNL     1       2.319   1.275   0.562  0.00  0.00    +0.093 A 
ATOM     34  C   UNL     1       1.110   1.951   0.590  0.00  0.00    +0.145 A 
BRANCH  34  35
ATOM     35  O   UNL     1       1.023   3.167   1.193  0.00  0.00    -0.493 OA
ATOM     36  C   UNL     1       2.218   3.687   1.779  0.00  0.00    +0.277 C 
ENDBRANCH  34  35
BRANCH  32  37
ATOM     37  O   UNL     1       3.592  -0.627  -0.081  0.00  0.00    -0.495 OA
ATOM     38  C   UNL     1       3.609  -1.899  -0.732  0.00  0.00    +0.277 C 
ENDBRANCH  32  37
ENDBRANCH  27  29
ENDBRANCH  24  25
ENDBRANCH  23  24
ENDBRANCH  11  23
TORSDOF 7
