REMARK  Name = ZINC39558974
REMARK  5 active torsions:
REMARK  status: ('A' for Active; 'I' for Inactive)
REMARK    1  A    between atoms: C_10  and  C_13
REMARK    2  A    between atoms: C_13  and  C_14
REMARK    3  A    between atoms: N_16  and  C_17
REMARK    4  A    between atoms: C_17  and  C_18
REMARK    5  A    between atoms: N_20  and  C_21
REMARK                            x       y       z     vdW  Elec       q    Type
REMARK                         _______ _______ _______ _____ _____    ______ ____
ROOT
ATOM      1  C   UNL     1       4.759  -1.673  -2.942  0.00  0.00    +0.215 C 
ATOM      2  O   UNL     1       5.718  -1.607  -2.203  0.00  0.00    -0.276 OA
ATOM      3  N   UNL     1       4.896  -1.386  -4.252  0.00  0.00    -0.307 N 
ATOM      4  H   UNL     1       4.129  -1.439  -4.843  0.00  0.00    +0.149 HD
ENDROOT
BRANCH   1   5
ATOM      5  C   UNL     1       3.413  -2.076  -2.396  0.00  0.00    +0.119 C 
BRANCH   5  15
ATOM      6  C   UNL     1      -0.041   1.375  -0.015  0.00  0.00    +0.002 A 
ATOM      7  C   UNL     1       1.138   2.099  -0.024  0.00  0.00    +0.001 A 
ATOM      8  C   UNL     1       2.353   1.437  -0.028  0.00  0.00    +0.016 A 
ATOM      9  C   UNL     1       2.384   0.053  -0.027  0.00  0.00    +0.030 A 
ATOM     10  C   UNL     1       1.200  -0.684  -0.025  0.00  0.00    +0.047 A 
ATOM     11  C   UNL     1      -0.014  -0.005  -0.015  0.00  0.00    +0.024 A 
ATOM     12  N   UNL     1       1.200  -2.076  -0.047  0.00  0.00    -0.284 N 
ATOM     13  C   UNL     1       2.220  -2.865  -0.367  0.00  0.00    +0.231 C 
ATOM     14  O   UNL     1       2.089  -4.063  -0.229  0.00  0.00    -0.274 OA
ATOM     15  C   UNL     1       3.532  -2.344  -0.894  0.00  0.00    +0.146 C 
ATOM     16  S   UNL     1       3.931  -0.799  -0.021  0.00  0.00    -0.110 S 
ATOM     17  H   UNL     1       0.370  -2.515   0.197  0.00  0.00    +0.155 HD
ENDBRANCH   5  15
ENDBRANCH   1   5
BRANCH   3  18
ATOM     18  C   UNL     1       6.204  -0.995  -4.783  0.00  0.00    +0.200 C 
BRANCH  18  19
ATOM     19  C   UNL     1       6.087  -0.730  -6.262  0.00  0.00    +0.234 C 
ATOM     20  O   UNL     1       5.016  -0.857  -6.817  0.00  0.00    -0.274 OA
ATOM     21  N   UNL     1       7.172  -0.353  -6.967  0.00  0.00    -0.284 N 
ATOM     22  H   UNL     1       8.013  -0.188  -6.512  0.00  0.00    +0.155 HD
BRANCH  21  23
ATOM     23  C   UNL     1       7.086  -0.202  -8.357  0.00  0.00    +0.036 A 
ATOM     24  C   UNL     1       8.169  -0.540  -9.160  0.00  0.00    +0.025 A 
ATOM     25  C   UNL     1       8.091  -0.393 -10.530  0.00  0.00    +0.029 A 
ATOM     26  C   UNL     1       6.928   0.095 -11.108  0.00  0.00    +0.067 A 
ATOM     27  C   UNL     1       5.839   0.435 -10.304  0.00  0.00    +0.069 A 
ATOM     28  C   UNL     1       5.919   0.281  -8.929  0.00  0.00    +0.051 A 
ATOM     29  N   UNL     1       4.834   0.886 -11.157  0.00  0.00    -0.306 N 
ATOM     30  H   UNL     1       3.955   1.194 -10.886  0.00  0.00    +0.170 HD
ATOM     31  C   UNL     1       5.291   0.823 -12.422  0.00  0.00    +0.325 A 
ATOM     32  O   UNL     1       4.660   1.145 -13.412  0.00  0.00    -0.247 OA
ATOM     33  N   UNL     1       6.551   0.349 -12.427  0.00  0.00    -0.306 N 
ATOM     34  H   UNL     1       7.102   0.210 -13.212  0.00  0.00    +0.170 HD
ENDBRANCH  21  23
ENDBRANCH  18  19
ENDBRANCH   3  18
TORSDOF 5
