REMARK  Name = ZINC58196664
REMARK  9 active torsions:
REMARK  status: ('A' for Active; 'I' for Inactive)
REMARK    1  A    between atoms: C_1  and  C_2
REMARK    2  A    between atoms: C_2  and  C_4
REMARK    3  A    between atoms: C_2  and  N_8
REMARK    4  A    between atoms: N_6  and  C_7
REMARK    5  A    between atoms: C_9  and  C_11
REMARK    6  A    between atoms: C_18  and  C_20
REMARK    7  A    between atoms: C_20  and  C_21
REMARK    8  A    between atoms: C_20  and  C_22
REMARK    9  A    between atoms: C_20  and  C_23
REMARK                            x       y       z     vdW  Elec       q    Type
REMARK                         _______ _______ _______ _____ _____    ______ ____
ROOT
ATOM      1  C   UNL     1       0.092  -2.427   3.648  0.00  0.00    +0.092 C 
ATOM      2  C   UNL     1       0.661  -3.847   3.674  0.00  0.00    +0.016 C 
ATOM      3  C   UNL     1       1.616  -3.995   4.861  0.00  0.00    +0.020 C 
ATOM      4  C   UNL     1       0.845  -3.760   6.163  0.00  0.00    +0.108 C 
ATOM      5  N   UNL     1       0.174  -2.454   6.087  0.00  0.00    -0.300 N 
ATOM      6  C   UNL     1      -0.696  -2.173   4.937  0.00  0.00    +0.120 C 
ATOM      7  C   UNL     1       0.355  -1.532   7.053  0.00  0.00    +0.221 C 
ATOM      8  O   UNL     1      -0.118  -0.422   6.928  0.00  0.00    -0.275 OA
ENDROOT
BRANCH   1  10
ATOM      9  N   UNL     1      -0.344  -2.452   1.214  0.00  0.00    -0.304 N 
ATOM     10  C   UNL     1      -0.823  -2.272   2.461  0.00  0.00    +0.218 C 
ATOM     11  O   UNL     1      -1.990  -1.986   2.627  0.00  0.00    -0.275 OA
ATOM     12  H   UNL     1       0.589  -2.681   1.081  0.00  0.00    +0.149 HD
BRANCH   9  14
ATOM     13  C   UNL     1      -1.307  -0.827  -0.340  0.00  0.00    +0.038 C 
ATOM     14  C   UNL     1      -1.234  -2.302   0.059  0.00  0.00    +0.156 C 
BRANCH  14  15
ATOM     15  C   UNL     1      -0.698  -3.108  -1.096  0.00  0.00    +0.233 C 
ATOM     16  O   UNL     1       0.326  -3.746  -0.967  0.00  0.00    -0.274 OA
ATOM     17  N   UNL     1      -1.357  -3.121  -2.272  0.00  0.00    -0.317 N 
ATOM     18  C   UNL     1      -0.836  -3.905  -3.394  0.00  0.00    +0.128 C 
ATOM     19  H   UNL     1      -2.175  -2.612  -2.374  0.00  0.00    +0.148 HD
ENDBRANCH  14  15
ENDBRANCH   9  14
ENDBRANCH   1  10
BRANCH   7  20
ATOM     20  C   UNL     1       1.143  -1.881   8.289  0.00  0.00    +0.039 C 
ATOM     21  C   UNL     1       1.037  -0.738   9.301  0.00  0.00    +0.020 C 
ATOM     22  C   UNL     1       0.583  -3.163   8.908  0.00  0.00    +0.020 C 
ATOM     23  C   UNL     1       2.611  -2.095   7.915  0.00  0.00    +0.020 C 
ENDBRANCH   7  20
TORSDOF 4
