REMARK  Name = ZINC61594112
REMARK  6 active torsions:
REMARK  status: ('A' for Active; 'I' for Inactive)
REMARK    1  A    between atoms: C_1  and  C_2
REMARK    2  A    between atoms: C_2  and  C_3
REMARK    3  A    between atoms: C_2  and  N_4
REMARK    4  A    between atoms: C_10  and  S_11
REMARK    5  A    between atoms: S_11  and  C_12
REMARK    6  A    between atoms: C_15  and  N_19
REMARK                            x       y       z     vdW  Elec       q    Type
REMARK                         _______ _______ _______ _____ _____    ______ ____
ROOT
ATOM      1  S   UNL     1      -1.145  -1.891  -2.412  0.00  0.00    -0.044 S 
ENDROOT
BRANCH   1   2
ATOM      2  C   UNL     1      -2.384  -2.845  -3.224  0.00  0.00    +0.086 A 
ATOM      3  C   UNL     1      -2.509  -4.202  -2.948  0.00  0.00    +0.142 A 
ATOM      4  C   UNL     1      -3.482  -4.950  -3.586  0.00  0.00    +0.062 A 
ATOM      5  C   UNL     1      -4.332  -4.346  -4.503  0.00  0.00    +0.030 A 
ATOM      6  C   UNL     1      -4.208  -2.991  -4.779  0.00  0.00    +0.062 A 
ATOM      7  C   UNL     1      -3.240  -2.240  -4.138  0.00  0.00    +0.142 A 
ATOM      8  F   UNL     1      -3.122  -0.921  -4.403  0.00  0.00    -0.204 F 
ATOM      9  F   UNL     1      -1.681  -4.789  -2.057  0.00  0.00    -0.204 F 
BRANCH   5  10
ATOM     10  N   UNL     1      -5.316  -5.104  -5.148  0.00  0.00    -0.358 N 
ATOM     11  H   UNL     1      -5.403  -6.051  -4.955  0.00  0.00    +0.142 HD
ATOM     12  H   UNL     1      -5.911  -4.683  -5.788  0.00  0.00    +0.142 HD
ENDBRANCH   5  10
ENDBRANCH   1   2
BRANCH   1  19
ATOM     13  N   UNL     1      -1.372  -0.511   0.012  0.00  0.00    -0.268 N 
ATOM     14  C   UNL     1      -2.295  -0.272   0.966  0.00  0.00    +0.345 A 
ATOM     15  O   UNL     1      -2.135   0.402   1.968  0.00  0.00    -0.245 OA
ATOM     16  N   UNL     1      -3.426  -0.913   0.609  0.00  0.00    -0.226 N 
ATOM     17  H   UNL     1      -4.261  -0.923   1.102  0.00  0.00    +0.194 HD
ATOM     18  N   UNL     1      -3.174  -1.563  -0.607  0.00  0.00    -0.144 NA
ATOM     19  C   UNL     1      -1.945  -1.309  -0.953  0.00  0.00    +0.197 A 
BRANCH  13  21
ATOM     20  C   UNL     1      -0.019   1.526   0.010  0.00  0.00    +0.031 C 
ATOM     21  C   UNL     1       0.002  -0.004   0.002  0.00  0.00    +0.088 C 
ATOM     22  C   UNL     1       0.742  -0.511   1.242  0.00  0.00    +0.031 C 
ENDBRANCH  13  21
ENDBRANCH   1  19
TORSDOF 4
