REMARK  Name = ZINC08755493
REMARK  6 active torsions:
REMARK  status: ('A' for Active; 'I' for Inactive)
REMARK    1  A    between atoms: C_1  and  C_2
REMARK    2  A    between atoms: C_2  and  N_50
REMARK    3  A    between atoms: C_6  and  C_8
REMARK    4  A    between atoms: C_8  and  N_9
REMARK    5  A    between atoms: N_12  and  C_13
REMARK    6  A    between atoms: C_14  and  C_22
REMARK                            x       y       z     vdW  Elec       q    Type
REMARK                         _______ _______ _______ _____ _____    ______ ____
ROOT
ATOM      1  N   UNL     1      -0.020   1.362   0.260  0.00  0.00    -0.301 N 
ATOM      2  C   UNL     1      -0.031   0.015   0.282  0.00  0.00    +0.304 C 
ATOM      3  O   UNL     1       0.998  -0.605   0.093  0.00  0.00    -0.252 OA
ATOM      4  N   UNL     1      -1.182  -0.646   0.514  0.00  0.00    -0.263 N 
ATOM      5  H   UNL     1      -0.842   1.856   0.407  0.00  0.00    +0.150 HD
ATOM      6  H   UNL     1      -2.003  -0.152   0.665  0.00  0.00    +0.157 HD
ENDROOT
BRANCH   4   7
ATOM      7  C   UNL     1      -1.193  -2.033   0.537  0.00  0.00    +0.086 A 
ATOM      8  C   UNL     1      -2.267  -2.883   0.762  0.00  0.00    +0.068 A 
ATOM      9  C   UNL     1      -2.009  -4.313   0.729  0.00  0.00    -0.023 A 
ATOM     10  C   UNL     1      -0.727  -4.661   0.487  0.00  0.00    -0.004 A 
ATOM     11  S   UNL     1       0.131  -3.124   0.298  0.00  0.00    -0.077 S 
ATOM     12  C   UNL     1      -0.168  -6.048   0.402  0.00  0.00    +0.043 C 
ATOM     13  C   UNL     1      -1.195  -7.021   1.000  0.00  0.00    +0.005 C 
ATOM     14  C   UNL     1      -2.572  -6.709   0.408  0.00  0.00    +0.005 C 
ATOM     15  C   UNL     1      -3.082  -5.372   0.950  0.00  0.00    +0.037 C 
BRANCH   8  16
ATOM     16  C   UNL     1      -3.611  -2.358   1.021  0.00  0.00    +0.244 C 
ATOM     17  O   UNL     1      -4.374  -2.156   0.095  0.00  0.00    -0.270 OA
ATOM     18  N   UNL     1      -4.002  -2.100   2.285  0.00  0.00    -0.325 N 
ATOM     19  H   UNL     1      -3.393  -2.261   3.023  0.00  0.00    +0.145 HD
ATOM     20  H   UNL     1      -4.891  -1.752   2.456  0.00  0.00    +0.145 HD
ENDBRANCH   8  16
ENDBRANCH   4   7
BRANCH   1  21
ATOM     21  C   UNL     1       1.232   2.081   0.008  0.00  0.00    +0.090 C 
BRANCH  21  25
ATOM     22  C   UNL     1       0.442   5.093  -1.906  0.00  0.00    -0.078 C 
ATOM     23  C   UNL     1       1.675   5.624  -1.145  0.00  0.00    -0.020 C 
ATOM     24  C   UNL     1       2.242   4.350  -0.462  0.00  0.00    -0.016 C 
ATOM     25  C   UNL     1       0.944   3.578  -0.117  0.00  0.00    -0.051 C 
ATOM     26  N   UNL     1       0.050   3.827  -1.266  0.00  0.00    +0.382 N 
ATOM     27  H   UNL     1       0.144   3.061  -1.942  0.00  0.00    -0.081 HD
BRANCH  26  29
ATOM     28  C   UNL     1      -2.256   4.291  -1.988  0.00  0.00    -0.017 C 
ATOM     29  C   UNL     1      -1.363   3.900  -0.809  0.00  0.00    -0.082 C 
ENDBRANCH  26  29
ENDBRANCH  21  25
ENDBRANCH   1  21
TORSDOF 5
