REMARK  Name = ZINC02558508
REMARK  6 active torsions:
REMARK  status: ('A' for Active; 'I' for Inactive)
REMARK    1  A    between atoms: C_1  and  C_2
REMARK    2  A    between atoms: C_2  and  C_3
REMARK    3  A    between atoms: C_2  and  C_4
REMARK    4  A    between atoms: C_2  and  C_5
REMARK    5  A    between atoms: C_12  and  N_22
REMARK    6  A    between atoms: C_13  and  C_14
REMARK                            x       y       z     vdW  Elec       q    Type
REMARK                         _______ _______ _______ _____ _____    ______ ____
ROOT
ATOM      1  C   UNL     1       0.002  -0.004   0.002  0.00  0.00    -0.000 C 
ATOM      2  C   UNL     1       0.742  -0.514   1.242  0.00  0.00    +0.009 C 
ATOM      3  C   UNL     1       0.984  -2.020   1.120  0.00  0.00    +0.037 C 
ATOM      4  C   UNL     1      -0.341  -2.705   0.810  0.00  0.00    -0.023 A 
ATOM      5  C   UNL     1      -1.390  -2.006   0.327  0.00  0.00    -0.004 A 
ATOM      6  S   UNL     1      -2.679  -3.202   0.126  0.00  0.00    -0.078 S 
ATOM      7  C   UNL     1      -1.839  -4.615   0.674  0.00  0.00    +0.076 A 
ATOM      8  C   UNL     1      -0.580  -4.127   1.000  0.00  0.00    +0.068 A 
ATOM      9  C   UNL     1      -1.437  -0.538   0.031  0.00  0.00    +0.046 C 
ENDROOT
BRANCH   8  10
ATOM     10  C   UNL     1       0.467  -5.011   1.516  0.00  0.00    +0.249 C 
ATOM     11  O   UNL     1       0.575  -5.192   2.715  0.00  0.00    -0.270 OA
ATOM     12  N   UNL     1       1.311  -5.625   0.663  0.00  0.00    -0.297 N 
ATOM     13  C   UNL     1       1.189  -5.422  -0.787  0.00  0.00    +0.108 C 
ATOM     14  C   UNL     1       2.552  -4.968  -1.333  0.00  0.00    +0.019 C 
ATOM     15  C   UNL     1       3.621  -5.986  -0.929  0.00  0.00    +0.003 C 
ATOM     16  C   UNL     1       3.713  -6.053   0.598  0.00  0.00    +0.019 C 
ATOM     17  C   UNL     1       2.367  -6.515   1.166  0.00  0.00    +0.108 C 
ENDBRANCH   8  10
BRANCH   1  19
ATOM     18  C   UNL     1       1.417   2.055  -0.000  0.00  0.00    +0.011 C 
ATOM     19  C   UNL     1      -0.019   1.526   0.010  0.00  0.00    -0.035 C 
ATOM     20  C   UNL     1      -0.759   2.033  -1.229  0.00  0.00    +0.011 C 
ATOM     21  C   UNL     1      -0.735   2.019   1.269  0.00  0.00    +0.011 C 
ENDBRANCH   1  19
BRANCH   7  22
ATOM     22  N   UNL     1      -2.308  -5.912   0.764  0.00  0.00    -0.352 N 
ATOM     23  H   UNL     1      -1.726  -6.616   1.091  0.00  0.00    +0.143 HD
ATOM     24  H   UNL     1      -3.218  -6.118   0.501  0.00  0.00    +0.143 HD
ENDBRANCH   7  22
TORSDOF 3
