REMARK  Name = ZINC38039666
REMARK  4 active torsions:
REMARK  status: ('A' for Active; 'I' for Inactive)
REMARK    1  A    between atoms: C_3  and  N_20
REMARK    2  A    between atoms: C_4  and  S_8
REMARK    3  A    between atoms: S_8  and  N_11
REMARK    4  A    between atoms: C_15  and  C_17
REMARK                            x       y       z     vdW  Elec       q    Type
REMARK                         _______ _______ _______ _____ _____    ______ ____
ROOT
ATOM      1  S   UNL     1       4.873  -0.609   0.654  0.00  0.00    +0.064 S 
ATOM      2  O   UNL     1       5.784   0.214   1.370  0.00  0.00    -0.153 OA
ATOM      3  O   UNL     1       4.862  -2.024   0.783  0.00  0.00    -0.153 OA
ENDROOT
BRANCH   1   7
ATOM      4  C   UNL     1       0.716   0.825   1.730  0.00  0.00    +0.017 A 
ATOM      5  C   UNL     1       1.615   0.497   2.728  0.00  0.00    +0.036 A 
ATOM      6  C   UNL     1       2.884   0.060   2.400  0.00  0.00    +0.152 A 
ATOM      7  C   UNL     1       3.255  -0.051   1.072  0.00  0.00    +0.137 A 
ATOM      8  C   UNL     1       2.357   0.276   0.074  0.00  0.00    +0.046 A 
ATOM      9  C   UNL     1       1.087   0.714   0.403  0.00  0.00    +0.020 A 
ATOM     10 BR   UNL     1      -0.142   1.161  -0.963  0.00  0.00    -0.050 Br
BRANCH   6  11
ATOM     11  N   UNL     1       3.846  -0.290   3.469  0.00  0.00    +0.058 N 
ATOM     12  O   UNL     1       3.571  -0.070   4.625  0.00  0.00    -0.126 OA
ATOM     13  O   UNL     1       4.907  -0.796   3.185  0.00  0.00    -0.126 OA
ENDBRANCH   6  11
ENDBRANCH   1   7
BRANCH   1  14
ATOM     14  N   UNL     1       5.104  -0.282  -0.953  0.00  0.00    -0.165 NA
ATOM     15  C   UNL     1       4.608  -1.100  -2.075  0.00  0.00    +0.110 C 
ATOM     16  C   UNL     1       4.518  -0.119  -3.271  0.00  0.00    +0.019 C 
ATOM     17  C   UNL     1       5.765   0.774  -3.036  0.00  0.00    +0.031 C 
ATOM     18  C   UNL     1       5.830   0.874  -1.497  0.00  0.00    +0.165 C 
BRANCH  18  19
ATOM     19  C   UNL     1       5.178   2.152  -1.036  0.00  0.00    +0.229 C 
ATOM     20  O   UNL     1       3.992   2.171  -0.784  0.00  0.00    -0.274 OA
ATOM     21  N   UNL     1       5.914   3.274  -0.904  0.00  0.00    -0.328 N 
ATOM     22  H   UNL     1       6.862   3.259  -1.105  0.00  0.00    +0.145 HD
ATOM     23  H   UNL     1       5.494   4.097  -0.607  0.00  0.00    +0.145 HD
ENDBRANCH  18  19
ENDBRANCH   1  14
TORSDOF 4
