REMARK  Name = ZINC02659462
REMARK  6 active torsions:
REMARK  status: ('A' for Active; 'I' for Inactive)
REMARK    1  A    between atoms: C_1  and  C_2
REMARK    2  A    between atoms: C_3  and  C_8
REMARK    3  A    between atoms: C_4  and  N_7
REMARK    4  A    between atoms: C_8  and  O_26
REMARK    5  A    between atoms: N_15  and  C_18
REMARK    6  A    between atoms: C_18  and  C_19
REMARK                            x       y       z     vdW  Elec       q    Type
REMARK                         _______ _______ _______ _____ _____    ______ ____
ROOT
ATOM      1  C   UNL     1      -1.848   3.290  -2.488  0.00  0.00    +0.201 C 
ATOM      2  C   UNL     1      -2.629   2.003  -2.624  0.00  0.00    +0.019 A 
ATOM      3  C   UNL     1      -3.727   1.649  -3.374  0.00  0.00    +0.009 A 
ATOM      4  C   UNL     1      -4.226   0.360  -3.302  0.00  0.00    +0.000 A 
ATOM      5  C   UNL     1      -3.627  -0.564  -2.465  0.00  0.00    +0.002 A 
ATOM      6  C   UNL     1      -2.529  -0.210  -1.708  0.00  0.00    +0.024 A 
ATOM      7  C   UNL     1      -2.016   1.084  -1.782  0.00  0.00    +0.043 A 
ATOM      8  N   UNL     1      -0.934   1.675  -1.129  0.00  0.00    -0.264 N 
ATOM      9  C   UNL     1      -0.764   2.959  -1.485  0.00  0.00    +0.261 C 
ATOM     10  O   UNL     1       0.097   3.711  -1.080  0.00  0.00    -0.271 OA
ENDROOT
BRANCH   1  13
ATOM     11  C   UNL     1      -2.915   5.531  -4.569  0.00  0.00    +0.069 C 
ATOM     12  C   UNL     1      -1.699   4.655  -4.721  0.00  0.00    +0.089 A 
ATOM     13  C   UNL     1      -1.242   3.682  -3.811  0.00  0.00    +0.081 A 
ATOM     14  C   UNL     1      -0.118   3.179  -4.404  0.00  0.00    +0.222 A 
ATOM     15  O   UNL     1       0.018   3.836  -5.567  0.00  0.00    -0.339 OA
ATOM     16  N   UNL     1      -0.863   4.648  -5.722  0.00  0.00    -0.081 NA
BRANCH  14  17
ATOM     17  N   UNL     1       0.711   2.190  -3.908  0.00  0.00    -0.327 N 
ATOM     18  H   UNL     1       0.516   1.779  -3.051  0.00  0.00    +0.145 HD
ATOM     19  H   UNL     1       1.488   1.908  -4.416  0.00  0.00    +0.145 HD
ENDBRANCH  14  17
ENDBRANCH   1  13
BRANCH   1  20
ATOM     20  O   UNL     1      -2.686   4.337  -1.993  0.00  0.00    -0.371 OA
ATOM     21  H   UNL     1      -2.208   5.145  -1.760  0.00  0.00    +0.212 HD
ENDBRANCH   1  20
BRANCH   8  22
ATOM     22  C   UNL     1      -0.078   0.974  -0.168  0.00  0.00    +0.150 C 
BRANCH  22  23
ATOM     23  C   UNL     1       0.979   0.198  -0.911  0.00  0.00    -0.011 A 
ATOM     24  C   UNL     1       0.783  -1.141  -1.194  0.00  0.00    +0.006 A 
ATOM     25  C   UNL     1       1.750  -1.852  -1.878  0.00  0.00    +0.000 A 
ATOM     26  C   UNL     1       2.919  -1.228  -2.272  0.00  0.00    +0.001 A 
ATOM     27  C   UNL     1       3.119   0.110  -1.985  0.00  0.00    +0.020 A 
ATOM     28  C   UNL     1       2.148   0.823  -1.304  0.00  0.00    +0.046 A 
ATOM     29 CL   UNL     1       2.399   2.502  -0.943  0.00  0.00    -0.083 Cl
ENDBRANCH  22  23
ENDBRANCH   8  22
TORSDOF 5
