REMARK  Name = ZINC63571769
REMARK  2 active torsions:
REMARK  status: ('A' for Active; 'I' for Inactive)
REMARK    1  A    between atoms: C_8  and  C_27
REMARK    2  A    between atoms: N_18  and  C_19
REMARK                            x       y       z     vdW  Elec       q    Type
REMARK                         _______ _______ _______ _____ _____    ______ ____
ROOT
ATOM      1  C   UNL     1      -0.067   1.189   0.923  0.00  0.00    +0.001 A 
ATOM      2  C   UNL     1       0.998   1.902   1.490  0.00  0.00    +0.002 A 
ATOM      3  C   UNL     1       2.217   1.356   1.687  0.00  0.00    +0.026 A 
ATOM      4  C   UNL     1       2.470   0.007   1.319  0.00  0.00    +0.043 A 
ATOM      5  N   UNL     1       3.546  -0.740   1.427  0.00  0.00    -0.375 N 
ATOM      6  C   UNL     1       3.273  -2.038   0.815  0.00  0.00    +0.131 C 
ATOM      7  C   UNL     1       3.492  -3.192   1.800  0.00  0.00    +0.134 C 
ATOM      8  N   UNL     1       2.823  -4.384   1.255  0.00  0.00    -0.276 N 
ATOM      9  C   UNL     1       1.379  -4.378   0.997  0.00  0.00    +0.114 C 
ATOM     10  C   UNL     1       1.042  -3.244   0.011  0.00  0.00    +0.052 C 
ATOM     11  C   UNL     1       1.796  -2.012   0.458  0.00  0.00    -0.035 C 
ATOM     12  C   UNL     1       1.358  -0.773   0.722  0.00  0.00    -0.001 A 
ATOM     13  C   UNL     1       0.066  -0.101   0.539  0.00  0.00    +0.010 A 
ATOM     14  C   UNL     1       3.544  -5.491   0.989  0.00  0.00    +0.307 C 
ATOM     15  O   UNL     1       4.708  -5.556   1.335  0.00  0.00    -0.252 OA
ATOM     16  N   UNL     1       2.975  -6.526   0.340  0.00  0.00    -0.267 N 
ATOM     17  H   UNL     1       2.070  -6.448   0.002  0.00  0.00    +0.156 HD
ATOM     18  H   UNL     1       4.381  -0.474   1.843  0.00  0.00    +0.160 HD
ENDROOT
BRANCH  16  19
ATOM     19  C   UNL     1       3.692  -7.715   0.153  0.00  0.00    +0.070 A 
ATOM     20  C   UNL     1       5.080  -7.697   0.147  0.00  0.00    +0.027 A 
ATOM     21  C   UNL     1       5.785  -8.871  -0.037  0.00  0.00    +0.017 A 
ATOM     22  C   UNL     1       5.109 -10.065  -0.215  0.00  0.00    +0.021 A 
ATOM     23  C   UNL     1       3.726 -10.088  -0.211  0.00  0.00    +0.055 A 
ATOM     24  C   UNL     1       3.015  -8.917  -0.021  0.00  0.00    +0.146 A 
ATOM     25  F   UNL     1       1.664  -8.940  -0.011  0.00  0.00    -0.204 F 
ATOM     26 BR   UNL     1       6.079 -11.669  -0.467  0.00  0.00    -0.050 Br
ENDBRANCH  16  19
BRANCH   7  27
ATOM     27  C   UNL     1       4.967  -3.458   1.952  0.00  0.00    -0.025 A 
ATOM     28  C   UNL     1       5.783  -3.486   0.837  0.00  0.00    +0.008 A 
ATOM     29  C   UNL     1       7.136  -3.730   0.975  0.00  0.00    +0.038 A 
ATOM     30  C   UNL     1       7.675  -3.947   2.232  0.00  0.00    +0.123 A 
ATOM     31  C   UNL     1       6.857  -3.918   3.349  0.00  0.00    +0.038 A 
ATOM     32  C   UNL     1       5.505  -3.669   3.208  0.00  0.00    +0.008 A 
ATOM     33  F   UNL     1       8.998  -4.186   2.369  0.00  0.00    -0.205 F 
ENDBRANCH   7  27
TORSDOF 2
