REMARK  Name = ZINC04082345
REMARK  7 active torsions:
REMARK  status: ('A' for Active; 'I' for Inactive)
REMARK    1  A    between atoms: CG1_1  and  CB_2
REMARK    2  A    between atoms: CB_2  and  CG2_4
REMARK    3  A    between atoms: CB_2  and  CA_5
REMARK    4  A    between atoms: CA_5  and  C_7
REMARK    5  A    between atoms: CA_5  and  N_9
REMARK    6  A    between atoms: C_10  and  C_12
REMARK    7  A    between atoms: C_18  and  C_20
REMARK                            x       y       z     vdW  Elec       q    Type
REMARK                         _______ _______ _______ _____ _____    ______ ____
ROOT
ATOM      1  C   UNK A   0      -1.257   1.349   6.108  0.00  0.00    +0.078 C 
ATOM      2  C   UNK A   0      -0.767   2.757   6.454  0.00  0.00    +0.032 C 
ATOM      3  C   UNK A   0      -1.512   3.262   7.694  0.00  0.00    +0.108 C 
ATOM      4  N   UNK A   0      -1.345   2.282   8.777  0.00  0.00    -0.303 N 
ATOM      5  C   UNK A   0      -1.700   0.880   8.521  0.00  0.00    +0.108 C 
ATOM      6  C   UNK A   0      -0.954   0.402   7.271  0.00  0.00    +0.032 C 
ATOM      7  C   UNK A   0      -0.876   2.663   9.981  0.00  0.00    +0.202 C 
ATOM      8  O   UNK A   0      -0.743   1.845  10.867  0.00  0.00    -0.277 OA
ENDROOT
BRANCH   7   9
ATOM      9  C   UNK A   0      -0.516   4.106  10.228  0.00  0.00    +0.016 C 
ATOM     10  C   UNK A   0       0.878   4.420   9.643  0.00  0.00    -0.009 C 
ATOM     11  C   UNK A   0       1.526   5.391  10.652  0.00  0.00    -0.020 C 
ATOM     12  C   UNK A   0       0.469   5.582  11.761  0.00  0.00    -0.082 C 
ATOM     13  N   UNK A   0      -0.363   4.382  11.657  0.00  0.00    +0.387 N 
ATOM     14  H   UNK A   0       0.094   3.591  12.125  0.00  0.00    -0.085 HD
ATOM     15  H   UNK A   0      -1.281   4.549  12.086  0.00  0.00    -0.085 HD
ENDBRANCH   7   9
BRANCH   1  17
ATOM     16  N   VAL A   1      -0.675   1.545   3.712  0.00  0.00    -0.302 N 
ATOM     17  C   UNK A   0      -0.552   0.863   4.868  0.00  0.00    +0.217 C 
ATOM     18  O   UNK A   0       0.127  -0.141   4.910  0.00  0.00    -0.275 OA
ATOM     19  H   VAL A   1      -1.217   2.348   3.678  0.00  0.00    +0.150 HD
BRANCH  16  20
ATOM     20  CA  VAL A   1       0.011   1.072   2.506  0.00  0.00    +0.189 C 
BRANCH  20  22
ATOM     21  CG1 VAL A   1      -0.013   1.086   0.008  0.00  0.00    +0.009 C 
ATOM     22  CB  VAL A   1      -0.729   1.579   1.267  0.00  0.00    +0.014 C 
ATOM     23  CG2 VAL A   1      -2.164   1.050   1.278  0.00  0.00    +0.009 C 
ENDBRANCH  20  22
BRANCH  20  24
ATOM     24  C   VAL A   1       1.425   1.594   2.496  0.00  0.00    +0.376 C 
ATOM     25  O   VAL A   1       1.819   2.289   3.402  0.00  0.00    -0.244 OA
ATOM     26  OXT VAL A   1       2.246   1.286   1.479  0.00  0.00    -0.244 OA
ENDBRANCH  20  24
ENDBRANCH  16  20
ENDBRANCH   1  17
TORSDOF 5
