REMARK  Name = ZINC62811614
REMARK  5 active torsions:
REMARK  status: ('A' for Active; 'I' for Inactive)
REMARK    1  A    between atoms: C_1  and  C_2
REMARK    2  A    between atoms: C_7  and  C_9
REMARK    3  A    between atoms: C_7  and  C_10
REMARK    4  A    between atoms: C_13  and  C_15
REMARK    5  A    between atoms: C_16  and  N_21
REMARK                            x       y       z     vdW  Elec       q    Type
REMARK                         _______ _______ _______ _____ _____    ______ ____
ROOT
ATOM      1  C   UNL     1      -0.019   1.532   0.011  0.00  0.00    +0.013 C 
ATOM      2  C   UNL     1       0.002  -0.004   0.002  0.00  0.00    -0.014 C 
ATOM      3  C   UNL     1       0.685  -0.578  -1.269  0.00  0.00    +0.030 C 
ATOM      4  C   UNL     1       0.129  -2.024  -1.231  0.00  0.00    +0.077 C 
ATOM      5  C   UNL     1       0.888  -2.772  -0.139  0.00  0.00    +0.029 C 
ATOM      6  C   UNL     1       0.823  -2.105   1.223  0.00  0.00    -0.033 C 
ATOM      7  C   UNL     1       0.726  -0.591   1.212  0.00  0.00    +0.014 C 
ATOM      8  C   UNL     1       2.126  -2.474   1.975  0.00  0.00    +0.011 C 
ATOM      9  C   UNL     1      -0.332  -2.701   2.040  0.00  0.00    +0.011 C 
ATOM     10  N   UNL     1      -1.283  -1.875  -0.825  0.00  0.00    -0.293 N 
ATOM     11  C   UNL     1      -1.417  -0.610  -0.086  0.00  0.00    +0.115 C 
ATOM     12  C   UNL     1      -2.281  -2.741  -1.094  0.00  0.00    +0.269 C 
ATOM     13  O   UNL     1      -2.053  -3.755  -1.726  0.00  0.00    -0.268 OA
ENDROOT
BRANCH  12  14
ATOM     14  C   UNL     1      -3.649  -2.459  -0.622  0.00  0.00    +0.167 A 
ATOM     15  C   UNL     1      -4.794  -3.273  -0.820  0.00  0.00    +0.075 A 
ATOM     16  C   UNL     1      -5.816  -2.613  -0.213  0.00  0.00    +0.128 A 
ATOM     17  N   UNL     1      -5.298  -1.473   0.314  0.00  0.00    -0.282 N 
ATOM     18  H   UNL     1      -5.805  -0.809   0.806  0.00  0.00    +0.188 HD
ATOM     19  N   UNL     1      -4.038  -1.405   0.071  0.00  0.00    -0.167 NA
BRANCH  15  20
ATOM     20  N   UNL     1      -4.858  -4.498  -1.499  0.00  0.00    -0.355 N 
ATOM     21  H   UNL     1      -4.057  -4.876  -1.896  0.00  0.00    +0.142 HD
ATOM     22  H   UNL     1      -5.703  -4.969  -1.572  0.00  0.00    +0.142 HD
ENDBRANCH  15  20
ENDBRANCH  12  14
TORSDOF 2
