REMARK  Name = ZINC63120376
REMARK  8 active torsions:
REMARK  status: ('A' for Active; 'I' for Inactive)
REMARK    1  A    between atoms: C_1  and  N_2
REMARK    2  A    between atoms: C_5  and  C_8
REMARK    3  A    between atoms: C_8  and  N_9
REMARK    4  A    between atoms: N_9  and  C_10
REMARK    5  A    between atoms: N_9  and  C_11
REMARK    6  A    between atoms: C_13  and  N_21
REMARK    7  A    between atoms: C_15  and  S_17
REMARK    8  A    between atoms: S_17  and  N_20
REMARK                            x       y       z     vdW  Elec       q    Type
REMARK                         _______ _______ _______ _____ _____    ______ ____
ROOT
ATOM      1  C   UNL     1       3.340  -4.985   0.902  0.00  0.00    +0.033 A 
ATOM      2  C   UNL     1       3.947  -4.788  -0.330  0.00  0.00    +0.046 A 
ATOM      3  C   UNL     1       5.283  -5.119  -0.503  0.00  0.00    +0.028 A 
ATOM      4  C   UNL     1       6.009  -5.648   0.558  0.00  0.00    +0.051 A 
ATOM      5  C   UNL     1       5.402  -5.843   1.783  0.00  0.00    +0.108 A 
ATOM      6  C   UNL     1       4.073  -5.509   1.960  0.00  0.00    +0.051 A 
ENDROOT
BRANCH   5   7
ATOM      7  S   UNL     1       6.326  -6.513   3.125  0.00  0.00    +0.056 S 
ATOM      8  O   UNL     1       5.386  -7.107   4.010  0.00  0.00    -0.153 OA
ATOM      9  O   UNL     1       7.401  -7.246   2.553  0.00  0.00    -0.153 OA
BRANCH   7  10
ATOM     10  N   UNL     1       7.002  -5.239   3.939  0.00  0.00    -0.204 NA
ATOM     11  H   UNL     1       7.168  -5.305   4.892  0.00  0.00    +0.144 HD
ATOM     12  H   UNL     1       7.233  -4.426   3.462  0.00  0.00    +0.144 HD
ENDBRANCH   7  10
ENDBRANCH   5   7
BRANCH   3  13
ATOM     13  N   UNL     1       5.898  -4.922  -1.742  0.00  0.00    -0.358 N 
ATOM     14  H   UNL     1       5.391  -4.554  -2.482  0.00  0.00    +0.142 HD
ATOM     15  H   UNL     1       6.832  -5.154  -1.862  0.00  0.00    +0.142 HD
ENDBRANCH   3  13
BRANCH   1  16
ATOM     16  N   UNL     1       1.995  -4.653   1.081  0.00  0.00    -0.333 N 
ATOM     17  C   UNL     1       1.357  -4.856   2.383  0.00  0.00    +0.129 C 
BRANCH  16  18
ATOM     18  C   UNL     1       1.223  -4.101  -0.035  0.00  0.00    +0.108 C 
BRANCH  18  23
ATOM     19  C   UNL     1      -0.018   1.465   0.010  0.00  0.00    -0.096 C 
ATOM     20  N   UNL     1       0.002  -0.004   0.002  0.00  0.00    +0.378 N 
ATOM     21  C   UNL     1       0.681  -0.476  -1.210  0.00  0.00    -0.079 C 
ATOM     22  C   UNL     1       0.634  -2.005  -1.264  0.00  0.00    -0.014 C 
ATOM     23  C   UNL     1       1.336  -2.575  -0.029  0.00  0.00    +0.003 C 
ATOM     24  C   UNL     1       0.666  -2.018   1.230  0.00  0.00    -0.014 C 
ATOM     25  C   UNL     1       0.712  -0.489   1.192  0.00  0.00    -0.079 C 
ATOM     26  H   UNL     1      -0.945  -0.352   0.012  0.00  0.00    -0.082 HD
ENDBRANCH  18  23
ENDBRANCH  16  18
ENDBRANCH   1  16
TORSDOF 6
