REMARK  Name = ZINC20431701
REMARK  7 active torsions:
REMARK  status: ('A' for Active; 'I' for Inactive)
REMARK    1  A    between atoms: C_1  and  C_2
REMARK    2  A    between atoms: C_2  and  C_3
REMARK    3  A    between atoms: C_6  and  C_9
REMARK    4  A    between atoms: C_6  and  N_11
REMARK    5  A    between atoms: C_9  and  N_10
REMARK    6  A    between atoms: N_11  and  S_12
REMARK    7  A    between atoms: S_12  and  N_15
REMARK                            x       y       z     vdW  Elec       q    Type
REMARK                         _______ _______ _______ _____ _____    ______ ____
ROOT
ATOM      1  C   UNL     1      -3.366   1.081   0.528  0.00  0.00    -0.011 C 
ATOM      2  C   UNL     1      -2.633   0.872  -0.799  0.00  0.00    +0.005 C 
ATOM      3  C   UNL     1      -1.314   1.647  -0.781  0.00  0.00    +0.022 C 
ATOM      4  C   UNL     1      -0.441   1.141   0.369  0.00  0.00    +0.026 C 
ATOM      5  C   UNL     1      -1.173   1.350   1.696  0.00  0.00    +0.022 C 
ATOM      6  C   UNL     1      -2.492   0.574   1.678  0.00  0.00    +0.005 C 
ENDROOT
BRANCH   1   8
ATOM      7  C   UNL     1      -5.474   0.613   1.784  0.00  0.00    +0.004 C 
ATOM      8  C   UNL     1      -4.685   0.305   0.510  0.00  0.00    -0.000 C 
ENDBRANCH   1   8
BRANCH   4   9
ATOM      9  N   UNL     1      -0.166  -0.286   0.182  0.00  0.00    -0.175 NA
ATOM     10  H   UNL     1      -0.567  -1.021   0.894  0.00  0.00    +0.150 HD
BRANCH   9  11
ATOM     11  S   UNL     1       0.943  -0.774  -0.947  0.00  0.00    +0.097 S 
ATOM     12  O   UNL     1       1.895   0.274  -1.061  0.00  0.00    -0.141 OA
ATOM     13  O   UNL     1       1.310  -2.104  -0.606  0.00  0.00    -0.141 OA
BRANCH  11  14
ATOM     14  N   UNL     1       0.156  -0.859  -2.402  0.00  0.00    -0.167 NA
ATOM     15  C   UNL     1      -0.611  -2.057  -2.769  0.00  0.00    +0.110 C 
ATOM     16  C   UNL     1      -2.035  -1.626  -3.154  0.00  0.00    +0.017 C 
ATOM     17  C   UNL     1      -1.961  -0.565  -4.255  0.00  0.00    +0.003 C 
ATOM     18  C   UNL     1      -1.211   0.662  -3.732  0.00  0.00    +0.017 C 
ATOM     19  C   UNL     1       0.217   0.260  -3.352  0.00  0.00    +0.110 C 
ENDBRANCH  11  14
ENDBRANCH   9  11
ENDBRANCH   4   9
BRANCH   4  20
ATOM     20  C   UNL     1       0.878   1.916   0.387  0.00  0.00    -0.062 C 
BRANCH  20  21
ATOM     21  N   UNL     1       1.797   1.296   1.351  0.00  0.00    +0.379 N 
ATOM     22  H   UNL     1       2.746   1.853   1.363  0.00  0.00    -0.090 HD
ATOM     23  H   UNL     1       1.989   0.254   1.056  0.00  0.00    -0.090 HD
ATOM     24  H   UNL     1       1.346   1.317   2.353  0.00  0.00    -0.090 HD
ENDBRANCH  20  21
ENDBRANCH   4  20
TORSDOF 6
