REMARK  Name = ZINC43756842
REMARK  4 active torsions:
REMARK  status: ('A' for Active; 'I' for Inactive)
REMARK    1  A    between atoms: C_1  and  C_2
REMARK    2  A    between atoms: C_12  and  O_15
REMARK    3  A    between atoms: C_21  and  C_28
REMARK    4  A    between atoms: C_24  and  O_27
REMARK                            x       y       z     vdW  Elec       q    Type
REMARK                         _______ _______ _______ _____ _____    ______ ____
ROOT
ATOM      1  C   UNL     1      -0.019   1.526   0.010  0.00  0.00    +0.011 C 
ATOM      2  C   UNL     1       0.002  -0.004   0.002  0.00  0.00    -0.026 C 
ATOM      3  C   UNL     1       0.601  -0.552  -1.295  0.00  0.00    +0.007 C 
ATOM      4  C   UNL     1       2.115  -0.355  -1.333  0.00  0.00    +0.005 C 
ATOM      5  C   UNL     1       2.729  -1.131  -0.165  0.00  0.00    +0.006 C 
ATOM      6  C   UNL     1       2.221  -0.504   1.136  0.00  0.00    +0.063 C 
ATOM      7  C   UNL     1       0.738  -0.570   1.232  0.00  0.00    +0.008 C 
ATOM      8  C   UNL     1       0.231  -2.022   1.315  0.00  0.00    +0.036 C 
ATOM      9  C   UNL     1      -1.269  -1.900   0.958  0.00  0.00    +0.115 C 
ATOM     10  C   UNL     1      -1.424  -0.600   0.147  0.00  0.00    +0.038 C 
ATOM     11  C   UNL     1       2.894  -1.200   2.295  0.00  0.00    +0.137 C 
ATOM     12  O   UNL     1       2.248  -1.661   3.205  0.00  0.00    -0.297 OA
ATOM     13  C   UNL     1       4.404  -1.298   2.280  0.00  0.00    +0.078 C 
ATOM     14  C   UNL     1       4.850  -1.877   0.932  0.00  0.00    +0.005 C 
ATOM     15  C   UNL     1       4.252  -1.055  -0.212  0.00  0.00    -0.025 C 
ATOM     16  C   UNL     1       4.707   0.399  -0.078  0.00  0.00    +0.010 C 
ATOM     17  C   UNL     1       6.234   0.462  -0.158  0.00  0.00    +0.032 C 
ATOM     18  C   UNL     1       6.841  -0.375   0.971  0.00  0.00    +0.115 C 
ATOM     19  C   UNL     1       6.378  -1.817   0.845  0.00  0.00    +0.035 C 
ATOM     20  C   UNL     1       4.745  -1.608  -1.551  0.00  0.00    +0.012 C 
ENDROOT
BRANCH   9  21
ATOM     21  O   UNL     1      -1.677  -3.021   0.171  0.00  0.00    -0.392 OA
ATOM     22  H   UNL     1      -1.583  -3.872   0.620  0.00  0.00    +0.210 HD
ENDBRANCH   9  21
BRANCH  18  23
ATOM     23  O   UNL     1       8.266  -0.321   0.890  0.00  0.00    -0.392 OA
ATOM     24  H   UNL     1       8.631   0.571   0.968  0.00  0.00    +0.210 HD
ENDBRANCH  18  23
TORSDOF 2
