REMARK  Name = ZINC03466841
REMARK  7 active torsions:
REMARK  status: ('A' for Active; 'I' for Inactive)
REMARK    1  A    between atoms: C_1  and  C_2
REMARK    2  A    between atoms: C_4  and  C_27
REMARK    3  A    between atoms: C_9  and  S_11
REMARK    4  A    between atoms: S_11  and  C_12
REMARK    5  A    between atoms: C_12  and  C_14
REMARK    6  A    between atoms: C_12  and  C_15
REMARK    7  A    between atoms: N_17  and  C_18
REMARK                            x       y       z     vdW  Elec       q    Type
REMARK                         _______ _______ _______ _____ _____    ______ ____
ROOT
ATOM      1  C   UNL     1       0.007   0.013   0.006  0.00  0.00    +0.137 C 
ATOM      2  C   UNL     1      -0.008   1.543   0.026  0.00  0.00    +0.029 C 
ENDROOT
BRANCH   1   3
ATOM      3  C   UNL     1       0.733  -0.497   1.225  0.00  0.00    +0.230 C 
ATOM      4  O   UNL     1       1.912  -0.773   1.157  0.00  0.00    -0.274 OA
ATOM      5  N   UNL     1       0.071  -0.647   2.389  0.00  0.00    -0.283 N 
ATOM      6  H   UNL     1      -0.854  -0.366   2.461  0.00  0.00    +0.155 HD
BRANCH   5   7
ATOM      7  C   UNL     1       0.720  -1.209   3.496  0.00  0.00    +0.053 A 
ATOM      8  C   UNL     1       2.071  -0.968   3.706  0.00  0.00    +0.046 A 
ATOM      9  C   UNL     1       2.709  -1.523   4.799  0.00  0.00    +0.061 A 
ATOM     10  C   UNL     1       2.002  -2.320   5.684  0.00  0.00    +0.061 A 
ATOM     11  C   UNL     1       0.656  -2.562   5.477  0.00  0.00    +0.043 A 
ATOM     12  C   UNL     1       0.012  -2.005   4.388  0.00  0.00    +0.064 A 
ATOM     13 CL   UNL     1      -1.679  -2.303   4.132  0.00  0.00    -0.082 Cl
ATOM     14 CL   UNL     1       2.806  -3.015   7.057  0.00  0.00    -0.082 Cl
ATOM     15 CL   UNL     1       4.399  -1.222   5.063  0.00  0.00    -0.082 Cl
ENDBRANCH   5   7
ENDBRANCH   1   3
BRANCH   1  16
ATOM     16  S   UNL     1       0.856  -0.565  -1.489  0.00  0.00    -0.072 S 
BRANCH  16  25
ATOM     17  C   UNL     1      -4.533   2.392  -5.895  0.00  0.00    +0.066 C 
ATOM     18  C   UNL     1      -3.273   1.668  -5.498  0.00  0.00    +0.044 A 
ATOM     19  C   UNL     1      -2.441   1.126  -6.484  0.00  0.00    +0.046 A 
ATOM     20  C   UNL     1      -1.307   0.476  -6.111  0.00  0.00    +0.045 A 
ATOM     21  N   UNL     1      -1.012   0.370  -4.790  0.00  0.00    -0.200 N 
ATOM     22  C   UNL     1      -1.846   0.910  -3.852  0.00  0.00    +0.254 A 
ATOM     23  N   UNL     1      -2.960   1.549  -4.227  0.00  0.00    -0.216 NA
ATOM     24  N   UNL     1      -1.317   0.659  -2.659  0.00  0.00    -0.183 NA
ATOM     25  C   UNL     1      -0.181  -0.020  -2.805  0.00  0.00    +0.212 A 
ATOM     26  N   UNL     1       0.051  -0.215  -4.088  0.00  0.00    -0.137 NA
ATOM     27  C   UNL     1      -0.391  -0.119  -7.149  0.00  0.00    +0.066 C 
ENDBRANCH  16  25
ENDBRANCH   1  16
TORSDOF 4
