REMARK  Name = ZINC07913688
REMARK  9 active torsions:
REMARK  status: ('A' for Active; 'I' for Inactive)
REMARK    1  A    between atoms: C_1  and  N_2
REMARK    2  A    between atoms: N_2  and  C_3
REMARK    3  A    between atoms: N_2  and  C_17
REMARK    4  A    between atoms: C_3  and  C_4
REMARK    5  A    between atoms: N_6  and  C_7
REMARK    6  A    between atoms: C_10  and  O_13
REMARK    7  A    between atoms: O_13  and  C_14
REMARK    8  A    between atoms: C_17  and  C_18
REMARK    9  A    between atoms: N_20  and  C_21
REMARK                            x       y       z     vdW  Elec       q    Type
REMARK                         _______ _______ _______ _____ _____    ______ ____
ROOT
ATOM      1  C   UNL     1      -0.072   1.380   0.108  0.00  0.00    -0.095 C 
ATOM      2  N   UNL     1      -0.109  -0.087   0.065  0.00  0.00    +0.389 N 
ATOM      3  H   UNL     1       0.390  -0.413  -0.749  0.00  0.00    -0.081 HD
ENDROOT
BRANCH   2   4
ATOM      4  C   UNL     1       0.522  -0.629   1.276  0.00  0.00    +0.019 C 
BRANCH   4   5
ATOM      5  C   UNL     1       1.985  -0.268   1.284  0.00  0.00    +0.201 C 
ATOM      6  O   UNL     1       2.456   0.377   0.371  0.00  0.00    -0.278 OA
ATOM      7  N   UNL     1       2.771  -0.662   2.305  0.00  0.00    -0.287 N 
ATOM      8  H   UNL     1       2.382  -1.117   3.068  0.00  0.00    +0.155 HD
BRANCH   7   9
ATOM      9  C   UNL     1       4.149  -0.413   2.265  0.00  0.00    +0.034 A 
ATOM     10  C   UNL     1       5.037  -1.333   2.807  0.00  0.00    +0.027 A 
ATOM     11  C   UNL     1       6.395  -1.088   2.766  0.00  0.00    +0.047 A 
ATOM     12  C   UNL     1       6.873   0.078   2.186  0.00  0.00    +0.127 A 
ATOM     13  C   UNL     1       5.986   0.998   1.646  0.00  0.00    +0.047 A 
ATOM     14  C   UNL     1       4.628   0.751   1.680  0.00  0.00    +0.027 A 
BRANCH  12  15
ATOM     15  O   UNL     1       8.210   0.320   2.147  0.00  0.00    -0.434 OA
BRANCH  15  16
ATOM     16  C   UNL     1       8.632   1.540   1.535  0.00  0.00    +0.541 C 
ATOM     17  F   UNL     1       8.207   1.564   0.202  0.00  0.00    -0.166 F 
ATOM     18  F   UNL     1       8.074   2.623   2.222  0.00  0.00    -0.166 F 
ENDBRANCH  15  16
ENDBRANCH  12  15
ENDBRANCH   7   9
ENDBRANCH   4   5
ENDBRANCH   2   4
BRANCH   2  19
ATOM     19  C   UNL     1      -1.505  -0.540  -0.004  0.00  0.00    +0.019 C 
BRANCH  19  20
ATOM     20  C   UNL     1      -2.117  -0.087  -1.304  0.00  0.00    +0.201 C 
ATOM     21  O   UNL     1      -1.455   0.550  -2.097  0.00  0.00    -0.278 OA
ATOM     22  N   UNL     1      -3.399  -0.390  -1.588  0.00  0.00    -0.286 N 
ATOM     23  H   UNL     1      -3.953  -0.828  -0.922  0.00  0.00    +0.155 HD
BRANCH  22  24
ATOM     24  C   UNL     1      -3.933  -0.072  -2.842  0.00  0.00    +0.052 A 
ATOM     25  C   UNL     1      -3.095   0.062  -3.941  0.00  0.00    +0.025 A 
ATOM     26  C   UNL     1      -3.625   0.376  -5.177  0.00  0.00    +0.002 A 
ATOM     27  C   UNL     1      -4.988   0.557  -5.322  0.00  0.00    +0.002 A 
ATOM     28  C   UNL     1      -5.826   0.424  -4.230  0.00  0.00    +0.022 A 
ATOM     29  C   UNL     1      -5.303   0.105  -2.991  0.00  0.00    +0.062 A 
ATOM     30 CL   UNL     1      -6.356  -0.069  -1.622  0.00  0.00    -0.082 Cl
ENDBRANCH  22  24
ENDBRANCH  19  20
ENDBRANCH   2  19
TORSDOF 8
