REMARK  Name = ZINC45326736
REMARK  7 active torsions:
REMARK  status: ('A' for Active; 'I' for Inactive)
REMARK    1  A    between atoms: C_1  and  C_2
REMARK    2  A    between atoms: C_3  and  C_20
REMARK    3  A    between atoms: C_4  and  C_10
REMARK    4  A    between atoms: C_13  and  N_16
REMARK    5  A    between atoms: C_17  and  C_19
REMARK    6  A    between atoms: N_22  and  C_23
REMARK    7  A    between atoms: C_28  and  C_29
REMARK                            x       y       z     vdW  Elec       q    Type
REMARK                         _______ _______ _______ _____ _____    ______ ____
ROOT
ATOM      1  C   UNL     1      -0.233   1.381   0.577  0.00  0.00    +0.061 C 
ATOM      2  C   UNL     1      -0.197  -0.099   0.296  0.00  0.00    +0.017 C 
ATOM      3  C   UNL     1      -1.335  -0.738  -0.047  0.00  0.00    +0.056 C 
ATOM      4  C   UNL     1      -1.253  -2.226  -0.322  0.00  0.00    +0.139 C 
ATOM      5  N   UNL     1       0.071  -2.857  -0.191  0.00  0.00    -0.315 N 
ATOM      6  C   UNL     1       1.117  -2.084   0.161  0.00  0.00    +0.135 C 
ATOM      7  S   UNL     1       2.663  -2.804   0.317  0.00  0.00    -0.019 S 
ATOM      8  N   UNL     1       0.989  -0.771   0.387  0.00  0.00    -0.300 N 
ATOM      9  H   UNL     1       0.187  -3.806  -0.354  0.00  0.00    +0.149 HD
ATOM     10  H   UNL     1       1.782  -0.269   0.633  0.00  0.00    +0.154 HD
ENDROOT
BRANCH   4  11
ATOM     11  C   UNL     1      -1.745  -2.467  -1.726  0.00  0.00    -0.023 A 
ATOM     12  C   UNL     1      -0.883  -2.307  -2.796  0.00  0.00    +0.007 A 
ATOM     13  C   UNL     1      -1.331  -2.527  -4.084  0.00  0.00    +0.023 A 
ATOM     14  C   UNL     1      -2.647  -2.909  -4.304  0.00  0.00    +0.033 A 
ATOM     15  C   UNL     1      -3.510  -3.070  -3.228  0.00  0.00    +0.023 A 
ATOM     16  C   UNL     1      -3.055  -2.853  -1.942  0.00  0.00    +0.007 A 
BRANCH  14  17
ATOM     17  N   UNL     1      -3.104  -3.133  -5.608  0.00  0.00    -0.286 N 
ATOM     18  C   UNL     1      -2.280  -3.674  -6.527  0.00  0.00    +0.214 C 
ATOM     19  O   UNL     1      -1.119  -3.888  -6.250  0.00  0.00    -0.276 OA
ATOM     20  C   UNL     1      -2.802  -4.015  -7.899  0.00  0.00    +0.109 C 
ATOM     21  H   UNL     1      -4.013  -2.898  -5.850  0.00  0.00    +0.155 HD
ENDBRANCH  14  17
ENDBRANCH   4  11
BRANCH   3  22
ATOM     22  C   UNL     1      -2.564  -0.042  -0.147  0.00  0.00    +0.248 C 
ATOM     23  O   UNL     1      -3.405  -0.163   0.726  0.00  0.00    -0.270 OA
ATOM     24  N   UNL     1      -2.803   0.755  -1.208  0.00  0.00    -0.281 N 
ATOM     25  H   UNL     1      -2.164   0.797  -1.936  0.00  0.00    +0.155 HD
BRANCH  24  26
ATOM     26  C   UNL     1      -3.972   1.521  -1.257  0.00  0.00    +0.045 A 
ATOM     27  C   UNL     1      -4.684   1.780  -0.093  0.00  0.00    +0.024 A 
ATOM     28  C   UNL     1      -5.838   2.537  -0.146  0.00  0.00    +0.002 A 
ATOM     29  C   UNL     1      -6.285   3.036  -1.356  0.00  0.00    +0.001 A 
ATOM     30  C   UNL     1      -5.579   2.779  -2.517  0.00  0.00    +0.014 A 
ATOM     31  C   UNL     1      -4.421   2.028  -2.470  0.00  0.00    +0.076 A 
BRANCH  31  32
ATOM     32  C   UNL     1      -3.648   1.753  -3.734  0.00  0.00    +0.419 C 
ATOM     33  F   UNL     1      -4.241   2.437  -4.801  0.00  0.00    -0.166 F 
ATOM     34  F   UNL     1      -2.328   2.188  -3.578  0.00  0.00    -0.166 F 
ATOM     35  F   UNL     1      -3.659   0.379  -3.998  0.00  0.00    -0.166 F 
ENDBRANCH  31  32
ENDBRANCH  24  26
ENDBRANCH   3  22
TORSDOF 5
