REMARK  Name = ZINC65394123
REMARK  10 active torsions:
REMARK  status: ('A' for Active; 'I' for Inactive)
REMARK    1  A    between atoms: C_1  and  C_2
REMARK    2  A    between atoms: C_2  and  N_3
REMARK    3  A    between atoms: C_10  and  C_26
REMARK    4  A    between atoms: C_10  and  C_29
REMARK    5  A    between atoms: C_12  and  C_14
REMARK    6  A    between atoms: C_23  and  O_24
REMARK    7  A    between atoms: O_24  and  C_25
REMARK    8  A    between atoms: C_26  and  C_27
REMARK    9  A    between atoms: C_27  and  O_28
REMARK   10  A    between atoms: C_29  and  O_30
REMARK                            x       y       z     vdW  Elec       q    Type
REMARK                         _______ _______ _______ _____ _____    ______ ____
ROOT
ATOM      1  N   UNL     1       1.272  -0.702   1.139  0.00  0.00    +0.380 N 
ATOM      2  C   UNL     1       0.409  -0.271   2.268  0.00  0.00    -0.073 C 
ATOM      3  C   UNL     1       0.704  -1.282   3.395  0.00  0.00    -0.003 C 
ATOM      4  C   UNL     1       1.225  -2.550   2.666  0.00  0.00    -0.002 C 
ATOM      5  C   UNL     1       1.195  -2.185   1.167  0.00  0.00    -0.073 C 
ATOM      6  C   UNL     1       0.163  -3.633   2.949  0.00  0.00    +0.046 C 
ATOM      7  N   UNL     1      -1.081  -2.876   3.238  0.00  0.00    -0.301 NA
ATOM      8  C   UNL     1      -0.629  -1.704   4.047  0.00  0.00    +0.090 C 
ATOM      9  H   UNL     1      -1.523  -2.566   2.385  0.00  0.00    +0.123 HD
ATOM     10  H   UNL     1       2.223  -0.395   1.282  0.00  0.00    -0.082 HD
ENDROOT
BRANCH   8  11
ATOM     11  C   UNL     1      -1.625  -0.574   3.985  0.00  0.00    +0.019 A 
ATOM     12  C   UNL     1      -1.316   0.671   4.558  0.00  0.00    -0.010 A 
ATOM     13  C   UNL     1      -0.085   0.894   5.198  0.00  0.00    +0.009 A 
ATOM     14  C   UNL     1       0.180   2.113   5.742  0.00  0.00    +0.001 A 
ATOM     15  C   UNL     1      -0.752   3.147   5.675  0.00  0.00    +0.001 A 
ATOM     16  C   UNL     1      -1.955   2.967   5.063  0.00  0.00    +0.008 A 
ATOM     17  C   UNL     1      -2.264   1.722   4.489  0.00  0.00    -0.017 A 
ATOM     18  C   UNL     1      -3.496   1.502   3.849  0.00  0.00    +0.012 A 
ATOM     19  C   UNL     1      -3.764   0.285   3.304  0.00  0.00    +0.046 A 
ATOM     20  C   UNL     1      -2.829  -0.752   3.366  0.00  0.00    +0.125 A 
BRANCH  20  21
ATOM     21  O   UNL     1      -3.123  -1.956   2.807  0.00  0.00    -0.495 OA
ATOM     22  C   UNL     1      -4.398  -2.082   2.174  0.00  0.00    +0.277 C 
ENDBRANCH  20  21
ENDBRANCH   8  11
BRANCH   1  24
ATOM     23  C   UNL     1       0.954   1.331  -0.189  0.00  0.00    -0.017 C 
ATOM     24  C   UNL     1       0.750  -0.185  -0.133  0.00  0.00    -0.082 C 
ENDBRANCH   1  24
BRANCH   6  25
ATOM     25  C   UNL     1       0.568  -4.474   4.160  0.00  0.00    +0.052 C 
BRANCH  25  26
ATOM     26  C   UNL     1      -0.559  -5.449   4.505  0.00  0.00    +0.157 C 
BRANCH  26  27
ATOM     27  O   UNL     1      -0.142  -6.302   5.574  0.00  0.00    -0.395 OA
ATOM     28  H   UNL     1      -0.809  -6.947   5.845  0.00  0.00    +0.209 HD
ENDBRANCH  26  27
ENDBRANCH  25  26
ENDBRANCH   6  25
BRANCH   6  29
ATOM     29  C   UNL     1      -0.029  -4.525   1.720  0.00  0.00    +0.178 C 
BRANCH  29  30
ATOM     30  O   UNL     1       1.234  -5.053   1.312  0.00  0.00    -0.393 OA
ATOM     31  H   UNL     1       1.188  -5.628   0.536  0.00  0.00    +0.209 HD
ENDBRANCH  29  30
ENDBRANCH   6  29
TORSDOF 8
