REMARK  Name = ZINC54847529
REMARK  8 active torsions:
REMARK  status: ('A' for Active; 'I' for Inactive)
REMARK    1  A    between atoms: C_1  and  C_2
REMARK    2  A    between atoms: C_2  and  C_4
REMARK    3  A    between atoms: C_2  and  N_14
REMARK    4  A    between atoms: N_9  and  C_10
REMARK    5  A    between atoms: C_10  and  C_11
REMARK    6  A    between atoms: C_11  and  C_12
REMARK    7  A    between atoms: C_11  and  C_13
REMARK    8  A    between atoms: C_17  and  C_20
REMARK                            x       y       z     vdW  Elec       q    Type
REMARK                         _______ _______ _______ _____ _____    ______ ____
ROOT
ATOM      1  N   UNL     1       0.761  -0.908  -0.880  0.00  0.00    +0.387 N 
ATOM      2  C   UNL     1       0.629  -2.297  -0.424  0.00  0.00    -0.077 C 
ATOM      3  C   UNL     1       1.305  -3.233  -1.428  0.00  0.00    -0.006 C 
ATOM      4  C   UNL     1       2.788  -2.869  -1.539  0.00  0.00    +0.072 C 
ATOM      5  C   UNL     1       2.913  -1.397  -1.943  0.00  0.00    -0.006 C 
ATOM      6  C   UNL     1       2.178  -0.529  -0.920  0.00  0.00    -0.077 C 
ATOM      7  H   UNL     1       0.364  -0.820  -1.803  0.00  0.00    -0.081 HD
ENDROOT
BRANCH   4   8
ATOM      8  C   UNL     1       3.443  -3.736  -2.584  0.00  0.00    +0.219 C 
ATOM      9  O   UNL     1       3.565  -3.329  -3.720  0.00  0.00    -0.275 OA
ATOM     10  N   UNL     1       3.893  -4.963  -2.255  0.00  0.00    -0.297 N 
ATOM     11  C   UNL     1       3.831  -5.446  -0.867  0.00  0.00    +0.136 C 
ATOM     12  C   UNL     1       3.174  -6.831  -0.866  0.00  0.00    +0.179 C 
ATOM     13  O   UNL     1       3.850  -7.674  -1.802  0.00  0.00    -0.377 OA
ATOM     14  C   UNL     1       3.774  -7.224  -3.157  0.00  0.00    +0.179 C 
ATOM     15  C   UNL     1       4.457  -5.861  -3.276  0.00  0.00    +0.136 C 
ENDBRANCH   4   8
BRANCH   1  17
ATOM     16  C   UNL     1       0.170   1.427  -0.434  0.00  0.00    -0.004 C 
ATOM     17  C   UNL     1       0.044  -0.021   0.046  0.00  0.00    +0.017 C 
BRANCH  17  18
ATOM     18  C   UNL     1      -1.411  -0.410   0.090  0.00  0.00    +0.207 C 
ATOM     19  O   UNL     1      -1.914  -0.984  -0.852  0.00  0.00    -0.277 OA
ATOM     20  N   UNL     1      -2.154  -0.120   1.177  0.00  0.00    -0.242 N 
ATOM     21  C   UNL     1      -3.455  -0.469   1.216  0.00  0.00    +0.306 C 
ATOM     22  O   UNL     1      -3.959  -1.044   0.272  0.00  0.00    -0.252 OA
ATOM     23  N   UNL     1      -4.197  -0.179   2.303  0.00  0.00    -0.299 N 
ATOM     24  H   UNL     1      -1.751   0.339   1.931  0.00  0.00    +0.159 HD
ATOM     25  H   UNL     1      -3.795   0.280   3.057  0.00  0.00    +0.150 HD
BRANCH  23  26
ATOM     26  C   UNL     1      -5.612  -0.558   2.346  0.00  0.00    +0.108 C 
BRANCH  26  27
ATOM     27  C   UNL     1      -6.218  -0.117   3.680  0.00  0.00    -0.000 C 
ATOM     28  C   UNL     1      -6.205   1.411   3.766  0.00  0.00    +0.009 C 
ATOM     29  C   UNL     1      -7.659  -0.621   3.777  0.00  0.00    +0.009 C 
ENDBRANCH  26  27
ENDBRANCH  23  26
ENDBRANCH  17  18
ENDBRANCH   1  17
TORSDOF 5
