REMARK  Name = ZINC62786348
REMARK  2 active torsions:
REMARK  status: ('A' for Active; 'I' for Inactive)
REMARK    1  A    between atoms: C_3  and  C_14
REMARK    2  A    between atoms: C_4  and  N_8
REMARK                            x       y       z     vdW  Elec       q    Type
REMARK                         _______ _______ _______ _____ _____    ______ ____
ROOT
ATOM      1  C   UNL     1      -0.028   1.362   0.020  0.00  0.00    +0.021 A 
ATOM      2  C   UNL     1       1.119   2.040   0.374  0.00  0.00    +0.016 A 
ATOM      3  C   UNL     1       2.351   1.383   0.352  0.00  0.00    +0.062 A 
ATOM      4  C   UNL     1       2.413   0.035  -0.031  0.00  0.00    +0.079 A 
ATOM      5  C   UNL     1       1.249  -0.632  -0.385  0.00  0.00    +0.048 A 
ATOM      6  C   UNL     1       0.036   0.029  -0.358  0.00  0.00    +0.043 A 
ATOM      7 CL   UNL     1      -1.416  -0.812  -0.802  0.00  0.00    -0.083 Cl
ENDROOT
BRANCH   4   8
ATOM      8  N   UNL     1       3.639  -0.631  -0.058  0.00  0.00    -0.237 N 
ATOM      9  C   UNL     1       3.950  -1.760   0.631  0.00  0.00    +0.116 A 
ATOM     10  C   UNL     1       5.228  -2.084   0.334  0.00  0.00    +0.065 A 
ATOM     11  C   UNL     1       5.720  -1.124  -0.566  0.00  0.00    +0.138 A 
ATOM     12  N   UNL     1       4.764  -0.257  -0.804  0.00  0.00    -0.152 NA
ATOM     13  N   UNL     1       7.005  -1.099  -1.119  0.00  0.00    -0.342 N 
ATOM     14  H   UNL     1       7.646  -1.789  -0.886  0.00  0.00    +0.144 HD
ATOM     15  H   UNL     1       7.254  -0.393  -1.734  0.00  0.00    +0.144 HD
ENDBRANCH   4   8
BRANCH   3  16
ATOM     16  C   UNL     1       3.582   2.104   0.730  0.00  0.00    +0.244 C 
ATOM     17  O   UNL     1       4.636   1.504   0.816  0.00  0.00    -0.270 OA
ATOM     18  N   UNL     1       3.538   3.427   0.980  0.00  0.00    -0.325 N 
ATOM     19  H   UNL     1       2.697   3.906   0.912  0.00  0.00    +0.145 HD
ATOM     20  H   UNL     1       4.347   3.901   1.228  0.00  0.00    +0.145 HD
ENDBRANCH   3  16
TORSDOF 2
