REMARK  Name = ZINC38582409
REMARK  10 active torsions:
REMARK  status: ('A' for Active; 'I' for Inactive)
REMARK    1  A    between atoms: C_1  and  C_2
REMARK    2  A    between atoms: C_2  and  O_3
REMARK    3  A    between atoms: O_3  and  C_4
REMARK    4  A    between atoms: C_4  and  C_6
REMARK    5  A    between atoms: C_8  and  N_17
REMARK    6  A    between atoms: C_11  and  C_16
REMARK    7  A    between atoms: C_18  and  C_20
REMARK    8  A    between atoms: C_20  and  N_21
REMARK    9  A    between atoms: C_24  and  C_28
REMARK   10  A    between atoms: C_25  and  C_27
REMARK                            x       y       z     vdW  Elec       q    Type
REMARK                         _______ _______ _______ _____ _____    ______ ____
ROOT
ATOM      1  C   UNL     1      -2.696  -2.448  -0.088  0.00  0.00    +0.234 C 
ATOM      2  C   UNL     1      -3.522  -2.307  -1.347  0.00  0.00    +0.053 C 
ATOM      3  C   UNL     1      -3.970  -3.582  -1.647  0.00  0.00    +0.018 A 
ATOM      4  C   UNL     1      -4.776  -4.090  -2.694  0.00  0.00    +0.015 A 
ATOM      5  C   UNL     1      -5.062  -5.414  -2.741  0.00  0.00    -0.050 A 
ATOM      6  C   UNL     1      -4.578  -6.303  -1.776  0.00  0.00    +0.005 A 
ATOM      7  C   UNL     1      -3.801  -5.888  -0.747  0.00  0.00    +0.026 A 
ATOM      8  C   UNL     1      -3.459  -4.516  -0.629  0.00  0.00    +0.045 A 
ATOM      9  N   UNL     1      -2.732  -3.871   0.263  0.00  0.00    -0.367 N 
ATOM     10  C   UNL     1      -5.922  -5.942  -3.861  0.00  0.00    +0.044 C 
ATOM     11  H   UNL     1      -2.291  -4.273   1.028  0.00  0.00    +0.161 HD
ENDROOT
BRANCH   2  12
ATOM     12  N   UNL     1      -3.774  -1.163  -2.042  0.00  0.00    -0.285 N 
ATOM     13  C   UNL     1      -3.379   0.027  -1.546  0.00  0.00    +0.234 C 
ATOM     14  O   UNL     1      -2.710   0.071  -0.536  0.00  0.00    -0.274 OA
ATOM     15  H   UNL     1      -4.237  -1.204  -2.893  0.00  0.00    +0.155 HD
BRANCH  13  16
ATOM     16  C   UNL     1      -3.770   1.302  -2.247  0.00  0.00    +0.199 C 
BRANCH  16  17
ATOM     17  N   UNL     1      -3.223   2.448  -1.517  0.00  0.00    -0.315 N 
ATOM     18  C   UNL     1      -3.452   3.736  -1.976  0.00  0.00    +0.159 A 
ATOM     19  N   UNL     1      -4.136   4.118  -3.033  0.00  0.00    -0.230 NA
ATOM     20  C   UNL     1      -4.263   5.398  -3.337  0.00  0.00    +0.050 A 
ATOM     21  C   UNL     1      -3.661   6.289  -2.514  0.00  0.00    +0.011 A 
ATOM     22  S   UNL     1      -2.930   5.192  -1.311  0.00  0.00    -0.057 S 
ATOM     23  C   UNL     1      -3.623   7.794  -2.591  0.00  0.00    +0.053 C 
ATOM     24  C   UNL     1      -5.044   5.845  -4.546  0.00  0.00    +0.066 C 
ATOM     25  H   UNL     1      -2.699   2.306  -0.713  0.00  0.00    +0.148 HD
ENDBRANCH  16  17
ENDBRANCH  13  16
ENDBRANCH   2  12
BRANCH   1  26
ATOM     26  C   UNL     1      -1.277  -2.013  -0.347  0.00  0.00    +0.336 C 
ATOM     27  O   UNL     1      -0.529  -2.729  -0.969  0.00  0.00    -0.248 OA
BRANCH  26  28
ATOM     28  O   UNL     1      -0.843  -0.829   0.114  0.00  0.00    -0.463 OA
BRANCH  28  30
ATOM     29  C   UNL     1       0.823   0.893   0.432  0.00  0.00    +0.048 C 
ATOM     30  C   UNL     1       0.513  -0.480  -0.168  0.00  0.00    +0.229 C 
ENDBRANCH  28  30
ENDBRANCH  26  28
ENDBRANCH   1  26
TORSDOF 6
