REMARK  Name = ZINC09332687
REMARK  1 active torsions:
REMARK  status: ('A' for Active; 'I' for Inactive)
REMARK    1  A    between atoms: N_20  and  C_23
REMARK                            x       y       z     vdW  Elec       q    Type
REMARK                         _______ _______ _______ _____ _____    ______ ____
ROOT
ATOM      1  C   UNL     1       6.156  -1.490   4.944  0.00  0.00    +0.040 A 
ATOM      2  C   UNL     1       4.804  -1.631   4.711  0.00  0.00    +0.026 A 
ATOM      3  C   UNL     1       4.276  -1.345   3.454  0.00  0.00    +0.036 A 
ATOM      4  C   UNL     1       5.133  -0.919   2.443  0.00  0.00    -0.024 A 
ATOM      5  C   UNL     1       6.482  -0.780   2.679  0.00  0.00    +0.043 A 
ATOM      6  C   UNL     1       7.000  -1.065   3.932  0.00  0.00    +0.124 A 
ATOM      7  F   UNL     1       8.323  -0.928   4.166  0.00  0.00    -0.205 F 
ATOM      8  C   UNL     1       4.267  -0.701   1.234  0.00  0.00    +0.053 C 
ATOM      9  C   UNL     1       4.354   0.746   0.737  0.00  0.00    +0.089 C 
ATOM     10  C   UNL     1       4.273   0.637  -0.810  0.00  0.00    +0.074 C 
ATOM     11  C   UNL     1       4.140  -0.869  -1.102  0.00  0.00    -0.054 C 
ATOM     12  C   UNL     1       6.162  -1.477  -0.054  0.00  0.00    -0.076 C 
ATOM     13  C   UNL     1       6.412  -1.669  -1.563  0.00  0.00    -0.020 C 
ATOM     14  C   UNL     1       5.095  -1.253  -2.247  0.00  0.00    -0.016 C 
ATOM     15  C   UNL     1       2.967   1.324  -1.141  0.00  0.00    +0.228 C 
ATOM     16  O   UNL     1       2.510   1.461  -2.255  0.00  0.00    -0.275 OA
ATOM     17  N   UNL     1       2.397   1.761  -0.012  0.00  0.00    -0.209 N 
ATOM     18  C   UNL     1       3.087   1.488   1.101  0.00  0.00    +0.229 C 
ATOM     19  O   UNL     1       2.750   1.789   2.226  0.00  0.00    -0.275 OA
ATOM     20  C   UNL     1       2.873  -1.043   1.686  0.00  0.00    +0.212 C 
ATOM     21  O   UNL     1       1.863  -1.000   1.015  0.00  0.00    -0.277 OA
ATOM     22  N   UNL     1       2.963  -1.407   2.980  0.00  0.00    -0.286 N 
ATOM     23  H   UNL     1       2.204  -1.681   3.519  0.00  0.00    +0.155 HD
ATOM     24  N   UNL     1       4.694  -1.499   0.075  0.00  0.00    +0.395 N 
ATOM     25  H   UNL     1       4.361  -2.466   0.165  0.00  0.00    -0.079 HD
ENDROOT
BRANCH  17  26
ATOM     26  C   UNL     1       1.172   2.443   0.004  0.00  0.00    +0.064 A 
ATOM     27  C   UNL     1      -0.019   1.734   0.085  0.00  0.00    +0.045 A 
ATOM     28  C   UNL     1      -1.224   2.409   0.101  0.00  0.00    +0.043 A 
ATOM     29  C   UNL     1      -1.246   3.792   0.036  0.00  0.00    +0.021 A 
ATOM     30  C   UNL     1      -0.062   4.501  -0.039  0.00  0.00    +0.023 A 
ATOM     31  C   UNL     1       1.147   3.831  -0.061  0.00  0.00    +0.063 A 
ATOM     32 CL   UNL     1       2.633   4.722  -0.162  0.00  0.00    -0.082 Cl
ATOM     33 CL   UNL     1      -2.714   1.523   0.203  0.00  0.00    -0.083 Cl
ENDBRANCH  17  26
TORSDOF 1
