REMARK  Name = ZINC63251816
REMARK  4 active torsions:
REMARK  status: ('A' for Active; 'I' for Inactive)
REMARK    1  A    between atoms: C_4  and  C_7
REMARK    2  A    between atoms: C_10  and  N_13
REMARK    3  A    between atoms: N_13  and  C_14
REMARK    4  A    between atoms: C_22  and  N_29
REMARK                            x       y       z     vdW  Elec       q    Type
REMARK                         _______ _______ _______ _____ _____    ______ ____
ROOT
ATOM      1  C   UNL     1       4.360  -5.178   0.994  0.00  0.00    -0.045 C 
ATOM      2  C   UNL     1       4.164  -4.529   2.369  0.00  0.00    -0.013 C 
ATOM      3  C   UNL     1       4.509  -5.503   3.494  0.00  0.00    +0.003 C 
ATOM      4  C   UNL     1       3.547  -6.703   3.469  0.00  0.00    +0.033 C 
ATOM      5  C   UNL     1       3.554  -7.231   2.056  0.00  0.00    -0.040 C 
ATOM      6  C   UNL     1       3.734  -8.454   1.572  0.00  0.00    +0.001 A 
ATOM      7  C   UNL     1       3.872  -9.760   2.235  0.00  0.00    +0.042 A 
ATOM      8  C   UNL     1       4.071 -10.829   1.419  0.00  0.00    +0.127 A 
ATOM      9  C   UNL     1       4.145 -10.730   0.026  0.00  0.00    +0.035 A 
ATOM     10  C   UNL     1       4.019  -9.571  -0.668  0.00  0.00    +0.028 A 
ATOM     11  C   UNL     1       3.796  -8.378   0.080  0.00  0.00    +0.043 A 
ATOM     12  N   UNL     1       3.616  -7.154  -0.321  0.00  0.00    -0.379 N 
ATOM     13  C   UNL     1       3.356  -6.323   0.847  0.00  0.00    +0.092 C 
ATOM     14  H   UNL     1       3.651  -6.848  -1.241  0.00  0.00    +0.160 HD
ENDROOT
BRANCH   1  15
ATOM     15  N   UNL     1       4.129  -4.181  -0.059  0.00  0.00    +0.384 N 
ATOM     16  H   UNL     1       3.229  -3.745   0.081  0.00  0.00    -0.085 HD
ATOM     17  H   UNL     1       4.147  -4.633  -0.961  0.00  0.00    -0.085 HD
BRANCH  15  21
ATOM     18  C   UNL     1       6.135  -3.258  -2.773  0.00  0.00    +0.019 C 
ATOM     19  C   UNL     1       6.456  -4.374  -1.776  0.00  0.00    +0.006 C 
ATOM     20  C   UNL     1       6.527  -3.791  -0.363  0.00  0.00    -0.015 C 
ATOM     21  C   UNL     1       5.182  -3.158  -0.004  0.00  0.00    -0.071 C 
ATOM     22  C   UNL     1       4.861  -2.042  -1.001  0.00  0.00    -0.015 C 
ATOM     23  C   UNL     1       4.790  -2.625  -2.414  0.00  0.00    +0.006 C 
BRANCH  18  27
ATOM     24  C   UNL     1       5.937  -4.887  -6.716  0.00  0.00    +0.000 A 
ATOM     25  C   UNL     1       6.859  -3.900  -6.422  0.00  0.00    +0.000 A 
ATOM     26  C   UNL     1       6.923  -3.373  -5.146  0.00  0.00    +0.004 A 
ATOM     27  C   UNL     1       6.065  -3.832  -4.164  0.00  0.00    -0.044 A 
ATOM     28  C   UNL     1       5.143  -4.819  -4.459  0.00  0.00    +0.004 A 
ATOM     29  C   UNL     1       5.080  -5.347  -5.735  0.00  0.00    +0.000 A 
ENDBRANCH  18  27
ENDBRANCH  15  21
ENDBRANCH   1  15
BRANCH   8  30
ATOM     30  N   UNL     1       4.216 -12.166   2.036  0.00  0.00    +0.056 N 
ATOM     31  O   UNL     1       4.158 -12.287   3.237  0.00  0.00    -0.126 OA
ATOM     32  O   UNL     1       4.394 -13.138   1.339  0.00  0.00    -0.126 OA
ENDBRANCH   8  30
TORSDOF 4
