REMARK  Name = ZINC04523152
REMARK  8 active torsions:
REMARK  status: ('A' for Active; 'I' for Inactive)
REMARK    1  A    between atoms: C_1  and  C_2
REMARK    2  A    between atoms: C_4  and  C_22
REMARK    3  A    between atoms: C_5  and  N_11
REMARK    4  A    between atoms: C_6  and  S_8
REMARK    5  A    between atoms: N_12  and  C_13
REMARK    6  A    between atoms: C_15  and  C_21
REMARK    7  A    between atoms: C_16  and  N_20
REMARK    8  A    between atoms: C_18  and  C_19
REMARK                            x       y       z     vdW  Elec       q    Type
REMARK                         _______ _______ _______ _____ _____    ______ ____
ROOT
ATOM      1  N   UNL     1      -2.295  -0.078   0.043  0.00  0.00    -0.147 NA
ATOM      2  N   UNL     1      -1.319  -0.458   0.796  0.00  0.00    -0.149 NA
ENDROOT
BRANCH   1   7
ATOM      3  C   UNL     1      -7.141  -2.970   0.033  0.00  0.00    +0.044 C 
ATOM      4  C   UNL     1      -5.847  -2.198   0.035  0.00  0.00    -0.048 A 
ATOM      5  C   UNL     1      -4.644  -2.870  -0.085  0.00  0.00    +0.009 A 
ATOM      6  C   UNL     1      -3.455  -2.170  -0.083  0.00  0.00    -0.021 A 
ATOM      7  C   UNL     1      -3.469  -0.778   0.040  0.00  0.00    +0.116 A 
ATOM      8  C   UNL     1      -4.687  -0.106   0.166  0.00  0.00    +0.147 A 
ATOM      9  C   UNL     1      -5.868  -0.820   0.158  0.00  0.00    +0.035 A 
ATOM     10  C   UNL     1      -2.146  -2.905  -0.214  0.00  0.00    +0.046 C 
BRANCH   8  11
ATOM     11  S   UNL     1      -4.716   1.648   0.329  0.00  0.00    +0.142 S 
ATOM     12  O   UNL     1      -4.798   1.925   1.720  0.00  0.00    -0.140 OA
ATOM     13  O   UNL     1      -3.667   2.149  -0.488  0.00  0.00    -0.140 OA
ATOM     14  O   UNL     1      -6.019   2.136  -0.289  0.00  0.00    -0.043 OA
ENDBRANCH   8  11
ENDBRANCH   1   7
BRANCH   2  15
ATOM     15  C   UNL     1      -0.147   0.241   0.798  0.00  0.00    +0.089 A 
ATOM     16  C   UNL     1      -0.002   1.371  -0.015  0.00  0.00    +0.035 A 
ATOM     17  C   UNL     1       1.181   2.073  -0.009  0.00  0.00    -0.028 A 
ATOM     18  C   UNL     1       2.233   1.662   0.804  0.00  0.00    +0.028 A 
ATOM     19  C   UNL     1       2.093   0.538   1.614  0.00  0.00    +0.028 A 
ATOM     20  C   UNL     1       0.913  -0.169   1.614  0.00  0.00    -0.022 A 
ATOM     21  C   UNL     1       0.762  -1.385   2.492  0.00  0.00    +0.046 C 
ATOM     22  C   UNL     1       1.339   3.289  -0.885  0.00  0.00    +0.046 C 
BRANCH  18  23
ATOM     23  N   UNL     1       3.429   2.375   0.807  0.00  0.00    -0.358 N 
ATOM     24  H   UNL     1       4.163   2.089   1.373  0.00  0.00    +0.142 HD
ATOM     25  H   UNL     1       3.528   3.158   0.243  0.00  0.00    +0.142 HD
ENDBRANCH  18  23
ENDBRANCH   2  15
TORSDOF 4
