REMARK  Name = ZINC36823428
REMARK  8 active torsions:
REMARK  status: ('A' for Active; 'I' for Inactive)
REMARK    1  A    between atoms: C_1  and  C_2
REMARK    2  A    between atoms: C_2  and  C_3
REMARK    3  A    between atoms: C_3  and  C_25
REMARK    4  A    between atoms: N_6  and  C_10
REMARK    5  A    between atoms: C_10  and  C_11
REMARK    6  A    between atoms: N_16  and  C_17
REMARK    7  A    between atoms: C_20  and  O_23
REMARK    8  A    between atoms: O_23  and  C_24
REMARK                            x       y       z     vdW  Elec       q    Type
REMARK                         _______ _______ _______ _____ _____    ______ ____
ROOT
ATOM      1  C   UNL     1      -1.439  -0.536   0.012  0.00  0.00    +0.138 C 
ATOM      2  C   UNL     1      -2.215   0.038   1.180  0.00  0.00    +0.251 C 
ATOM      3  O   UNL     1      -1.976  -0.106   2.360  0.00  0.00    -0.272 OA
ATOM      4  N   UNL     1      -3.226   0.743   0.635  0.00  0.00    -0.215 N 
ATOM      5  C   UNL     1      -3.197   0.694  -0.702  0.00  0.00    +0.310 C 
ATOM      6  O   UNL     1      -4.007   1.252  -1.416  0.00  0.00    -0.252 OA
ATOM      7  N   UNL     1      -2.172  -0.042  -1.167  0.00  0.00    -0.281 N 
ATOM      8  H   UNL     1      -1.956  -0.214  -2.097  0.00  0.00    +0.152 HD
ENDROOT
BRANCH   1   9
ATOM      9  C   UNL     1      -1.452  -2.042   0.051  0.00  0.00    -0.015 A 
ATOM     10  C   UNL     1      -0.430  -2.726   0.682  0.00  0.00    +0.007 A 
ATOM     11  C   UNL     1      -0.442  -4.108   0.719  0.00  0.00    +0.020 A 
ATOM     12  C   UNL     1      -1.477  -4.807   0.124  0.00  0.00    +0.041 A 
ATOM     13  C   UNL     1      -2.500  -4.122  -0.508  0.00  0.00    +0.020 A 
ATOM     14  C   UNL     1      -2.490  -2.740  -0.539  0.00  0.00    +0.007 A 
ATOM     15 CL   UNL     1      -1.492  -6.542   0.169  0.00  0.00    -0.084 Cl
ENDBRANCH   1   9
BRANCH   1  17
ATOM     16  C   UNL     1      -0.017   1.518   0.024  0.00  0.00    +0.007 C 
ATOM     17  C   UNL     1      -0.002  -0.012   0.011  0.00  0.00    +0.037 C 
ENDBRANCH   1  17
BRANCH   4  18
ATOM     18  C   UNL     1      -4.234   1.471   1.410  0.00  0.00    +0.214 C 
BRANCH  18  19
ATOM     19  C   UNL     1      -3.758   2.881   1.652  0.00  0.00    +0.238 C 
ATOM     20  O   UNL     1      -2.684   3.241   1.220  0.00  0.00    -0.274 OA
ATOM     21  N   UNL     1      -4.527   3.741   2.349  0.00  0.00    -0.239 N 
ATOM     22  C   UNL     1      -4.102   5.001   2.566  0.00  0.00    +0.310 C 
ATOM     23  O   UNL     1      -3.025   5.362   2.133  0.00  0.00    -0.252 OA
ATOM     24  N   UNL     1      -4.871   5.861   3.263  0.00  0.00    -0.269 N 
ATOM     25  H   UNL     1      -5.386   3.453   2.695  0.00  0.00    +0.159 HD
ATOM     26  H   UNL     1      -5.758   5.595   3.551  0.00  0.00    +0.156 HD
BRANCH  24  27
ATOM     27  C   UNL     1      -4.388   7.140   3.572  0.00  0.00    +0.035 A 
ATOM     28  C   UNL     1      -4.724   7.736   4.780  0.00  0.00    +0.027 A 
ATOM     29  C   UNL     1      -4.248   8.996   5.084  0.00  0.00    +0.047 A 
ATOM     30  C   UNL     1      -3.436   9.667   4.181  0.00  0.00    +0.120 A 
ATOM     31  C   UNL     1      -3.101   9.073   2.974  0.00  0.00    +0.047 A 
ATOM     32  C   UNL     1      -3.571   7.810   2.671  0.00  0.00    +0.027 A 
BRANCH  30  33
ATOM     33  O   UNL     1      -2.968  10.908   4.481  0.00  0.00    -0.495 OA
ATOM     34  C   UNL     1      -2.136  11.541   3.506  0.00  0.00    +0.277 C 
ENDBRANCH  30  33
ENDBRANCH  24  27
ENDBRANCH  18  19
ENDBRANCH   4  18
TORSDOF 6
