REMARK  Name = ZINC09347860
REMARK  6 active torsions:
REMARK  status: ('A' for Active; 'I' for Inactive)
REMARK    1  A    between atoms: C_3  and  C_6
REMARK    2  A    between atoms: N_10  and  C_14
REMARK    3  A    between atoms: C_14  and  C_15
REMARK    4  A    between atoms: N_17  and  C_18
REMARK    5  A    between atoms: C_18  and  C_19
REMARK    6  A    between atoms: C_19  and  C_20
REMARK                            x       y       z     vdW  Elec       q    Type
REMARK                         _______ _______ _______ _____ _____    ______ ____
ROOT
ATOM      1  C   UNL     1       7.697   2.827   1.363  0.00  0.00    +0.231 C 
ATOM      2  O   UNL     1       6.925   2.926   2.293  0.00  0.00    -0.274 OA
ATOM      3  N   UNL     1       9.013   2.650   1.596  0.00  0.00    -0.314 N 
ATOM      4  H   UNL     1       9.630   2.571   0.852  0.00  0.00    +0.149 HD
ENDROOT
BRANCH   1   5
ATOM      5  C   UNL     1       7.185   2.902  -0.052  0.00  0.00    +0.213 C 
BRANCH   5  10
ATOM      6  C   UNL     1       2.503   1.367  -0.015  0.00  0.00    +0.035 C 
ATOM      7  C   UNL     1       3.526   2.268  -0.020  0.00  0.00    +0.080 C 
ATOM      8  C   UNL     1       4.936   2.042  -0.029  0.00  0.00    +0.261 C 
ATOM      9  O   UNL     1       5.389   0.912  -0.033  0.00  0.00    -0.269 OA
ATOM     10  N   UNL     1       5.733   3.096  -0.037  0.00  0.00    -0.219 N 
ATOM     11  C   UNL     1       5.229   4.350  -0.024  0.00  0.00    +0.286 C 
ATOM     12  O   UNL     1       5.825   5.411  -0.023  0.00  0.00    -0.262 OA
ATOM     13  S   UNL     1       3.468   4.055  -0.008  0.00  0.00    -0.026 S 
BRANCH   6  16
ATOM     14  C   UNL     1      -1.192   1.777   0.017  0.00  0.00    +0.008 A 
ATOM     15  C   UNL     1      -0.013   1.076   0.008  0.00  0.00    +0.015 A 
ATOM     16  C   UNL     1       1.163   1.819   0.001  0.00  0.00    +0.013 A 
ATOM     17  S   UNL     1       0.539   3.490   0.016  0.00  0.00    -0.097 S 
ATOM     18  C   UNL     1      -1.157   3.136   0.030  0.00  0.00    +0.046 A 
ENDBRANCH   6  16
ENDBRANCH   5  10
ENDBRANCH   1   5
BRANCH   3  19
ATOM     19  C   UNL     1       9.510   2.577   2.972  0.00  0.00    +0.109 C 
BRANCH  19  20
ATOM     20  C   UNL     1      11.027   2.374   2.956  0.00  0.00    +0.056 C 
BRANCH  20  21
ATOM     21  C   UNL     1      11.538   2.300   4.371  0.00  0.00    -0.021 A 
ATOM     22  C   UNL     1      12.045   3.313   5.092  0.00  0.00    +0.087 A 
ATOM     23  N   UNL     1      12.402   2.868   6.335  0.00  0.00    -0.360 N 
ATOM     24  H   UNL     1      12.789   3.418   7.034  0.00  0.00    +0.165 HD
ATOM     25  C   UNL     1      12.136   1.521   6.445  0.00  0.00    +0.047 A 
ATOM     26  C   UNL     1      11.583   1.106   5.220  0.00  0.00    +0.004 A 
ATOM     27  C   UNL     1      11.212  -0.227   5.038  0.00  0.00    +0.030 A 
ATOM     28  C   UNL     1      11.390  -1.130   6.063  0.00  0.00    +0.042 A 
ATOM     29  C   UNL     1      11.935  -0.719   7.273  0.00  0.00    +0.022 A 
ATOM     30  C   UNL     1      12.306   0.593   7.467  0.00  0.00    +0.027 A 
ATOM     31 CL   UNL     1      10.930  -2.789   5.842  0.00  0.00    -0.084 Cl
ENDBRANCH  20  21
ENDBRANCH  19  20
ENDBRANCH   3  19
TORSDOF 6
