REMARK  Name = ZINC00642594
REMARK  6 active torsions:
REMARK  status: ('A' for Active; 'I' for Inactive)
REMARK    1  A    between atoms: C_1  and  C_2
REMARK    2  A    between atoms: C_3  and  C_22
REMARK    3  A    between atoms: N_9  and  N_21
REMARK    4  A    between atoms: C_10  and  S_12
REMARK    5  A    between atoms: S_12  and  C_13
REMARK    6  A    between atoms: C_13  and  C_14
REMARK                            x       y       z     vdW  Elec       q    Type
REMARK                         _______ _______ _______ _____ _____    ______ ____
ROOT
ATOM      1  C   UNL     1       4.021  -1.952  -0.047  0.00  0.00    +0.045 C 
ATOM      2  C   UNL     1       3.758  -0.468  -0.036  0.00  0.00    -0.026 A 
ATOM      3  C   UNL     1       4.779   0.402  -0.041  0.00  0.00    -0.008 A 
ATOM      4  S   UNL     1       3.970   1.990  -0.025  0.00  0.00    -0.073 S 
ATOM      5  C   UNL     1       2.283   1.440  -0.012  0.00  0.00    +0.117 A 
ATOM      6  C   UNL     1       2.396   0.037  -0.021  0.00  0.00    +0.077 A 
ATOM      7  C   UNL     1       1.162  -0.686  -0.013  0.00  0.00    +0.280 A 
ATOM      8  O   UNL     1       1.161  -1.905  -0.020  0.00  0.00    -0.265 OA
ATOM      9  N   UNL     1       0.002  -0.004   0.002  0.00  0.00    -0.209 N 
ATOM     10  C   UNL     1      -0.016   1.361   0.009  0.00  0.00    +0.190 A 
ATOM     11  N   UNL     1       1.105   2.052   0.003  0.00  0.00    -0.215 NA
ATOM     12  C   UNL     1       6.257   0.107  -0.056  0.00  0.00    +0.052 C 
ENDROOT
BRANCH   9  13
ATOM     13  N   UNL     1      -1.179  -0.690   0.009  0.00  0.00    -0.293 N 
ATOM     14  H   UNL     1      -1.965  -0.057   0.020  0.00  0.00    +0.163 HD
ATOM     15  H   UNL     1      -1.235  -1.323  -0.775  0.00  0.00    +0.163 HD
ENDBRANCH   9  13
BRANCH  10  16
ATOM     16  S   UNL     1      -1.561   2.209   0.021  0.00  0.00    -0.081 S 
BRANCH  16  17
ATOM     17  C   UNL     1      -0.978   3.923   0.028  0.00  0.00    +0.114 C 
BRANCH  17  18
ATOM     18  C   UNL     1      -2.161   4.856   0.039  0.00  0.00    -0.019 A 
ATOM     19  C   UNL     1      -2.706   5.295  -1.153  0.00  0.00    +0.006 A 
ATOM     20  C   UNL     1      -3.794   6.147  -1.144  0.00  0.00    +0.000 A 
ATOM     21  C   UNL     1      -4.332   6.569   0.058  0.00  0.00    +0.001 A 
ATOM     22  C   UNL     1      -3.785   6.134   1.250  0.00  0.00    +0.020 A 
ATOM     23  C   UNL     1      -2.699   5.277   1.241  0.00  0.00    +0.045 A 
ATOM     24 CL   UNL     1      -2.011   4.732   2.739  0.00  0.00    -0.083 Cl
ENDBRANCH  17  18
ENDBRANCH  16  17
ENDBRANCH  10  16
TORSDOF 4
