REMARK  Name = ZINC39672866
REMARK  8 active torsions:
REMARK  status: ('A' for Active; 'I' for Inactive)
REMARK    1  A    between atoms: C_1  and  C_2
REMARK    2  A    between atoms: C_2  and  C_4
REMARK    3  A    between atoms: C_2  and  O_33
REMARK    4  A    between atoms: C_8  and  C_17
REMARK    5  A    between atoms: N_19  and  C_20
REMARK    6  A    between atoms: C_20  and  C_21
REMARK    7  A    between atoms: C_21  and  N_27
REMARK    8  A    between atoms: O_33  and  C_34
REMARK                            x       y       z     vdW  Elec       q    Type
REMARK                         _______ _______ _______ _____ _____    ______ ____
ROOT
ATOM      1  C   UNL     1       0.106   1.473  -1.585  0.00  0.00    +0.256 C 
ATOM      2  O   UNL     1      -0.548   1.884  -0.650  0.00  0.00    -0.272 OA
ATOM      3  N   UNL     1      -0.354   1.613  -2.844  0.00  0.00    -0.297 N 
ATOM      4  C   UNL     1      -1.667   2.146  -3.276  0.00  0.00    +0.121 C 
ATOM      5  C   UNL     1      -1.352   2.990  -4.532  0.00  0.00    +0.100 C 
ATOM      6  C   UNL     1      -0.035   2.409  -5.074  0.00  0.00    -0.004 C 
ATOM      7  C   UNL     1       0.342   1.276  -4.109  0.00  0.00    +0.115 C 
ATOM      8  C   UNL     1       1.053   3.478  -5.075  0.00  0.00    -0.010 C 
ATOM      9  C   UNL     1       2.337   2.893  -5.671  0.00  0.00    -0.082 C 
ATOM     10  N   UNL     1       2.076   2.431  -7.040  0.00  0.00    +0.379 N 
ATOM     11  C   UNL     1       1.096   1.339  -7.021  0.00  0.00    -0.082 C 
ATOM     12  C   UNL     1      -0.240   1.858  -6.482  0.00  0.00    -0.010 C 
ATOM     13  H   UNL     1       1.714   3.197  -7.588  0.00  0.00    -0.086 HD
ATOM     14  H   UNL     1       2.937   2.103  -7.452  0.00  0.00    -0.086 HD
ENDROOT
BRANCH   5  15
ATOM     15  C   UNL     1      -1.175   4.439  -4.160  0.00  0.00    +0.218 C 
ATOM     16  O   UNL     1      -0.701   4.735  -3.083  0.00  0.00    -0.275 OA
ATOM     17  N   UNL     1      -1.544   5.406  -5.022  0.00  0.00    -0.313 N 
ATOM     18  H   UNL     1      -1.990   5.172  -5.852  0.00  0.00    +0.149 HD
BRANCH  17  19
ATOM     19  C   UNL     1      -1.272   6.811  -4.708  0.00  0.00    +0.126 C 
BRANCH  19  20
ATOM     20  C   UNL     1      -1.928   7.706  -5.762  0.00  0.00    +0.038 C 
ATOM     21  C   UNL     1      -1.505   7.243  -7.158  0.00  0.00    +0.024 C 
ATOM     22  C   UNL     1       0.016   7.335  -7.287  0.00  0.00    +0.002 C 
ATOM     23  C   UNL     1       0.460   8.783  -7.073  0.00  0.00    +0.000 C 
ATOM     24  C   UNL     1       0.038   9.246  -5.677  0.00  0.00    +0.002 C 
ATOM     25  C   UNL     1      -1.484   9.154  -5.549  0.00  0.00    +0.024 C 
BRANCH  20  26
ATOM     26  N   UNL     1      -3.389   7.618  -5.638  0.00  0.00    -0.291 NA
ATOM     27  C   UNL     1      -3.839   8.123  -4.333  0.00  0.00    +0.113 C 
ATOM     28  C   UNL     1      -5.367   8.069  -4.270  0.00  0.00    +0.175 C 
ATOM     29  O   UNL     1      -5.802   6.728  -4.511  0.00  0.00    -0.377 OA
ATOM     30  C   UNL     1      -5.383   6.205  -5.774  0.00  0.00    +0.175 C 
ATOM     31  C   UNL     1      -3.854   6.240  -5.852  0.00  0.00    +0.113 C 
ENDBRANCH  20  26
ENDBRANCH  19  20
ENDBRANCH  17  19
ENDBRANCH   5  15
BRANCH   1  33
ATOM     32  C   UNL     1       1.319  -0.690  -1.649  0.00  0.00    +0.062 C 
ATOM     33  C   UNL     1       1.434   0.804  -1.338  0.00  0.00    +0.256 C 
BRANCH  33  34
ATOM     34  O   UNL     1       1.808   0.978   0.030  0.00  0.00    -0.480 OA
BRANCH  34  35
ATOM     35  C   UNL     1       3.133   0.893   0.323  0.00  0.00    +0.122 A 
ATOM     36  C   UNL     1       4.051   0.625  -0.682  0.00  0.00    +0.045 A 
ATOM     37  C   UNL     1       5.397   0.539  -0.382  0.00  0.00    +0.004 A 
ATOM     38  C   UNL     1       5.829   0.720   0.919  0.00  0.00    +0.000 A 
ATOM     39  C   UNL     1       4.916   0.987   1.923  0.00  0.00    +0.004 A 
ATOM     40  C   UNL     1       3.570   1.080   1.626  0.00  0.00    +0.045 A 
ENDBRANCH  34  35
ENDBRANCH  33  34
ENDBRANCH   1  33
TORSDOF 7
