REMARK  Name = ZINC37996587
REMARK  6 active torsions:
REMARK  status: ('A' for Active; 'I' for Inactive)
REMARK    1  A    between atoms: C_1  and  S_2
REMARK    2  A    between atoms: S_2  and  N_5
REMARK    3  A    between atoms: N_5  and  C_6
REMARK    4  A    between atoms: C_6  and  C_7
REMARK    5  A    between atoms: C_14  and  C_16
REMARK    6  A    between atoms: C_19  and  N_22
REMARK                            x       y       z     vdW  Elec       q    Type
REMARK                         _______ _______ _______ _____ _____    ______ ____
ROOT
ATOM      1  C   UNL     1       2.621  -1.135  -2.548  0.00  0.00    +0.091 C 
ATOM      2  C   UNL     1       4.137  -1.079  -2.763  0.00  0.00    +0.024 C 
ATOM      3  C   UNL     1       4.531  -2.076  -3.854  0.00  0.00    +0.003 C 
ATOM      4  C   UNL     1       3.843  -1.696  -5.168  0.00  0.00    +0.019 C 
ATOM      5  C   UNL     1       2.324  -1.760  -4.980  0.00  0.00    +0.108 C 
ATOM      6  N   UNL     1       1.950  -0.916  -3.837  0.00  0.00    -0.297 N 
ATOM      7  C   UNL     1       1.012   0.043  -3.968  0.00  0.00    +0.219 C 
ATOM      8  O   UNL     1       0.794   0.808  -3.052  0.00  0.00    -0.275 OA
ENDROOT
BRANCH   7   9
ATOM      9  C   UNL     1       0.234   0.166  -5.253  0.00  0.00    +0.075 C 
ATOM     10  C   UNL     1       1.097   0.863  -6.307  0.00  0.00    +0.011 C 
ATOM     11  C   UNL     1       0.308   0.987  -7.612  0.00  0.00    -0.016 C 
ATOM     12  C   UNL     1      -0.959   1.809  -7.365  0.00  0.00    -0.075 C 
ATOM     13  C   UNL     1      -1.822   1.112  -6.311  0.00  0.00    -0.016 C 
ATOM     14  C   UNL     1      -1.033   0.987  -5.006  0.00  0.00    +0.011 C 
BRANCH  12  15
ATOM     15  N   UNL     1      -1.717   1.928  -8.617  0.00  0.00    +0.380 N 
ATOM     16  H   UNL     1      -1.972   1.008  -8.945  0.00  0.00    -0.090 HD
ATOM     17  H   UNL     1      -2.553   2.470  -8.454  0.00  0.00    -0.090 HD
ATOM     18  H   UNL     1      -1.148   2.388  -9.312  0.00  0.00    -0.090 HD
ENDBRANCH  12  15
ENDBRANCH   7   9
BRANCH   1  19
ATOM     19  C   UNL     1       2.202  -0.045  -1.560  0.00  0.00    +0.128 C 
BRANCH  19  20
ATOM     20  N   UNL     1       0.791  -0.220  -1.209  0.00  0.00    -0.193 NA
ATOM     21  H   UNL     1       0.223  -0.789  -1.752  0.00  0.00    +0.148 HD
BRANCH  20  23
ATOM     22  C   UNL     1       0.270   2.320  -0.285  0.00  0.00    +0.214 C 
ATOM     23  S   UNL     1       0.164   0.553   0.115  0.00  0.00    +0.027 S 
ATOM     24  O   UNL     1       1.056   0.237   1.175  0.00  0.00    -0.158 OA
ATOM     25  O   UNL     1      -1.195   0.143   0.165  0.00  0.00    -0.158 OA
ENDBRANCH  20  23
ENDBRANCH  19  20
ENDBRANCH   1  19
TORSDOF 5
