REMARK  Name = ZINC02858189
REMARK  9 active torsions:
REMARK  status: ('A' for Active; 'I' for Inactive)
REMARK    1  A    between atoms: C_1  and  C_2
REMARK    2  A    between atoms: C_2  and  O_3
REMARK    3  A    between atoms: O_3  and  C_4
REMARK    4  A    between atoms: C_4  and  C_6
REMARK    5  A    between atoms: C_10  and  N_11
REMARK    6  A    between atoms: N_11  and  C_12
REMARK    7  A    between atoms: C_12  and  N_14
REMARK    8  A    between atoms: N_14  and  N_15
REMARK    9  A    between atoms: C_20  and  N_57
REMARK                            x       y       z     vdW  Elec       q    Type
REMARK                         _______ _______ _______ _____ _____    ______ ____
ROOT
ATOM      1  C   UNL     1      -1.620   2.964   2.922  0.00  0.00    +0.091 A 
ATOM      2  C   UNL     1      -0.691   2.796   1.798  0.00  0.00    -0.021 A 
ATOM      3  C   UNL     1      -0.742   1.584   1.224  0.00  0.00    -0.004 A 
ATOM      4  S   UNL     1      -1.892   0.646   2.198  0.00  0.00    -0.077 S 
ATOM      5  C   UNL     1      -2.371   1.875   3.318  0.00  0.00    +0.086 A 
ATOM      6  C   UNL     1      -0.013   1.086   0.008  0.00  0.00    +0.043 C 
ATOM      7  C   UNL     1      -0.783   1.609  -1.217  0.00  0.00    +0.005 C 
ATOM      8  C   UNL     1      -0.934   3.129  -1.077  0.00  0.00    +0.000 C 
ATOM      9  C   UNL     1       0.477   3.675  -1.077  0.00  0.00    +0.000 C 
ATOM     10  C   UNL     1       1.164   3.617   0.277  0.00  0.00    +0.005 C 
ATOM     11  C   UNL     1       0.225   3.962   1.425  0.00  0.00    +0.037 C 
ENDROOT
BRANCH   1  12
ATOM     12  C   UNL     1      -1.742   4.250   3.610  0.00  0.00    +0.342 C 
ATOM     13  O   UNL     1      -2.553   5.072   3.225  0.00  0.00    -0.245 OA
BRANCH  12  14
ATOM     14  O   UNL     1      -0.956   4.525   4.671  0.00  0.00    -0.461 OA
BRANCH  14  16
ATOM     15  C   UNL     1      -0.161   5.949   6.480  0.00  0.00    +0.048 C 
ATOM     16  C   UNL     1      -1.132   5.820   5.304  0.00  0.00    +0.229 C 
ENDBRANCH  14  16
ENDBRANCH  12  14
ENDBRANCH   1  12
BRANCH   5  17
ATOM     17  N   UNL     1      -3.287   1.789   4.354  0.00  0.00    -0.290 N 
ATOM     18  H   UNL     1      -3.463   2.563   4.912  0.00  0.00    +0.154 HD
BRANCH  17  19
ATOM     19  C   UNL     1      -3.934   0.629   4.587  0.00  0.00    +0.149 C 
ATOM     20  S   UNL     1      -3.623  -0.737   3.603  0.00  0.00    -0.017 S 
BRANCH  19  21
ATOM     21  N   UNL     1      -4.824   0.545   5.595  0.00  0.00    -0.260 N 
ATOM     22  H   UNL     1      -5.290  -0.289   5.763  0.00  0.00    +0.168 HD
BRANCH  21  23
ATOM     23  N   UNL     1      -5.072   1.636   6.380  0.00  0.00    -0.231 NA
ATOM     24  C   UNL     1      -4.667   1.386   7.771  0.00  0.00    +0.087 C 
ATOM     25  C   UNL     1      -4.886   2.654   8.599  0.00  0.00    -0.062 C 
ATOM     26  C   UNL     1      -6.706   3.294   7.136  0.00  0.00    -0.062 C 
ATOM     27  C   UNL     1      -6.487   2.026   6.309  0.00  0.00    +0.087 C 
ATOM     28  C   UNL     1      -6.568   4.217   9.371  0.00  0.00    -0.096 C 
ATOM     29  N   UNL     1      -6.316   3.023   8.536  0.00  0.00    +0.380 N 
ATOM     30  H   UNL     1      -6.878   2.241   8.894  0.00  0.00    -0.082 HD
ENDBRANCH  21  23
ENDBRANCH  19  21
ENDBRANCH  17  19
ENDBRANCH   5  17
TORSDOF 7
