REMARK  Name = ZINC12465937
REMARK  10 active torsions:
REMARK  status: ('A' for Active; 'I' for Inactive)
REMARK    1  A    between atoms: C_1  and  C_2
REMARK    2  A    between atoms: C_4  and  C_10
REMARK    3  A    between atoms: C_6  and  C_9
REMARK    4  A    between atoms: C_7  and  O_8
REMARK    5  A    between atoms: C_10  and  N_68
REMARK    6  A    between atoms: C_11  and  C_12
REMARK    7  A    between atoms: C_11  and  N_68
REMARK    8  A    between atoms: C_17  and  N_70
REMARK    9  A    between atoms: C_22  and  C_23
REMARK   10  A    between atoms: C_22  and  N_68
REMARK                            x       y       z     vdW  Elec       q    Type
REMARK                         _______ _______ _______ _____ _____    ______ ____
ROOT
ATOM      1  N   UNL     1      -2.214   1.046   1.353  0.00  0.00    +0.384 N 
ATOM      2  H   UNL     1      -2.231   0.019   1.361  0.00  0.00    -0.081 HD
ENDROOT
BRANCH   1   3
ATOM      3  C   UNL     1      -2.897   1.547   2.564  0.00  0.00    -0.043 C 
BRANCH   3   7
ATOM      4  C   UNL     1       0.308   1.640   6.406  0.00  0.00    +0.047 C 
ATOM      5  C   UNL     1      -0.756   0.928   5.611  0.00  0.00    -0.009 A 
ATOM      6  C   UNL     1      -1.313   1.535   4.502  0.00  0.00    +0.008 A 
ATOM      7  C   UNL     1      -2.290   0.882   3.774  0.00  0.00    -0.063 A 
ATOM      8  C   UNL     1      -2.716  -0.376   4.156  0.00  0.00    +0.008 A 
ATOM      9  C   UNL     1      -2.158  -0.990   5.260  0.00  0.00    -0.009 A 
ATOM     10  C   UNL     1      -1.178  -0.337   5.994  0.00  0.00    +0.123 A 
ATOM     11  C   UNL     1      -2.619  -2.364   5.673  0.00  0.00    +0.047 C 
BRANCH  10  12
ATOM     12  O   UNL     1      -0.632  -0.936   7.085  0.00  0.00    -0.506 OA
ATOM     13  H   UNL     1      -1.097  -0.747   7.911  0.00  0.00    +0.292 HD
ENDBRANCH  10  12
ENDBRANCH   3   7
ENDBRANCH   1   3
BRANCH   1  14
ATOM     14  C   UNL     1      -0.809   1.503   1.339  0.00  0.00    -0.075 C 
BRANCH  14  15
ATOM     15  C   UNL     1      -0.034   0.679   0.308  0.00  0.00    -0.031 C 
ATOM     16  C   UNL     1       1.408   1.186   0.225  0.00  0.00    -0.017 C 
ATOM     17  C   UNL     1       2.192   0.319  -0.763  0.00  0.00    -0.078 C 
ATOM     18  C   UNL     1       0.800  -1.602  -0.270  0.00  0.00    -0.078 C 
ATOM     19  C   UNL     1      -0.025  -0.792   0.733  0.00  0.00    -0.017 C 
ATOM     20  N   UNL     1       2.183  -1.080  -0.285  0.00  0.00    +0.382 N 
ATOM     21  H   UNL     1       2.561  -1.108   0.670  0.00  0.00    -0.081 HD
BRANCH  20  22
ATOM     22  C   UNL     1       3.030  -1.917  -1.160  0.00  0.00    -0.069 C 
ATOM     23  C   UNL     1       3.132  -3.337  -0.566  0.00  0.00    -0.015 C 
ATOM     24  C   UNL     1       4.597  -3.759  -0.842  0.00  0.00    -0.002 C 
ATOM     25  C   UNL     1       5.380  -2.443  -0.612  0.00  0.00    -0.002 C 
ATOM     26  C   UNL     1       4.459  -1.349  -1.189  0.00  0.00    -0.015 C 
ENDBRANCH  20  22
ENDBRANCH  14  15
ENDBRANCH   1  14
BRANCH   1  27
ATOM     27  C   UNL     1      -2.914   1.527   0.143  0.00  0.00    -0.046 C 
BRANCH  27  28
ATOM     28  C   UNL     1      -4.209   0.729  -0.025  0.00  0.00    +0.102 C 
ATOM     29  C   UNL     1      -4.878   1.069  -1.376  0.00  0.00    +0.032 C 
ATOM     30  C   UNL     1      -6.390   1.058  -1.058  0.00  0.00    +0.030 C 
ATOM     31  C   UNL     1      -6.456   0.713   0.446  0.00  0.00    +0.160 C 
ATOM     32  O   UNL     1      -5.175   1.121   0.974  0.00  0.00    -0.378 OA
ENDBRANCH  27  28
ENDBRANCH   1  27
TORSDOF 8
