REMARK  Name = ZINC52095188
REMARK  2 active torsions:
REMARK  status: ('A' for Active; 'I' for Inactive)
REMARK    1  A    between atoms: C_1  and  C_2
REMARK    2  A    between atoms: C_2  and  C_4
REMARK                            x       y       z     vdW  Elec       q    Type
REMARK                         _______ _______ _______ _____ _____    ______ ____
ROOT
ATOM      1  C   UNL     1       0.731  -0.503   1.223  0.00  0.00    -0.018 A 
ATOM      2  C   UNL     1       0.031  -0.754   2.387  0.00  0.00    +0.033 A 
ATOM      3  C   UNL     1       0.702  -1.213   3.510  0.00  0.00    +0.067 A 
ATOM      4  C   UNL     1       2.082  -1.421   3.460  0.00  0.00    +0.068 A 
ATOM      5  C   UNL     1       2.776  -1.167   2.288  0.00  0.00    +0.043 A 
ATOM      6  C   UNL     1       2.099  -0.714   1.171  0.00  0.00    +0.024 A 
ATOM      7 BR   UNL     1       3.044  -0.376  -0.431  0.00  0.00    -0.050 Br
ATOM      8  N   UNL     1       2.466  -1.876   4.719  0.00  0.00    -0.306 N 
ATOM      9  H   UNL     1       3.369  -2.106   4.988  0.00  0.00    +0.170 HD
ATOM     10  C   UNL     1       1.371  -1.942   5.499  0.00  0.00    +0.325 A 
ATOM     11  O   UNL     1       1.359  -2.303   6.661  0.00  0.00    -0.247 OA
ATOM     12  N   UNL     1       0.290  -1.549   4.798  0.00  0.00    -0.306 N 
ATOM     13  H   UNL     1      -0.619  -1.506   5.133  0.00  0.00    +0.170 HD
ENDROOT
BRANCH   1  15
ATOM     14  C   UNL     1      -0.385  -1.191  -0.882  0.00  0.00    +0.024 C 
ATOM     15  C   UNL     1       0.002  -0.004   0.002  0.00  0.00    +0.085 C 
ATOM     16 BR   UNL     1      -1.621   0.957   0.555  0.00  0.00    -0.083 Br
ENDBRANCH   1  15
TORSDOF 1
