REMARK  Name = ZINC39993670
REMARK  11 active torsions:
REMARK  status: ('A' for Active; 'I' for Inactive)
REMARK    1  A    between atoms: C_1  and  C_2
REMARK    2  A    between atoms: C_5  and  C_38
REMARK    3  A    between atoms: C_6  and  N_8
REMARK    4  A    between atoms: C_9  and  C_11
REMARK    5  A    between atoms: C_17  and  C_24
REMARK    6  A    between atoms: N_25  and  C_28
REMARK    7  A    between atoms: C_26  and  N_27
REMARK    8  A    between atoms: C_28  and  C_29
REMARK    9  A    between atoms: C_29  and  C_30
REMARK   10  A    between atoms: C_33  and  O_36
REMARK   11  A    between atoms: O_36  and  C_37
REMARK                            x       y       z     vdW  Elec       q    Type
REMARK                         _______ _______ _______ _____ _____    ______ ____
ROOT
ATOM      1  C   UNL     1       0.273  -2.881   4.823  0.00  0.00    +0.076 A 
ATOM      2  C   UNL     1       0.403  -4.272   4.810  0.00  0.00    +0.033 A 
ATOM      3  C   UNL     1       0.521  -4.928   6.033  0.00  0.00    +0.083 A 
ATOM      4  C   UNL     1       0.508  -4.180   7.241  0.00  0.00    +0.150 A 
ATOM      5  N   UNL     1       0.623  -4.829   8.404  0.00  0.00    -0.211 NA
ATOM      6  C   UNL     1       0.749  -6.149   8.468  0.00  0.00    +0.145 A 
ATOM      7  C   UNL     1       0.865  -6.754   9.739  0.00  0.00    -0.007 A 
ATOM      8  C   UNL     1       0.995  -8.105   9.832  0.00  0.00    +0.008 A 
ATOM      9  C   UNL     1       1.013  -8.883   8.664  0.00  0.00    +0.019 A 
ATOM     10  C   UNL     1       0.902  -8.291   7.455  0.00  0.00    +0.096 A 
ATOM     11  N   UNL     1       0.770  -6.937   7.348  0.00  0.00    -0.267 N 
ATOM     12  C   UNL     1       0.661  -6.383   6.118  0.00  0.00    +0.268 A 
ATOM     13  O   UNL     1       0.679  -7.072   5.114  0.00  0.00    -0.267 OA
ATOM     14  C   UNL     1       0.844  -5.907  10.985  0.00  0.00    +0.047 C 
ATOM     15  N   UNL     1       0.382  -2.852   7.203  0.00  0.00    -0.313 N 
ATOM     16  C   UNL     1       0.273  -2.200   6.060  0.00  0.00    +0.110 A 
ENDROOT
BRANCH   1  18
ATOM     17  N   UNL     1       0.045  -2.798   2.393  0.00  0.00    -0.281 N 
ATOM     18  C   UNL     1       0.144  -2.134   3.562  0.00  0.00    +0.252 C 
ATOM     19  O   UNL     1       0.127  -0.918   3.574  0.00  0.00    -0.270 OA
ATOM     20  H   UNL     1      -0.022  -3.765   2.388  0.00  0.00    +0.155 HD
BRANCH  17  26
ATOM     21  C   UNL     1       1.256   1.226  -0.159  0.00  0.00    +0.044 C 
ATOM     22  C   UNL     1       0.620  -0.138  -0.080  0.00  0.00    -0.049 A 
ATOM     23  C   UNL     1       0.031  -0.693  -1.202  0.00  0.00    +0.004 A 
ATOM     24  C   UNL     1      -0.553  -1.944  -1.133  0.00  0.00    +0.005 A 
ATOM     25  C   UNL     1      -0.550  -2.645   0.058  0.00  0.00    -0.029 A 
ATOM     26  C   UNL     1       0.041  -2.091   1.186  0.00  0.00    +0.037 A 
ATOM     27  C   UNL     1       0.632  -0.836   1.112  0.00  0.00    +0.027 A 
ATOM     28  C   UNL     1      -1.187  -4.008   0.132  0.00  0.00    +0.045 C 
ENDBRANCH  17  26
ENDBRANCH   1  18
BRANCH  16  29
ATOM     29  N   UNL     1       0.150  -0.826   6.075  0.00  0.00    -0.344 N 
ATOM     30  H   UNL     1       0.140  -0.331   5.241  0.00  0.00    +0.144 HD
ATOM     31  H   UNL     1       0.074  -0.355   6.920  0.00  0.00    +0.144 HD
ENDBRANCH  16  29
BRANCH  15  32
ATOM     32  C   UNL     1       0.370  -2.098   8.459  0.00  0.00    +0.129 C 
BRANCH  32  33
ATOM     33  C   UNL     1       1.801  -1.702   8.829  0.00  0.00    +0.057 C 
BRANCH  33  34
ATOM     34  C   UNL     1       1.789  -0.927  10.122  0.00  0.00    -0.045 A 
ATOM     35  C   UNL     1       1.654   0.449  10.100  0.00  0.00    +0.007 A 
ATOM     36  C   UNL     1       1.643   1.161  11.284  0.00  0.00    +0.046 A 
ATOM     37  C   UNL     1       1.768   0.495  12.494  0.00  0.00    +0.120 A 
ATOM     38  C   UNL     1       1.903  -0.885  12.513  0.00  0.00    +0.046 A 
ATOM     39  C   UNL     1       1.908  -1.594  11.327  0.00  0.00    +0.007 A 
BRANCH  37  40
ATOM     40  O   UNL     1       1.758   1.194  13.660  0.00  0.00    -0.495 OA
ATOM     41  C   UNL     1       1.891   0.443  14.868  0.00  0.00    +0.277 C 
ENDBRANCH  37  40
ENDBRANCH  33  34
ENDBRANCH  32  33
ENDBRANCH  15  32
TORSDOF 7
