REMARK  Name = ZINC09191714
REMARK  5 active torsions:
REMARK  status: ('A' for Active; 'I' for Inactive)
REMARK    1  A    between atoms: C_1  and  C_2
REMARK    2  A    between atoms: C_9  and  N_32
REMARK    3  A    between atoms: C_10  and  C_30
REMARK    4  A    between atoms: N_18  and  C_21
REMARK    5  A    between atoms: C_21  and  C_22
REMARK                            x       y       z     vdW  Elec       q    Type
REMARK                         _______ _______ _______ _____ _____    ______ ____
ROOT
ATOM      1  C   UNL     1      -0.018   1.503   0.010  0.00  0.00    +0.065 C 
ATOM      2  C   UNL     1       0.002  -0.004   0.002  0.00  0.00    +0.042 A 
ATOM      3  C   UNL     1       0.008  -0.789  -1.085  0.00  0.00    +0.061 A 
ATOM      4  C   UNL     1       0.029  -2.136  -0.653  0.00  0.00    +0.245 A 
ATOM      5  N   UNL     1       0.034  -2.140   0.647  0.00  0.00    -0.135 NA
ATOM      6  N   UNL     1       0.024  -0.808   1.090  0.00  0.00    -0.278 N 
ATOM      7  H   UNL     1       0.029  -0.515   2.015  0.00  0.00    +0.189 HD
ATOM      8  O   UNL     1       0.041  -3.173  -1.533  0.00  0.00    -0.421 OA
ATOM      9  C   UNL     1       0.296  -2.896  -2.827  0.00  0.00    +0.201 C 
ATOM     10  C   UNL     1       0.293  -1.652  -3.357  0.00  0.00    +0.110 C 
ATOM     11  C   UNL     1      -0.005  -0.424  -2.543  0.00  0.00    +0.145 C 
ATOM     12  C   UNL     1      -1.310   0.189  -2.938  0.00  0.00    -0.001 A 
ATOM     13  C   UNL     1      -2.597  -0.304  -2.915  0.00  0.00    +0.007 A 
ATOM     14  C   UNL     1      -3.606   0.544  -3.360  0.00  0.00    +0.000 A 
ATOM     15  C   UNL     1      -3.327   1.821  -3.804  0.00  0.00    +0.002 A 
ATOM     16  C   UNL     1      -2.036   2.323  -3.831  0.00  0.00    +0.024 A 
ATOM     17  C   UNL     1      -1.014   1.482  -3.388  0.00  0.00    +0.041 A 
ATOM     18  N   UNL     1       0.347   1.719  -3.308  0.00  0.00    -0.265 N 
ATOM     19  C   UNL     1       1.019   0.653  -2.824  0.00  0.00    +0.241 C 
ATOM     20  O   UNL     1       2.216   0.574  -2.648  0.00  0.00    -0.274 OA
ENDROOT
BRANCH   9  21
ATOM     21  N   UNL     1       0.579  -3.947  -3.663  0.00  0.00    -0.328 N 
ATOM     22  H   UNL     1       0.590  -4.853  -3.317  0.00  0.00    +0.145 HD
ATOM     23  H   UNL     1       0.767  -3.784  -4.601  0.00  0.00    +0.145 HD
ENDBRANCH   9  21
BRANCH  10  24
ATOM     24  C   UNL     1       0.585  -1.499  -4.751  0.00  0.00    +0.102 C 
ATOM     25  N   UNL     1       0.816  -1.377  -5.856  0.00  0.00    -0.191 NA
ENDBRANCH  10  24
BRANCH  18  26
ATOM     26  C   UNL     1       0.984   2.978  -3.703  0.00  0.00    +0.148 C 
BRANCH  26  27
ATOM     27  C   UNL     1       1.038   3.907  -2.517  0.00  0.00    -0.028 A 
ATOM     28  C   UNL     1      -0.010   4.775  -2.271  0.00  0.00    +0.007 A 
ATOM     29  C   UNL     1       0.039   5.628  -1.184  0.00  0.00    +0.022 A 
ATOM     30  C   UNL     1       1.136   5.612  -0.341  0.00  0.00    +0.059 A 
ATOM     31  C   UNL     1       2.185   4.742  -0.588  0.00  0.00    +0.060 A 
ATOM     32  C   UNL     1       2.132   3.886  -1.673  0.00  0.00    +0.026 A 
ATOM     33 CL   UNL     1       3.563   4.722   0.468  0.00  0.00    -0.082 Cl
ATOM     34 CL   UNL     1       1.198   6.683   1.024  0.00  0.00    -0.082 Cl
ENDBRANCH  26  27
ENDBRANCH  18  26
TORSDOF 4
