REMARK  Name = ZINC20707206
REMARK  5 active torsions:
REMARK  status: ('A' for Active; 'I' for Inactive)
REMARK    1  A    between atoms: C_4  and  O_33
REMARK    2  A    between atoms: C_5  and  C_7
REMARK    3  A    between atoms: C_20  and  C_23
REMARK    4  A    between atoms: N_25  and  C_26
REMARK    5  A    between atoms: C_26  and  C_27
REMARK                            x       y       z     vdW  Elec       q    Type
REMARK                         _______ _______ _______ _____ _____    ______ ____
ROOT
ATOM      1  C   UNL     1      -5.768   2.470  -5.230  0.00  0.00    +0.108 C 
ATOM      2  C   UNL     1      -6.696   1.303  -5.496  0.00  0.00    +0.029 C 
ATOM      3  C   UNL     1      -7.875   1.524  -6.450  0.00  0.00    +0.033 C 
ATOM      4  C   UNL     1      -8.903   0.532  -5.899  0.00  0.00    -0.030 C 
ATOM      5  C   UNL     1      -8.677   0.317  -4.608  0.00  0.00    -0.023 C 
ATOM      6  C   UNL     1      -7.529   1.155  -4.185  0.00  0.00    +0.049 C 
ATOM      7  C   UNL     1      -6.585   0.745  -3.123  0.00  0.00    -0.019 A 
ATOM      8  C   UNL     1      -6.971  -0.077  -2.087  0.00  0.00    +0.006 A 
ATOM      9  C   UNL     1      -6.082  -0.420  -1.082  0.00  0.00    +0.001 A 
ATOM     10  C   UNL     1      -4.791   0.061  -1.115  0.00  0.00    +0.015 A 
ATOM     11  C   UNL     1      -4.383   0.893  -2.155  0.00  0.00    +0.058 A 
ATOM     12  C   UNL     1      -5.278   1.237  -3.189  0.00  0.00    +0.044 A 
ATOM     13  N   UNL     1      -4.795   2.028  -4.218  0.00  0.00    -0.336 N 
ATOM     14  H   UNL     1      -3.740   2.327  -4.302  0.00  0.00    +0.147 HD
ENDROOT
BRANCH   1  19
ATOM     15  C   UNL     1      -3.135   2.701  -7.926  0.00  0.00    +0.001 A 
ATOM     16  C   UNL     1      -3.734   3.562  -8.828  0.00  0.00    +0.004 A 
ATOM     17  C   UNL     1      -4.991   4.072  -8.568  0.00  0.00    +0.046 A 
ATOM     18  C   UNL     1      -5.656   3.715  -7.403  0.00  0.00    +0.122 A 
ATOM     19  C   UNL     1      -5.051   2.856  -6.498  0.00  0.00    +0.014 A 
ATOM     20  C   UNL     1      -3.793   2.349  -6.762  0.00  0.00    +0.009 A 
BRANCH  18  21
ATOM     21  O   UNL     1      -6.895   4.211  -7.148  0.00  0.00    -0.506 OA
ATOM     22  H   UNL     1      -7.421   3.927  -6.225  0.00  0.00    +0.292 HD
ENDBRANCH  18  21
ENDBRANCH   1  19
BRANCH  11  23
ATOM     23  C   UNL     1      -3.003   1.412  -2.178  0.00  0.00    +0.246 C 
ATOM     24  O   UNL     1      -2.640   2.135  -3.087  0.00  0.00    -0.270 OA
ATOM     25  N   UNL     1      -2.144   1.086  -1.192  0.00  0.00    -0.309 N 
ATOM     26  H   UNL     1      -2.472   0.433  -0.370  0.00  0.00    +0.149 HD
BRANCH  25  27
ATOM     27  C   UNL     1      -0.773   1.602  -1.215  0.00  0.00    +0.136 C 
BRANCH  27  28
ATOM     28  C   UNL     1      -0.013   1.086   0.008  0.00  0.00    +0.135 C 
ATOM     29  C   UNL     1       1.429   1.629  -0.003  0.00  0.00    +0.035 C 
ATOM     30  C   UNL     1       1.553   2.402   1.333  0.00  0.00    +0.031 C 
ATOM     31  C   UNL     1       0.413   1.778   2.177  0.00  0.00    +0.160 C 
ATOM     32  O   UNL     1      -0.639   1.560   1.212  0.00  0.00    -0.375 OA
ENDBRANCH  27  28
ENDBRANCH  25  27
ENDBRANCH  11  23
TORSDOF 5
