REMARK  Name = ZINC34927019
REMARK  2 active torsions:
REMARK  status: ('A' for Active; 'I' for Inactive)
REMARK    1  A    between atoms: C_1  and  C_2
REMARK    2  A    between atoms: C_6  and  C_8
REMARK                            x       y       z     vdW  Elec       q    Type
REMARK                         _______ _______ _______ _____ _____    ______ ____
ROOT
ATOM      1  C   UNL     1       0.050  -2.683   2.519  0.00  0.00    +0.209 C 
ATOM      2  N   UNL     1       0.766  -3.956   2.395  0.00  0.00    -0.303 N 
ATOM      3  C   UNL     1       2.072  -4.056   2.691  0.00  0.00    +0.138 C 
ATOM      4  N   UNL     1       2.773  -3.022   3.194  0.00  0.00    -0.270 N 
ATOM      5  C   UNL     1       2.135  -1.810   3.414  0.00  0.00    +0.180 C 
ATOM      6  N   UNL     1       0.747  -1.847   3.512  0.00  0.00    -0.294 N 
ATOM      7  N   UNL     1       2.799  -0.696   3.525  0.00  0.00    -0.272 NA
ATOM      8  S   UNL     1       2.872  -5.545   2.419  0.00  0.00    -0.018 S 
ATOM      9  H   UNL     1       0.286  -4.744   2.095  0.00  0.00    +0.150 HD
ATOM     10  H   UNL     1       2.326   0.137   3.679  0.00  0.00    +0.189 HD
ATOM     11  H   UNL     1       0.264  -1.353   4.194  0.00  0.00    +0.151 HD
ATOM     12  H   UNL     1       3.716  -3.124   3.401  0.00  0.00    +0.156 HD
ENDROOT
BRANCH   1  18
ATOM     13  C   UNL     1      -0.018   1.503   0.010  0.00  0.00    +0.065 C 
ATOM     14  C   UNL     1       0.002  -0.004   0.002  0.00  0.00    +0.039 A 
ATOM     15  C   UNL     1       0.005  -0.681  -1.203  0.00  0.00    +0.023 A 
ATOM     16  C   UNL     1       0.024  -2.067  -1.200  0.00  0.00    +0.004 A 
ATOM     17  C   UNL     1       0.039  -2.724   0.021  0.00  0.00    +0.027 A 
ATOM     18  C   UNL     1       0.035  -1.980   1.186  0.00  0.00    +0.080 A 
ATOM     19  N   UNL     1       0.022  -0.662   1.145  0.00  0.00    -0.253 NA
ENDBRANCH   1  18
TORSDOF 1
