REMARK  Name = ZINC17111188
REMARK  2 active torsions:
REMARK  status: ('A' for Active; 'I' for Inactive)
REMARK    1  A    between atoms: C_11  and  O_16
REMARK    2  A    between atoms: C_14  and  O_15
REMARK                            x       y       z     vdW  Elec       q    Type
REMARK                         _______ _______ _______ _____ _____    ______ ____
ROOT
ATOM      1  C   UNL     1      -0.018   1.474   0.010  0.00  0.00    +0.050 C 
ATOM      2  C   UNL     1       1.139   2.168   0.003  0.00  0.00    +0.050 C 
ATOM      3  C   UNL     1       2.433   1.454  -0.001  0.00  0.00    +0.168 C 
ATOM      4  O   UNL     1       3.462   2.019  -0.305  0.00  0.00    -0.292 OA
ATOM      5  C   UNL     1       2.427  -0.003   0.386  0.00  0.00    +0.142 C 
ATOM      6  C   UNL     1       1.289  -0.682  -0.396  0.00  0.00    +0.142 C 
ATOM      7  C   UNL     1       0.002  -0.004   0.002  0.00  0.00    +0.168 C 
ATOM      8  O   UNL     1      -0.980  -0.648   0.304  0.00  0.00    -0.292 OA
ATOM      9  C   UNL     1       1.289  -2.147  -0.061  0.00  0.00    +0.106 C 
ATOM     10  C   UNL     1       2.471  -2.769   0.072  0.00  0.00    +0.045 C 
ATOM     11  C   UNL     1       3.719  -2.014  -0.124  0.00  0.00    +0.045 C 
ATOM     12  C   UNL     1       3.722  -0.684   0.042  0.00  0.00    +0.106 C 
ENDROOT
BRANCH  12  13
ATOM     13  O   UNL     1       4.863   0.032  -0.117  0.00  0.00    -0.510 OA
ATOM     14  H   UNL     1       5.637  -0.505  -0.338  0.00  0.00    +0.292 HD
ENDBRANCH  12  13
BRANCH   9  15
ATOM     15  O   UNL     1       0.124  -2.823   0.103  0.00  0.00    -0.510 OA
ATOM     16  H   UNL     1       0.239  -3.759   0.317  0.00  0.00    +0.292 HD
ENDBRANCH   9  15
TORSDOF 2
