REMARK  Name = ZINC40800099
REMARK  4 active torsions:
REMARK  status: ('A' for Active; 'I' for Inactive)
REMARK    1  A    between atoms: C_11  and  N_25
REMARK    2  A    between atoms: C_12  and  N_16
REMARK    3  A    between atoms: N_16  and  C_17
REMARK    4  A    between atoms: C_17  and  C_18
REMARK                            x       y       z     vdW  Elec       q    Type
REMARK                         _______ _______ _______ _____ _____    ______ ____
ROOT
ATOM      1  C   UNL     1       0.110   0.271  -2.090  0.00  0.00    +0.002 A 
ATOM      2  C   UNL     1       1.315   0.806  -2.524  0.00  0.00    +0.002 A 
ATOM      3  C   UNL     1       2.492   0.489  -1.881  0.00  0.00    +0.028 A 
ATOM      4  C   UNL     1       2.471  -0.371  -0.792  0.00  0.00    +0.075 A 
ATOM      5  C   UNL     1       1.252  -0.913  -0.353  0.00  0.00    +0.089 A 
ATOM      6  C   UNL     1       0.071  -0.578  -1.020  0.00  0.00    +0.030 A 
ATOM      7  N   UNL     1       1.532  -1.708   0.713  0.00  0.00    -0.235 NA
ATOM      8  C   UNL     1       2.811  -1.689   0.950  0.00  0.00    +0.206 A 
ATOM      9  N   UNL     1       3.441  -0.880   0.052  0.00  0.00    -0.281 N 
ATOM     10  C   UNL     1       4.811  -0.616  -0.006  0.00  0.00    +0.165 A 
ATOM     11  C   UNL     1       5.736  -1.659   0.035  0.00  0.00    +0.108 A 
ATOM     12  C   UNL     1       7.095  -1.338  -0.026  0.00  0.00    +0.145 A 
ATOM     13  N   UNL     1       7.452  -0.060  -0.120  0.00  0.00    -0.219 NA
ATOM     14  C   UNL     1       6.544   0.895  -0.156  0.00  0.00    +0.225 A 
ATOM     15  N   UNL     1       5.254   0.635  -0.106  0.00  0.00    -0.216 NA
ENDROOT
BRANCH  11  16
ATOM     16  N   UNL     1       5.314  -2.993   0.135  0.00  0.00    -0.352 N 
ATOM     17  H   UNL     1       4.370  -3.208   0.074  0.00  0.00    +0.143 HD
ATOM     18  H   UNL     1       5.965  -3.699   0.266  0.00  0.00    +0.143 HD
ENDBRANCH  11  16
BRANCH  12  19
ATOM     19  N   UNL     1       8.058  -2.339   0.011  0.00  0.00    -0.323 N 
ATOM     20  H   UNL     1       7.790  -3.268   0.080  0.00  0.00    +0.148 HD
BRANCH  19  21
ATOM     21  C   UNL     1       9.480  -1.990  -0.054  0.00  0.00    +0.138 C 
BRANCH  21  22
ATOM     22  C   UNL     1      10.309  -3.247   0.005  0.00  0.00    -0.030 A 
ATOM     23  C   UNL     1      10.719  -3.748   1.226  0.00  0.00    +0.008 A 
ATOM     24  C   UNL     1      11.479  -4.901   1.281  0.00  0.00    +0.038 A 
ATOM     25  C   UNL     1      11.829  -5.554   0.112  0.00  0.00    +0.123 A 
ATOM     26  C   UNL     1      11.418  -5.052  -1.111  0.00  0.00    +0.038 A 
ATOM     27  C   UNL     1      10.653  -3.902  -1.163  0.00  0.00    +0.008 A 
ATOM     28  F   UNL     1      12.572  -6.681   0.164  0.00  0.00    -0.205 F 
ENDBRANCH  21  22
ENDBRANCH  19  21
ENDBRANCH  12  19
TORSDOF 4
