REMARK  Name = ZINC40459955
REMARK  4 active torsions:
REMARK  status: ('A' for Active; 'I' for Inactive)
REMARK    1  A    between atoms: C_1  and  C_2
REMARK    2  A    between atoms: C_7  and  N_8
REMARK    3  A    between atoms: C_9  and  C_11
REMARK    4  A    between atoms: C_11  and  N_12
REMARK                            x       y       z     vdW  Elec       q    Type
REMARK                         _______ _______ _______ _____ _____    ______ ____
ROOT
ATOM      1  N   UNL     1       0.025  -0.014   2.417  0.00  0.00    -0.284 N 
ATOM      2  C   UNL     1      -0.056  -0.693   3.578  0.00  0.00    +0.234 C 
ATOM      3  O   UNL     1      -0.040  -1.906   3.574  0.00  0.00    -0.274 OA
ATOM      4  H   UNL     1       0.078   0.955   2.424  0.00  0.00    +0.155 HD
ENDROOT
BRANCH   1  11
ATOM      5  C   UNL     1      -1.265   1.183   0.181  0.00  0.00    +0.045 C 
ATOM      6  C   UNL     1      -0.584  -0.158   0.084  0.00  0.00    -0.029 A 
ATOM      7  C   UNL     1      -0.569  -0.840  -1.117  0.00  0.00    +0.006 A 
ATOM      8  C   UNL     1       0.054  -2.070  -1.207  0.00  0.00    +0.020 A 
ATOM      9  C   UNL     1       0.667  -2.622  -0.095  0.00  0.00    +0.043 A 
ATOM     10  C   UNL     1       0.655  -1.944   1.109  0.00  0.00    +0.043 A 
ATOM     11  C   UNL     1       0.034  -0.706   1.201  0.00  0.00    +0.038 A 
ATOM     12 CL   UNL     1       1.449  -4.168  -0.213  0.00  0.00    -0.083 Cl
ENDBRANCH   1  11
BRANCH   2  13
ATOM     13  C   UNL     1      -0.168   0.054   4.882  0.00  0.00    +0.202 C 
BRANCH  13  14
ATOM     14  N   UNL     1      -0.241  -0.903   5.989  0.00  0.00    -0.291 N 
ATOM     15  C   UNL     1      -0.346  -0.460   7.257  0.00  0.00    +0.297 C 
ATOM     16  O   UNL     1      -0.379   0.734   7.483  0.00  0.00    -0.253 OA
ATOM     17  N   UNL     1      -0.414  -1.341   8.275  0.00  0.00    -0.313 N 
ATOM     18  H   UNL     1      -0.215  -1.856   5.809  0.00  0.00    +0.151 HD
ATOM     19  H   UNL     1      -0.387  -2.293   8.095  0.00  0.00    +0.146 HD
ATOM     20  H   UNL     1      -0.489  -1.022   9.188  0.00  0.00    +0.146 HD
ENDBRANCH  13  14
ENDBRANCH   2  13
TORSDOF 3
