REMARK  Name = ZINC12854252
REMARK  6 active torsions:
REMARK  status: ('A' for Active; 'I' for Inactive)
REMARK    1  A    between atoms: C_1  and  C_2
REMARK    2  A    between atoms: C_2  and  C_4
REMARK    3  A    between atoms: C_2  and  N_12
REMARK    4  A    between atoms: C_13  and  C_15
REMARK    5  A    between atoms: C_15  and  C_16
REMARK    6  A    between atoms: C_16  and  C_17
REMARK                            x       y       z     vdW  Elec       q    Type
REMARK                         _______ _______ _______ _____ _____    ______ ____
ROOT
ATOM      1  N   UNL     1       1.362   1.593  -0.002  0.00  0.00    -0.309 N 
ATOM      2  C   UNL     1       2.318   0.933  -0.685  0.00  0.00    +0.214 C 
ATOM      3  O   UNL     1       2.042  -0.081  -1.290  0.00  0.00    -0.276 OA
ATOM      4  H   UNL     1       1.583   2.404   0.482  0.00  0.00    +0.149 HD
ENDROOT
BRANCH   1   6
ATOM      5  C   UNL     1      -0.753   1.593  -1.232  0.00  0.00    +0.033 C 
ATOM      6  C   UNL     1      -0.013   1.086   0.008  0.00  0.00    +0.101 C 
BRANCH   6   7
ATOM      7  C   UNL     1      -0.718   1.572   1.248  0.00  0.00    -0.009 A 
ATOM      8  C   UNL     1      -0.295   2.729   1.875  0.00  0.00    +0.008 A 
ATOM      9  C   UNL     1      -0.942   3.176   3.012  0.00  0.00    +0.020 A 
ATOM     10  C   UNL     1      -2.012   2.464   3.524  0.00  0.00    +0.042 A 
ATOM     11  C   UNL     1      -2.436   1.306   2.897  0.00  0.00    +0.040 A 
ATOM     12  C   UNL     1      -1.792   0.863   1.755  0.00  0.00    +0.047 A 
ATOM     13 CL   UNL     1      -2.327  -0.587   0.964  0.00  0.00    -0.083 Cl
ATOM     14 CL   UNL     1      -2.824   3.025   4.952  0.00  0.00    -0.083 Cl
ENDBRANCH   6   7
ENDBRANCH   1   6
BRANCH   2  15
ATOM     15  C   UNL     1       3.732   1.454  -0.695  0.00  0.00    +0.102 C 
BRANCH  15  16
ATOM     16  C   UNL     1       4.612   0.527  -1.536  0.00  0.00    +0.072 C 
BRANCH  16  17
ATOM     17  C   UNL     1       6.026   1.048  -1.547  0.00  0.00    +0.126 A 
ATOM     18  C   UNL     1       7.074   0.339  -2.285  0.00  0.00    +0.274 A 
ATOM     19  O   UNL     1       6.814  -0.680  -2.898  0.00  0.00    -0.266 OA
ATOM     20  N   UNL     1       8.331   0.829  -2.277  0.00  0.00    -0.300 N 
ATOM     21  H   UNL     1       9.034   0.369  -2.762  0.00  0.00    +0.171 HD
ATOM     22  C   UNL     1       8.610   1.957  -1.597  0.00  0.00    +0.174 A 
ATOM     23  S   UNL     1      10.209   2.567  -1.596  0.00  0.00    -0.012 S 
ATOM     24  N   UNL     1       7.651   2.612  -0.918  0.00  0.00    -0.256 N 
ATOM     25  H   UNL     1       7.875   3.423  -0.436  0.00  0.00    +0.191 HD
ATOM     26  N   UNL     1       6.332   2.141  -0.903  0.00  0.00    -0.171 NA
ENDBRANCH  16  17
ENDBRANCH  15  16
ENDBRANCH   2  15
TORSDOF 5
