REMARK  Name = ZINC48267715
REMARK  7 active torsions:
REMARK  status: ('A' for Active; 'I' for Inactive)
REMARK    1  A    between atoms: C_1  and  C_2
REMARK    2  A    between atoms: C_5  and  C_25
REMARK    3  A    between atoms: N_8  and  C_10
REMARK    4  A    between atoms: C_10  and  C_11
REMARK    5  A    between atoms: C_11  and  C_12
REMARK    6  A    between atoms: C_12  and  N_13
REMARK    7  A    between atoms: C_14  and  C_16
REMARK                            x       y       z     vdW  Elec       q    Type
REMARK                         _______ _______ _______ _____ _____    ______ ____
ROOT
ATOM      1  N   UNL     1       2.203   0.410   6.103  0.00  0.00    -0.315 N 
ATOM      2  C   UNL     1       2.669   0.162   7.343  0.00  0.00    +0.216 C 
ATOM      3  O   UNL     1       3.621  -0.574   7.497  0.00  0.00    -0.276 OA
ATOM      4  H   UNL     1       1.442   0.998   5.979  0.00  0.00    +0.149 HD
ENDROOT
BRANCH   2   5
ATOM      5  C   UNL     1       2.009   0.800   8.537  0.00  0.00    +0.078 C 
ATOM      6  C   UNL     1       2.085   2.323   8.410  0.00  0.00    +0.032 C 
ATOM      7  C   UNL     1       1.382   2.967   9.608  0.00  0.00    +0.110 C 
ATOM      8  N   UNL     1       1.971   2.436  10.845  0.00  0.00    -0.286 N 
ATOM      9  C   UNL     1       2.031   0.979  11.029  0.00  0.00    +0.110 C 
ATOM     10  C   UNL     1       2.727   0.357   9.814  0.00  0.00    +0.032 C 
ATOM     11  C   UNL     1       2.449   3.268  11.791  0.00  0.00    +0.300 C 
ATOM     12  O   UNL     1       2.481   4.466  11.587  0.00  0.00    -0.253 OA
ATOM     13  N   UNL     1       2.890   2.772  12.964  0.00  0.00    -0.313 N 
ATOM     14  H   UNL     1       2.932   1.812  13.100  0.00  0.00    +0.146 HD
ATOM     15  H   UNL     1       3.166   3.374  13.672  0.00  0.00    +0.146 HD
ENDBRANCH   2   5
BRANCH   1  16
ATOM     16  C   UNL     1       2.845  -0.210   4.941  0.00  0.00    +0.102 C 
BRANCH  16  17
ATOM     17  C   UNL     1       2.127   0.233   3.664  0.00  0.00    +0.000 C 
BRANCH  17  18
ATOM     18  C   UNL     1       2.798  -0.415   2.451  0.00  0.00    -0.077 C 
BRANCH  18  24
ATOM     19  C   UNL     1      -0.040   1.536   0.013  0.00  0.00    +0.005 C 
ATOM     20  C   UNL     1      -0.014   0.007   0.002  0.00  0.00    -0.031 C 
ATOM     21  C   UNL     1       0.703  -0.484  -1.259  0.00  0.00    +0.003 C 
ATOM     22  C   UNL     1       2.158  -0.007  -1.224  0.00  0.00    -0.031 C 
ATOM     23  C   UNL     1       2.825  -0.514   0.056  0.00  0.00    -0.076 C 
ATOM     24  N   UNL     1       2.109   0.010   1.226  0.00  0.00    +0.380 N 
ATOM     25  C   UNL     1       0.732  -0.501   1.238  0.00  0.00    -0.076 C 
ATOM     26  C   UNL     1       2.904  -0.557  -2.442  0.00  0.00    +0.005 C 
ATOM     27  H   UNL     1       2.092   1.018   1.184  0.00  0.00    -0.082 HD
ENDBRANCH  18  24
ENDBRANCH  17  18
ENDBRANCH  16  17
ENDBRANCH   1  16
TORSDOF 5
