REMARK  Name = ZINC52094490
REMARK  8 active torsions:
REMARK  status: ('A' for Active; 'I' for Inactive)
REMARK    1  A    between atoms: C_1  and  C_2
REMARK    2  A    between atoms: C_2  and  C_3
REMARK    3  A    between atoms: C_3  and  C_4
REMARK    4  A    between atoms: C_3  and  C_6
REMARK    5  A    between atoms: C_4  and  C_5
REMARK    6  A    between atoms: C_6  and  C_8
REMARK    7  A    between atoms: C_6  and  N_21
REMARK    8  A    between atoms: N_21  and  C_22
REMARK                            x       y       z     vdW  Elec       q    Type
REMARK                         _______ _______ _______ _____ _____    ______ ____
ROOT
ATOM      1  C   UNL     1       1.998  -1.968  -2.607  0.00  0.00    -0.045 A 
ATOM      2  C   UNL     1       1.549  -2.189  -3.894  0.00  0.00    +0.031 A 
ATOM      3  C   UNL     1       2.459  -2.447  -4.907  0.00  0.00    +0.067 A 
ATOM      4  C   UNL     1       3.826  -2.482  -4.622  0.00  0.00    +0.068 A 
ATOM      5  C   UNL     1       4.268  -2.260  -3.327  0.00  0.00    +0.043 A 
ATOM      6  C   UNL     1       3.353  -1.998  -2.325  0.00  0.00    +0.022 A 
ATOM      7 BR   UNL     1       3.955  -1.686  -0.559  0.00  0.00    -0.050 Br
ATOM      8  N   UNL     1       4.480  -2.759  -5.821  0.00  0.00    -0.306 N 
ATOM      9  H   UNL     1       5.439  -2.846  -5.937  0.00  0.00    +0.170 HD
ATOM     10  C   UNL     1       3.554  -2.886  -6.790  0.00  0.00    +0.325 A 
ATOM     11  O   UNL     1       3.792  -3.130  -7.958  0.00  0.00    -0.247 OA
ATOM     12  N   UNL     1       2.326  -2.703  -6.270  0.00  0.00    -0.306 N 
ATOM     13  H   UNL     1       1.490  -2.743  -6.761  0.00  0.00    +0.170 HD
ENDROOT
BRANCH   1  14
ATOM     14  C   UNL     1       1.008  -1.688  -1.505  0.00  0.00    -0.037 C 
BRANCH  14  15
ATOM     15  N   UNL     1      -0.279  -2.316  -1.832  0.00  0.00    +0.382 N 
ATOM     16  C   UNL     1      -0.121  -3.776  -1.850  0.00  0.00    -0.100 C 
ATOM     17  H   UNL     1      -0.964  -2.060  -1.137  0.00  0.00    -0.085 HD
ATOM     18  H   UNL     1      -0.587  -1.999  -2.739  0.00  0.00    -0.085 HD
ENDBRANCH  14  15
BRANCH  14  19
ATOM     19  C   UNL     1       0.817  -0.176  -1.364  0.00  0.00    -0.021 C 
BRANCH  19  21
ATOM     20  C   UNL     1       0.109   1.905  -2.550  0.00  0.00    +0.004 C 
ATOM     21  C   UNL     1       0.185   0.380  -2.641  0.00  0.00    -0.001 C 
ENDBRANCH  19  21
BRANCH  19  22
ATOM     22  C   UNL     1      -0.100   0.113  -0.174  0.00  0.00    -0.001 C 
ATOM     23  C   UNL     1       0.597  -0.308   1.122  0.00  0.00    +0.004 C 
ENDBRANCH  19  22
ENDBRANCH  14  19
ENDBRANCH   1  14
TORSDOF 5
