REMARK  Name = ZINC42786195
REMARK  3 active torsions:
REMARK  status: ('A' for Active; 'I' for Inactive)
REMARK    1  A    between atoms: C_1  and  C_2
REMARK    2  A    between atoms: N_4  and  N_5
REMARK    3  A    between atoms: C_6  and  C_8
REMARK                            x       y       z     vdW  Elec       q    Type
REMARK                         _______ _______ _______ _____ _____    ______ ____
ROOT
ATOM      1  C   UNL     1      -2.275  -4.254   0.001  0.00  0.00    +0.192 A 
ATOM      2  C   UNL     1      -3.375  -5.050   0.002  0.00  0.00    +0.063 A 
ATOM      3  C   UNL     1      -2.879  -6.426  -0.009  0.00  0.00    +0.022 A 
ATOM      4  C   UNL     1      -3.491  -7.682  -0.013  0.00  0.00    +0.027 A 
ATOM      5  C   UNL     1      -2.721  -8.811  -0.023  0.00  0.00    +0.019 A 
ATOM      6  C   UNL     1      -1.335  -8.717  -0.029  0.00  0.00    +0.019 A 
ATOM      7  C   UNL     1      -0.712  -7.488  -0.025  0.00  0.00    +0.048 A 
ATOM      8  C   UNL     1      -1.475  -6.325  -0.015  0.00  0.00    +0.136 A 
ATOM      9  O   UNL     1      -1.161  -5.015  -0.014  0.00  0.00    -0.450 OA
ATOM     10 BR   UNL     1      -3.547 -10.512  -0.029  0.00  0.00    -0.050 Br
ENDROOT
BRANCH   1  12
ATOM     11  N   UNL     1      -1.137  -2.095   0.002  0.00  0.00    -0.228 N 
ATOM     12  C   UNL     1      -2.295  -2.784   0.009  0.00  0.00    +0.295 C 
ATOM     13  O   UNL     1      -3.356  -2.190   0.022  0.00  0.00    -0.265 OA
ATOM     14  H   UNL     1      -0.290  -2.568  -0.009  0.00  0.00    +0.173 HD
BRANCH  11  18
ATOM     15  C   UNL     1      -0.018   1.503   0.010  0.00  0.00    +0.110 C 
ATOM     16  C   UNL     1       0.002  -0.004   0.002  0.00  0.00    +0.226 C 
ATOM     17  O   UNL     1       1.060  -0.596  -0.011  0.00  0.00    -0.275 OA
ATOM     18  N   UNL     1      -1.156  -0.694   0.009  0.00  0.00    -0.234 N 
ATOM     19  H   UNL     1      -2.002  -0.220   0.020  0.00  0.00    +0.173 HD
ENDBRANCH  11  18
ENDBRANCH   1  12
TORSDOF 2
