REMARK  Name = ZINC08768936
REMARK  9 active torsions:
REMARK  status: ('A' for Active; 'I' for Inactive)
REMARK    1  A    between atoms: C_1  and  C_2
REMARK    2  A    between atoms: C_2  and  C_3
REMARK    3  A    between atoms: C_2  and  C_4
REMARK    4  A    between atoms: C_4  and  C_6
REMARK    5  A    between atoms: C_4  and  N_18
REMARK    6  A    between atoms: N_8  and  C_9
REMARK    7  A    between atoms: C_9  and  C_11
REMARK    8  A    between atoms: C_9  and  C_12
REMARK    9  A    between atoms: C_19  and  C_21
REMARK                            x       y       z     vdW  Elec       q    Type
REMARK                         _______ _______ _______ _____ _____    ______ ____
ROOT
ATOM      1  C   UNL     1      -6.664  -0.546  -0.755  0.00  0.00    +0.161 C 
ENDROOT
BRANCH   1   2
ATOM      2  C   UNL     1      -7.249  -0.997  -2.069  0.00  0.00    +0.234 C 
ATOM      3  O   UNL     1      -6.676  -0.743  -3.107  0.00  0.00    -0.274 OA
ATOM      4  N   UNL     1      -8.409  -1.683  -2.090  0.00  0.00    -0.307 N 
ATOM      5  H   UNL     1      -8.867  -1.886  -1.260  0.00  0.00    +0.149 HD
BRANCH   4   6
ATOM      6  C   UNL     1      -8.977  -2.122  -3.367  0.00  0.00    +0.100 C 
ATOM      7  C   UNL     1      -9.807  -0.988  -3.972  0.00  0.00    +0.033 C 
BRANCH   6   8
ATOM      8  C   UNL     1      -9.859  -3.322  -3.138  0.00  0.00    -0.027 A 
ATOM      9  C   UNL     1     -10.675  -3.378  -2.024  0.00  0.00    +0.005 A 
ATOM     10  C   UNL     1     -11.487  -4.477  -1.816  0.00  0.00    +0.000 A 
ATOM     11  C   UNL     1     -11.476  -5.525  -2.718  0.00  0.00    +0.000 A 
ATOM     12  C   UNL     1     -10.656  -5.471  -3.829  0.00  0.00    +0.000 A 
ATOM     13  C   UNL     1      -9.848  -4.370  -4.039  0.00  0.00    +0.005 A 
ENDBRANCH   6   8
ENDBRANCH   4   6
ENDBRANCH   1   2
BRANCH   1  14
ATOM     14  N   UNL     1      -5.411   0.173  -1.000  0.00  0.00    -0.305 N 
ATOM     15  C   UNL     1      -4.969   1.081  -0.107  0.00  0.00    +0.200 C 
ATOM     16  O   UNL     1      -5.609   1.301   0.900  0.00  0.00    -0.278 OA
ATOM     17  H   UNL     1      -4.900  -0.003  -1.805  0.00  0.00    +0.149 HD
BRANCH  15  18
ATOM     18  C   UNL     1      -3.681   1.820  -0.358  0.00  0.00    +0.021 C 
ATOM     19  C   UNL     1      -2.496   0.940   0.042  0.00  0.00    +0.028 C 
ATOM     20  C   UNL     1      -1.225   1.749   0.017  0.00  0.00    -0.047 A 
ATOM     21  C   UNL     1      -0.013   1.076   0.008  0.00  0.00    +0.004 A 
ATOM     22  C   UNL     1       1.175   1.779   0.000  0.00  0.00    +0.000 A 
ATOM     23  C   UNL     1       1.157   3.161   0.007  0.00  0.00    +0.000 A 
ATOM     24  C   UNL     1      -0.049   3.832   0.020  0.00  0.00    +0.002 A 
ATOM     25  C   UNL     1      -1.244   3.127   0.027  0.00  0.00    -0.061 A 
ATOM     26  C   UNL     1      -2.535   3.904   0.035  0.00  0.00    -0.045 C 
ATOM     27  N   UNL     1      -3.651   3.047   0.459  0.00  0.00    +0.389 N 
ATOM     28  H   UNL     1      -3.531   2.796   1.447  0.00  0.00    -0.084 HD
ATOM     29  H   UNL     1      -4.535   3.557   0.341  0.00  0.00    -0.084 HD
ENDBRANCH  15  18
ENDBRANCH   1  14
BRANCH   1  31
ATOM     30  C   UNL     1      -5.305  -2.630  -0.524  0.00  0.00    +0.009 C 
ATOM     31  C   UNL     1      -6.388  -1.766   0.126  0.00  0.00    +0.012 C 
ATOM     32  C   UNL     1      -5.911  -1.302   1.504  0.00  0.00    +0.009 C 
ENDBRANCH   1  31
TORSDOF 6
