REMARK  Name = ZINC04973599
REMARK  2 active torsions:
REMARK  status: ('A' for Active; 'I' for Inactive)
REMARK    1  A    between atoms: C_8  and  C_24
REMARK    2  A    between atoms: C_14  and  C_19
REMARK                            x       y       z     vdW  Elec       q    Type
REMARK                         _______ _______ _______ _____ _____    ______ ____
ROOT
ATOM      1  C   UNL     1       2.391   0.034  -0.089  0.00  0.00    +0.002 A 
ATOM      2  C   UNL     1       2.373   1.416  -0.048  0.00  0.00    +0.002 A 
ATOM      3  C   UNL     1       1.169   2.098   0.002  0.00  0.00    +0.025 A 
ATOM      4  C   UNL     1      -0.017   1.383   0.010  0.00  0.00    +0.052 A 
ATOM      5  C   UNL     1       0.002  -0.004   0.002  0.00  0.00    +0.049 A 
ATOM      6  C   UNL     1       1.207  -0.683  -0.064  0.00  0.00    +0.025 A 
ATOM      7  N   UNL     1      -1.213  -0.680   0.113  0.00  0.00    -0.329 N 
ATOM      8  C   UNL     1      -2.023  -0.573   1.309  0.00  0.00    +0.172 C 
ATOM      9  C   UNL     1      -2.565   0.810   1.578  0.00  0.00    +0.039 C 
ATOM     10  C   UNL     1      -2.188   1.940   0.956  0.00  0.00    +0.017 C 
ATOM     11  N   UNL     1      -1.258   2.006  -0.029  0.00  0.00    -0.316 N 
ATOM     12  C   UNL     1      -2.803   3.275   1.342  0.00  0.00    +0.060 C 
ATOM     13  C   UNL     1      -4.251   3.073   1.784  0.00  0.00    +0.039 C 
ATOM     14  C   UNL     1      -4.244   2.121   2.986  0.00  0.00    +0.088 C 
ATOM     15  C   UNL     1      -3.560   0.849   2.583  0.00  0.00    +0.163 C 
ATOM     16  O   UNL     1      -3.871  -0.185   3.141  0.00  0.00    -0.292 OA
ATOM     17  H   UNL     1      -1.521  -1.231  -0.624  0.00  0.00    +0.147 HD
ATOM     18  H   UNL     1      -1.476   2.526  -0.818  0.00  0.00    +0.152 HD
ENDROOT
BRANCH  13  19
ATOM     19  C   UNL     1      -4.854   4.395   2.183  0.00  0.00    -0.006 A 
ATOM     20  C   UNL     1      -5.945   5.022   1.680  0.00  0.00    +0.011 A 
ATOM     21  C   UNL     1      -6.320   6.243   2.209  0.00  0.00    +0.008 A 
ATOM     22  C   UNL     1      -5.580   6.781   3.209  0.00  0.00    +0.045 A 
ATOM     23  S   UNL     1      -4.311   5.545   3.436  0.00  0.00    -0.101 S 
ENDBRANCH  13  19
BRANCH   8  24
ATOM     24  C   UNL     1      -1.187  -0.993   2.490  0.00  0.00    +0.130 A 
ATOM     25  C   UNL     1      -1.611  -1.733   3.531  0.00  0.00    +0.047 A 
ATOM     26  C   UNL     1      -0.508  -1.886   4.401  0.00  0.00    +0.041 A 
ATOM     27  C   UNL     1       0.525  -1.232   3.841  0.00  0.00    +0.195 A 
ATOM     28  O   UNL     1       0.109  -0.697   2.680  0.00  0.00    -0.466 OA
ENDBRANCH   8  24
TORSDOF 2
