REMARK  Name = ZINC09187472
REMARK  7 active torsions:
REMARK  status: ('A' for Active; 'I' for Inactive)
REMARK    1  A    between atoms: C_3  and  N_12
REMARK    2  A    between atoms: C_4  and  C_8
REMARK    3  A    between atoms: C_13  and  C_15
REMARK    4  A    between atoms: C_15  and  S_16
REMARK    5  A    between atoms: S_16  and  C_17
REMARK    6  A    between atoms: C_20  and  C_23
REMARK    7  A    between atoms: N_21  and  N_22
REMARK                            x       y       z     vdW  Elec       q    Type
REMARK                         _______ _______ _______ _____ _____    ______ ____
ROOT
ATOM      1  S   UNL     1       4.511   6.007  -0.346  0.00  0.00    -0.075 S 
ENDROOT
BRANCH   1   2
ATOM      2  C   UNL     1       6.104   6.750  -0.483  0.00  0.00    +0.209 A 
ATOM      3  N   UNL     1       7.258   6.120  -0.504  0.00  0.00    -0.120 NA
ATOM      4  N   UNL     1       8.220   6.965  -0.613  0.00  0.00    -0.125 NA
ATOM      5  C   UNL     1       7.739   8.187  -0.668  0.00  0.00    +0.200 A 
ATOM      6  N   UNL     1       6.368   8.085  -0.592  0.00  0.00    -0.223 N 
BRANCH   5   7
ATOM      7  C   UNL     1       8.520   9.431  -0.793  0.00  0.00    +0.108 A 
ATOM      8  C   UNL     1       9.893   9.532  -0.881  0.00  0.00    +0.004 A 
ATOM      9  C   UNL     1      10.214  10.884  -0.986  0.00  0.00    +0.067 A 
ATOM     10  N   UNL     1       9.102  11.580  -0.964  0.00  0.00    -0.178 NA
ATOM     11  N   UNL     1       8.020  10.699  -0.850  0.00  0.00    -0.273 N 
ATOM     12  H   UNL     1       7.083  10.947  -0.815  0.00  0.00    +0.189 HD
ATOM     13  C   UNL     1      11.717  11.041  -1.086  0.00  0.00    +0.058 C 
ATOM     14  C   UNL     1      12.298   9.699  -0.593  0.00  0.00    +0.011 C 
ATOM     15  C   UNL     1      11.159   8.704  -0.903  0.00  0.00    +0.039 C 
ENDBRANCH   5   7
BRANCH   6  16
ATOM     16  N   UNL     1       5.461   9.107  -0.618  0.00  0.00    -0.295 N 
ATOM     17  H   UNL     1       5.270   9.444   0.314  0.00  0.00    +0.163 HD
ATOM     18  H   UNL     1       5.777   9.855  -1.216  0.00  0.00    +0.163 HD
ENDBRANCH   6  16
ENDBRANCH   1   2
BRANCH   1  19
ATOM     19  C   UNL     1       4.863   4.231  -0.238  0.00  0.00    +0.173 C 
BRANCH  19  21
ATOM     20  N   UNL     1       3.584   2.125  -0.021  0.00  0.00    -0.284 N 
ATOM     21  C   UNL     1       3.569   3.469  -0.116  0.00  0.00    +0.227 C 
ATOM     22  O   UNL     1       2.513   4.066  -0.103  0.00  0.00    -0.275 OA
ATOM     23  H   UNL     1       4.429   1.653   0.049  0.00  0.00    +0.155 HD
BRANCH  20  26
ATOM     24  C   UNL     1       0.065   1.243  -0.620  0.00  0.00    +0.022 A 
ATOM     25  C   UNL     1       1.250   1.952  -0.619  0.00  0.00    +0.025 A 
ATOM     26  C   UNL     1       2.381   1.409  -0.024  0.00  0.00    +0.045 A 
ATOM     27  C   UNL     1       2.317   0.154   0.567  0.00  0.00    +0.077 A 
ATOM     28  C   UNL     1       1.130  -0.550   0.562  0.00  0.00    +0.034 A 
ATOM     29  C   UNL     1       0.004  -0.007  -0.031  0.00  0.00    +0.042 A 
ATOM     30 CL   UNL     1      -1.488  -0.895  -0.034  0.00  0.00    -0.084 Cl
BRANCH  27  31
ATOM     31  C   UNL     1       3.543  -0.439   1.213  0.00  0.00    +0.419 C 
ATOM     32  F   UNL     1       3.232  -1.699   1.735  0.00  0.00    -0.166 F 
ATOM     33  F   UNL     1       4.558  -0.567   0.258  0.00  0.00    -0.166 F 
ATOM     34  F   UNL     1       3.978   0.399   2.245  0.00  0.00    -0.166 F 
ENDBRANCH  27  31
ENDBRANCH  20  26
ENDBRANCH  19  21
ENDBRANCH   1  19
TORSDOF 7
