REMARK  Name = ZINC32922271
REMARK  2 active torsions:
REMARK  status: ('A' for Active; 'I' for Inactive)
REMARK    1  A    between atoms: C_3  and  C_6
REMARK    2  A    between atoms: C_9  and  C_11
REMARK                            x       y       z     vdW  Elec       q    Type
REMARK                         _______ _______ _______ _____ _____    ______ ____
ROOT
ATOM      1  C   UNL     1      -0.044   7.531   2.522  0.00  0.00    +0.286 C 
ATOM      2  O   UNL     1      -1.037   7.688   3.207  0.00  0.00    -0.266 OA
ATOM      3  N   UNL     1      -0.085   6.712   1.452  0.00  0.00    -0.246 N 
ATOM      4  C   UNL     1      -1.227   6.067   1.141  0.00  0.00    +0.253 C 
ATOM      5  O   UNL     1      -2.221   6.225   1.827  0.00  0.00    -0.270 OA
ATOM      6  H   UNL     1       0.813   6.570   0.833  0.00  0.00    +0.158 HD
ENDROOT
BRANCH   4   7
ATOM      7  C   UNL     1      -1.273   5.178  -0.020  0.00  0.00    +0.068 C 
ATOM      8  C   UNL     1      -0.953   3.765   0.098  0.00  0.00    -0.042 C 
ATOM      9  C   UNL     1      -1.032   3.059  -1.049  0.00  0.00    +0.079 C 
ATOM     10  S   UNL     1      -1.524   4.238  -2.275  0.00  0.00    -0.098 S 
ATOM     11  C   UNL     1      -1.623   5.653  -1.279  0.00  0.00    +0.101 C 
ATOM     12  N   UNL     1      -1.967   6.939  -1.646  0.00  0.00    -0.292 NA
ATOM     13  C   UNL     1      -0.761   1.597  -1.232  0.00  0.00    +0.019 C 
ATOM     14  C   UNL     1      -0.013   1.086   0.008  0.00  0.00    +0.002 C 
ATOM     15  C   UNL     1      -0.736   1.582   1.264  0.00  0.00    +0.004 C 
ATOM     16  C   UNL     1      -0.553   3.094   1.407  0.00  0.00    +0.033 C 
ATOM     17  H   UNL     1      -1.986   7.740  -0.893  0.00  0.00    +0.187 HD
ENDBRANCH   4   7
BRANCH   1  20
ATOM     18  C   UNL     1       2.710   9.523   3.854  0.00  0.00    +0.042 A 
ATOM     19  C   UNL     1       1.377   9.086   3.911  0.00  0.00    +0.054 A 
ATOM     20  C   UNL     1       1.198   8.232   2.860  0.00  0.00    +0.189 A 
ATOM     21  O   UNL     1       2.366   8.143   2.191  0.00  0.00    -0.458 OA
ATOM     22  C   UNL     1       3.279   8.923   2.784  0.00  0.00    +0.196 A 
ENDBRANCH   1  20
TORSDOF 2
