REMARK  Name = ZINC65298045
REMARK  4 active torsions:
REMARK  status: ('A' for Active; 'I' for Inactive)
REMARK    1  A    between atoms: C_1  and  C_2
REMARK    2  A    between atoms: C_11  and  C_25
REMARK    3  A    between atoms: C_14  and  C_16
REMARK    4  A    between atoms: C_30  and  O_31
REMARK                            x       y       z     vdW  Elec       q    Type
REMARK                         _______ _______ _______ _____ _____    ______ ____
ROOT
ATOM      1  C   UNL     1      -0.018   1.503   0.010  0.00  0.00    +0.109 C 
ATOM      2  C   UNL     1       0.002  -0.004   0.002  0.00  0.00    +0.212 C 
ATOM      3  O   UNL     1       1.060  -0.596  -0.011  0.00  0.00    -0.276 OA
ATOM      4  N   UNL     1      -1.156  -0.694   0.009  0.00  0.00    -0.302 N 
ATOM      5  C   UNL     1      -2.446   0.009   0.019  0.00  0.00    +0.108 C 
ATOM      6  C   UNL     1      -3.283  -0.513   1.191  0.00  0.00    +0.029 C 
ATOM      7  C   UNL     1      -3.402  -2.038   1.089  0.00  0.00    +0.032 C 
ATOM      8  C   UNL     1      -2.005  -2.660   1.179  0.00  0.00    +0.029 C 
ATOM      9  C   UNL     1      -1.153  -2.163   0.001  0.00  0.00    +0.108 C 
ATOM     10  N   UNL     1      -4.222  -2.531   2.203  0.00  0.00    +0.401 N 
ATOM     11  C   UNL     1      -4.465  -3.971   2.015  0.00  0.00    -0.028 C 
ATOM     12  C   UNL     1      -5.394  -4.147   0.810  0.00  0.00    +0.044 C 
ATOM     13  C   UNL     1      -4.884  -3.318  -0.336  0.00  0.00    +0.040 C 
ATOM     14  N   UNL     1      -4.010  -2.393  -0.189  0.00  0.00    -0.300 NA
ATOM     15  H   UNL     1      -3.734  -2.382   3.074  0.00  0.00    -0.081 HD
ATOM     16  H   UNL     1      -5.103  -2.039   2.219  0.00  0.00    -0.081 HD
ENDROOT
BRANCH  13  17
ATOM     17  C   UNL     1      -5.412  -3.581  -1.688  0.00  0.00    -0.001 A 
ATOM     18  C   UNL     1      -6.371  -4.579  -1.883  0.00  0.00    +0.013 A 
ATOM     19  C   UNL     1      -6.864  -4.822  -3.146  0.00  0.00    +0.050 A 
ATOM     20  C   UNL     1      -6.411  -4.080  -4.229  0.00  0.00    +0.166 A 
ATOM     21  C   UNL     1      -5.454  -3.082  -4.040  0.00  0.00    +0.167 A 
ATOM     22  C   UNL     1      -4.960  -2.829  -2.775  0.00  0.00    +0.059 A 
ATOM     23  O   UNL     1      -5.182  -2.506  -5.248  0.00  0.00    -0.453 OA
ATOM     24  C   UNL     1      -5.675  -3.433  -6.234  0.00  0.00    +0.466 C 
ATOM     25  O   UNL     1      -6.736  -4.127  -5.553  0.00  0.00    -0.453 OA
ENDBRANCH  13  17
BRANCH  11  26
ATOM     26  C   UNL     1      -5.117  -4.542   3.248  0.00  0.00    -0.018 A 
ATOM     27  C   UNL     1      -5.854  -3.723   4.082  0.00  0.00    +0.025 A 
ATOM     28  C   UNL     1      -6.453  -4.247   5.214  0.00  0.00    +0.041 A 
ATOM     29  C   UNL     1      -6.314  -5.591   5.514  0.00  0.00    +0.023 A 
ATOM     30  C   UNL     1      -5.578  -6.412   4.682  0.00  0.00    +0.047 A 
ATOM     31  C   UNL     1      -4.982  -5.890   3.543  0.00  0.00    +0.119 A 
ATOM     32 CL   UNL     1      -7.378  -3.216   6.261  0.00  0.00    -0.084 Cl
BRANCH  31  33
ATOM     33  O   UNL     1      -4.262  -6.698   2.721  0.00  0.00    -0.507 OA
ATOM     34  H   UNL     1      -3.324  -6.757   2.949  0.00  0.00    +0.292 HD
ENDBRANCH  31  33
ENDBRANCH  11  26
TORSDOF 3
