REMARK  Name = ZINC20566498
REMARK  7 active torsions:
REMARK  status: ('A' for Active; 'I' for Inactive)
REMARK    1  A    between atoms: C_1  and  C_2
REMARK    2  A    between atoms: C_2  and  C_3
REMARK    3  A    between atoms: C_3  and  C_4
REMARK    4  A    between atoms: C_4  and  N_5
REMARK    5  A    between atoms: C_10  and  C_27
REMARK    6  A    between atoms: C_27  and  C_28
REMARK    7  A    between atoms: C_31  and  O_34
REMARK                            x       y       z     vdW  Elec       q    Type
REMARK                         _______ _______ _______ _____ _____    ______ ____
ROOT
ATOM      1  N   UNL     1       1.425  -2.500  -2.470  0.00  0.00    -0.242 N 
ATOM      2  C   UNL     1       0.789  -2.748  -3.654  0.00  0.00    +0.227 C 
ATOM      3  O   UNL     1      -0.316  -2.375  -3.983  0.00  0.00    -0.275 OA
ATOM      4  C   UNL     1       1.745  -3.581  -4.464  0.00  0.00    +0.107 C 
ATOM      5  C   UNL     1       1.931  -3.271  -5.954  0.00  0.00    +0.072 C 
ATOM      6  N   UNL     1       3.383  -3.576  -6.176  0.00  0.00    -0.295 NA
ATOM      7  C   UNL     1       4.086  -3.372  -4.871  0.00  0.00    +0.136 C 
ATOM      8  C   UNL     1       3.059  -2.869  -3.944  0.00  0.00    +0.122 C 
ATOM      9  C   UNL     1       2.776  -2.735  -2.534  0.00  0.00    +0.228 C 
ATOM     10  O   UNL     1       3.558  -2.813  -1.611  0.00  0.00    -0.275 OA
ATOM     11  C   UNL     1       4.706  -4.671  -4.427  0.00  0.00    +0.003 A 
ATOM     12  C   UNL     1       4.182  -5.898  -4.084  0.00  0.00    +0.008 A 
ATOM     13  C   UNL     1       5.024  -6.929  -3.705  0.00  0.00    +0.000 A 
ATOM     14  C   UNL     1       6.391  -6.724  -3.674  0.00  0.00    +0.002 A 
ATOM     15  C   UNL     1       6.920  -5.497  -4.018  0.00  0.00    +0.023 A 
ATOM     16  C   UNL     1       6.079  -4.454  -4.400  0.00  0.00    +0.039 A 
ATOM     17  N   UNL     1       6.369  -3.145  -4.788  0.00  0.00    -0.283 N 
ATOM     18  C   UNL     1       5.258  -2.445  -5.081  0.00  0.00    +0.243 C 
ATOM     19  O   UNL     1       5.209  -1.288  -5.445  0.00  0.00    -0.273 OA
ATOM     20  H   UNL     1       3.507  -4.521  -6.509  0.00  0.00    +0.124 HD
ATOM     21  H   UNL     1       7.267  -2.782  -4.840  0.00  0.00    +0.155 HD
ENDROOT
BRANCH   1  22
ATOM     22  C   UNL     1       0.739  -2.027  -1.265  0.00  0.00    +0.116 C 
BRANCH  22  23
ATOM     23  C   UNL     1       0.718  -0.497  -1.257  0.00  0.00    +0.019 C 
BRANCH  23  25
ATOM     24  C   UNL     1      -0.019   1.526   0.010  0.00  0.00    +0.004 C 
ATOM     25  C   UNL     1       0.002  -0.004   0.002  0.00  0.00    -0.002 C 
ENDBRANCH  23  25
ENDBRANCH  22  23
ENDBRANCH   1  22
BRANCH   5  26
ATOM     26  C   UNL     1       1.633  -1.798  -6.243  0.00  0.00    +0.054 C 
BRANCH  26  27
ATOM     27  C   UNL     1       1.704  -1.553  -7.728  0.00  0.00    -0.046 A 
ATOM     28  C   UNL     1       2.904  -1.190  -8.311  0.00  0.00    +0.007 A 
ATOM     29  C   UNL     1       2.972  -0.964  -9.672  0.00  0.00    +0.045 A 
ATOM     30  C   UNL     1       1.835  -1.102 -10.454  0.00  0.00    +0.117 A 
ATOM     31  C   UNL     1       0.632  -1.466  -9.867  0.00  0.00    +0.045 A 
ATOM     32  C   UNL     1       0.570  -1.696  -8.506  0.00  0.00    +0.007 A 
BRANCH  30  33
ATOM     33  O   UNL     1       1.899  -0.880 -11.793  0.00  0.00    -0.507 OA
ATOM     34  H   UNL     1       2.112  -1.667 -12.313  0.00  0.00    +0.292 HD
ENDBRANCH  30  33
ENDBRANCH  26  27
ENDBRANCH   5  26
TORSDOF 6
