REMARK  Name = ZINC22238623
REMARK  5 active torsions:
REMARK  status: ('A' for Active; 'I' for Inactive)
REMARK    1  A    between atoms: C_1  and  C_2
REMARK    2  A    between atoms: C_13  and  C_15
REMARK    3  A    between atoms: C_15  and  O_16
REMARK    4  A    between atoms: O_16  and  C_17
REMARK    5  A    between atoms: C_22  and  N_23
REMARK                            x       y       z     vdW  Elec       q    Type
REMARK                         _______ _______ _______ _____ _____    ______ ____
ROOT
ATOM      1  C   UNL     1      -1.911   3.200  -2.454  0.00  0.00    +0.028 C 
ATOM      2  C   UNL     1      -1.154   2.926  -1.152  0.00  0.00    +0.079 C 
ATOM      3  C   UNL     1      -0.575   1.506  -1.176  0.00  0.00    +0.027 C 
ATOM      4  C   UNL     1       0.235   1.281   0.101  0.00  0.00    +0.039 C 
ATOM      5  C   UNL     1      -0.581   1.644   1.313  0.00  0.00    -0.026 A 
ATOM      6  C   UNL     1      -0.218   1.126   2.545  0.00  0.00    +0.005 A 
ATOM      7  C   UNL     1      -0.944   1.442   3.676  0.00  0.00    +0.000 A 
ATOM      8  C   UNL     1      -2.042   2.279   3.585  0.00  0.00    +0.002 A 
ATOM      9  C   UNL     1      -2.410   2.799   2.362  0.00  0.00    +0.024 A 
ATOM     10  C   UNL     1      -1.681   2.481   1.222  0.00  0.00    +0.040 A 
ATOM     11  N   UNL     1      -2.076   3.016  -0.012  0.00  0.00    -0.266 N 
ATOM     12  C   UNL     1      -3.282   3.603  -0.150  0.00  0.00    +0.258 C 
ATOM     13  O   UNL     1      -4.095   3.535   0.747  0.00  0.00    -0.272 OA
ENDROOT
BRANCH  12  14
ATOM     14  C   UNL     1      -3.619   4.342  -1.419  0.00  0.00    +0.325 C 
BRANCH  14  15
ATOM     15  O   UNL     1      -4.868   5.018  -1.259  0.00  0.00    -0.481 OA
BRANCH  15  16
ATOM     16  C   UNL     1      -5.320   5.738  -2.321  0.00  0.00    +0.142 A 
ATOM     17  C   UNL     1      -4.576   5.797  -3.487  0.00  0.00    +0.047 A 
ATOM     18  C   UNL     1      -5.040   6.525  -4.568  0.00  0.00    +0.004 A 
ATOM     19  C   UNL     1      -6.242   7.204  -4.484  0.00  0.00    +0.002 A 
ATOM     20  C   UNL     1      -6.987   7.155  -3.321  0.00  0.00    +0.026 A 
ATOM     21  C   UNL     1      -6.531   6.422  -2.235  0.00  0.00    +0.067 A 
BRANCH  21  22
ATOM     22  N   UNL     1      -7.284   6.371  -1.056  0.00  0.00    -0.355 N 
ATOM     23  H   UNL     1      -8.239   6.912  -0.990  0.00  0.00    +0.142 HD
ATOM     24  H   UNL     1      -6.920   5.790  -0.196  0.00  0.00    +0.142 HD
ENDBRANCH  21  22
ENDBRANCH  15  16
ENDBRANCH  14  15
ENDBRANCH  12  14
TORSDOF 4
