REMARK  Name = ZINC09189964
REMARK  9 active torsions:
REMARK  status: ('A' for Active; 'I' for Inactive)
REMARK    1  A    between atoms: C_1  and  C_2
REMARK    2  A    between atoms: N_8  and  C_9
REMARK    3  A    between atoms: N_17  and  C_20
REMARK    4  A    between atoms: C_20  and  C_21
REMARK    5  A    between atoms: C_20  and  C_22
REMARK    6  A    between atoms: C_23  and  C_27
REMARK    7  A    between atoms: C_24  and  N_26
REMARK    8  A    between atoms: C_27  and  O_29
REMARK    9  A    between atoms: O_29  and  C_30
REMARK                            x       y       z     vdW  Elec       q    Type
REMARK                         _______ _______ _______ _____ _____    ______ ____
ROOT
ATOM      1  C   UNL     1      -2.652  -1.673   4.782  0.00  0.00    +0.064 C 
ATOM      2  C   UNL     1      -1.950  -1.259   3.514  0.00  0.00    +0.022 A 
ATOM      3  C   UNL     1      -2.220  -1.909   2.361  0.00  0.00    +0.068 A 
ATOM      4  C   UNL     1      -1.567  -1.526   1.172  0.00  0.00    +0.142 A 
ATOM      5  C   UNL     1      -0.659  -0.488   1.213  0.00  0.00    +0.083 A 
ATOM      6  C   UNL     1      -0.411   0.157   2.432  0.00  0.00    +0.260 A 
ATOM      7  O   UNL     1       0.390   1.077   2.483  0.00  0.00    -0.267 OA
ATOM      8  N   UNL     1      -1.054  -0.238   3.547  0.00  0.00    -0.315 N 
ATOM      9  C   UNL     1      -0.785   0.445   4.814  0.00  0.00    +0.152 C 
ATOM     10  C   UNL     1       0.057  -0.050  -0.033  0.00  0.00    +0.144 C 
ATOM     11  C   UNL     1       1.494  -0.469   0.001  0.00  0.00    -0.002 A 
ATOM     12  C   UNL     1       2.080  -1.714   0.063  0.00  0.00    +0.007 A 
ATOM     13  C   UNL     1       3.470  -1.757   0.079  0.00  0.00    +0.000 A 
ATOM     14  C   UNL     1       4.225  -0.603   0.033  0.00  0.00    +0.002 A 
ATOM     15  C   UNL     1       3.642   0.654  -0.028  0.00  0.00    +0.024 A 
ATOM     16  C   UNL     1       2.248   0.710  -0.044  0.00  0.00    +0.041 A 
ATOM     17  N   UNL     1       1.413   1.812  -0.099  0.00  0.00    -0.267 N 
ATOM     18  C   UNL     1       0.111   1.462  -0.096  0.00  0.00    +0.240 C 
ATOM     19  O   UNL     1      -0.839   2.216  -0.140  0.00  0.00    -0.274 OA
ATOM     20  C   UNL     1      -0.630  -0.590  -1.254  0.00  0.00    +0.117 C 
ATOM     21  C   UNL     1      -1.525  -1.607  -1.161  0.00  0.00    +0.196 C 
ATOM     22  O   UNL     1      -1.834  -2.172   0.018  0.00  0.00    -0.441 OA
ENDROOT
BRANCH  17  23
ATOM     23  C   UNL     1       1.889   3.197  -0.154  0.00  0.00    +0.075 C 
ATOM     24  C   UNL     1       1.383   3.859  -1.437  0.00  0.00    +0.028 C 
ATOM     25  C   UNL     1       1.361   3.966   1.059  0.00  0.00    +0.028 C 
ENDBRANCH  17  23
BRANCH  21  26
ATOM     26  N   UNL     1      -2.130  -2.068  -2.299  0.00  0.00    -0.329 N 
ATOM     27  H   UNL     1      -2.405  -1.444  -2.989  0.00  0.00    +0.145 HD
ATOM     28  H   UNL     1      -2.284  -3.018  -2.416  0.00  0.00    +0.145 HD
ENDBRANCH  21  26
BRANCH  20  29
ATOM     29  C   UNL     1      -0.342  -0.035  -2.511  0.00  0.00    +0.341 C 
ATOM     30  O   UNL     1      -0.966  -0.396  -3.493  0.00  0.00    -0.245 OA
BRANCH  29  31
ATOM     31  O   UNL     1       0.626   0.898  -2.631  0.00  0.00    -0.465 OA
ATOM     32  C   UNL     1       0.865   1.420  -3.940  0.00  0.00    +0.280 C 
ENDBRANCH  29  31
ENDBRANCH  20  29
TORSDOF 4
