REMARK  Name = ZINC18523437
REMARK  9 active torsions:
REMARK  status: ('A' for Active; 'I' for Inactive)
REMARK    1  A    between atoms: C_1  and  C_2
REMARK    2  A    between atoms: C_10  and  C_11
REMARK    3  A    between atoms: C_11  and  O_13
REMARK    4  A    between atoms: O_13  and  C_14
REMARK    5  A    between atoms: C_14  and  C_16
REMARK    6  A    between atoms: C_14  and  C_17
REMARK    7  A    between atoms: N_19  and  C_20
REMARK    8  A    between atoms: C_24  and  S_26
REMARK    9  A    between atoms: S_26  and  N_29
REMARK                            x       y       z     vdW  Elec       q    Type
REMARK                         _______ _______ _______ _____ _____    ______ ____
ROOT
ATOM      1  C   UNL     1       5.657  -0.580  -0.062  0.00  0.00    +0.259 C 
ATOM      2  C   UNL     1       6.151  -0.578  -1.510  0.00  0.00    +0.062 C 
ENDROOT
BRANCH   1   3
ATOM      3  C   UNL     1       6.175  -1.806   0.644  0.00  0.00    +0.258 C 
ATOM      4  O   UNL     1       5.401  -2.654   1.035  0.00  0.00    -0.271 OA
ATOM      5  N   UNL     1       7.500  -1.962   0.841  0.00  0.00    -0.282 N 
ATOM      6  H   UNL     1       8.124  -1.318   0.471  0.00  0.00    +0.155 HD
BRANCH   5   7
ATOM      7  C   UNL     1       7.974  -3.051   1.581  0.00  0.00    +0.035 A 
ATOM      8  C   UNL     1       7.329  -4.278   1.504  0.00  0.00    +0.023 A 
ATOM      9  C   UNL     1       7.799  -5.351   2.235  0.00  0.00    +0.004 A 
ATOM     10  C   UNL     1       8.912  -5.205   3.043  0.00  0.00    +0.028 A 
ATOM     11  C   UNL     1       9.556  -3.984   3.122  0.00  0.00    +0.107 A 
ATOM     12  C   UNL     1       9.094  -2.908   2.389  0.00  0.00    +0.051 A 
BRANCH  11  13
ATOM     13  S   UNL     1      10.974  -3.803   4.152  0.00  0.00    +0.056 S 
ATOM     14  O   UNL     1      11.069  -2.421   4.473  0.00  0.00    -0.153 OA
ATOM     15  O   UNL     1      10.883  -4.811   5.149  0.00  0.00    -0.153 OA
BRANCH  13  16
ATOM     16  N   UNL     1      12.300  -4.167   3.230  0.00  0.00    -0.204 NA
ATOM     17  H   UNL     1      12.189  -4.421   2.300  0.00  0.00    +0.144 HD
ATOM     18  H   UNL     1      13.188  -4.126   3.619  0.00  0.00    +0.144 HD
ENDBRANCH  13  16
ENDBRANCH  11  13
ENDBRANCH   5   7
ENDBRANCH   1   3
BRANCH   1  19
ATOM     19  O   UNL     1       4.206  -0.589  -0.045  0.00  0.00    -0.447 OA
BRANCH  19  20
ATOM     20  C   UNL     1       3.586   0.609  -0.040  0.00  0.00    +0.376 C 
ATOM     21  O   UNL     1       4.242   1.633  -0.048  0.00  0.00    -0.241 OA
BRANCH  20  31
ATOM     22  C   UNL     1       1.919   3.235  -0.025  0.00  0.00    +0.048 C 
ATOM     23  C   UNL     1       1.390   1.824  -0.016  0.00  0.00    +0.010 A 
ATOM     24  C   UNL     1      -0.013   1.410   0.000  0.00  0.00    +0.025 A 
ATOM     25  C   UNL     1      -1.230   2.097   0.018  0.00  0.00    +0.032 A 
ATOM     26  C   UNL     1      -2.403   1.395   0.029  0.00  0.00    +0.042 A 
ATOM     27  C   UNL     1      -2.392   0.006   0.031  0.00  0.00    +0.023 A 
ATOM     28  C   UNL     1      -1.202  -0.689   0.018  0.00  0.00    +0.048 A 
ATOM     29  C   UNL     1       0.004   0.003   0.003  0.00  0.00    +0.136 A 
ATOM     30  O   UNL     1       1.293  -0.389  -0.012  0.00  0.00    -0.448 OA
ATOM     31  C   UNL     1       2.120   0.677  -0.023  0.00  0.00    +0.216 A 
ATOM     32 CL   UNL     1      -3.916   2.246   0.046  0.00  0.00    -0.084 Cl
ENDBRANCH  20  31
ENDBRANCH  19  20
ENDBRANCH   1  19
TORSDOF 7
