REMARK  Name = ZINC52904359
REMARK  4 active torsions:
REMARK  status: ('A' for Active; 'I' for Inactive)
REMARK    1  A    between atoms: C_1  and  C_2
REMARK    2  A    between atoms: N_8  and  C_9
REMARK    3  A    between atoms: C_14  and  C_15
REMARK    4  A    between atoms: N_16  and  O_17
REMARK                            x       y       z     vdW  Elec       q    Type
REMARK                         _______ _______ _______ _____ _____    ______ ____
ROOT
ATOM      1  C   UNL     1       1.401   0.374   2.030  0.00  0.00    +0.042 A 
ATOM      2  C   UNL     1       0.760   0.981   3.102  0.00  0.00    +0.024 A 
ATOM      3  C   UNL     1       1.455   1.845   3.925  0.00  0.00    +0.003 A 
ATOM      4  C   UNL     1       2.792   2.113   3.690  0.00  0.00    +0.021 A 
ATOM      5  C   UNL     1       3.446   1.519   2.629  0.00  0.00    +0.053 A 
ATOM      6  C   UNL     1       2.757   0.639   1.792  0.00  0.00    +0.057 A 
ATOM      7 CL   UNL     1       5.123   1.861   2.339  0.00  0.00    -0.083 Cl
ENDROOT
BRANCH   1  14
ATOM      8  C   UNL     1      -0.019   1.526   0.010  0.00  0.00    +0.030 C 
ATOM      9  C   UNL     1       0.002  -0.004   0.002  0.00  0.00    +0.096 C 
ATOM     10  C   UNL     1      -1.434  -0.540   0.026  0.00  0.00    +0.182 C 
ATOM     11  O   UNL     1      -1.404  -1.958   0.205  0.00  0.00    -0.376 OA
ATOM     12  C   UNL     1      -0.827  -2.379   1.443  0.00  0.00    +0.178 C 
ATOM     13  C   UNL     1       0.640  -1.938   1.492  0.00  0.00    +0.133 C 
ATOM     14  N   UNL     1       0.702  -0.497   1.199  0.00  0.00    -0.322 N 
ENDBRANCH   1  14
BRANCH   6  15
ATOM     15  C   UNL     1       3.451  -0.004   0.657  0.00  0.00    +0.166 C 
ATOM     16  N   UNL     1       3.471   0.576  -0.508  0.00  0.00    -0.071 NA
ATOM     17  N   UNL     1       4.081  -1.225   0.833  0.00  0.00    -0.340 N 
ATOM     18  H   UNL     1       4.066  -1.658   1.701  0.00  0.00    +0.144 HD
ATOM     19  H   UNL     1       4.537  -1.648   0.088  0.00  0.00    +0.144 HD
BRANCH  16  20
ATOM     20  O   UNL     1       4.137  -0.040  -1.595  0.00  0.00    -0.408 OA
ATOM     21  H   UNL     1       4.098   0.466  -2.418  0.00  0.00    +0.328 HD
ENDBRANCH  16  20
ENDBRANCH   6  15
TORSDOF 3
