REMARK  Name = ZINC39006994
REMARK  6 active torsions:
REMARK  status: ('A' for Active; 'I' for Inactive)
REMARK    1  A    between atoms: C_1  and  C_2
REMARK    2  A    between atoms: C_5  and  C_8
REMARK    3  A    between atoms: C_8  and  S_9
REMARK    4  A    between atoms: S_9  and  C_10
REMARK    5  A    between atoms: C_13  and  C_17
REMARK    6  A    between atoms: N_15  and  N_16
REMARK                            x       y       z     vdW  Elec       q    Type
REMARK                         _______ _______ _______ _____ _____    ______ ____
ROOT
ATOM      1  C   UNL     1       1.632  -6.614  -0.043  0.00  0.00    +0.189 C 
ATOM      2  N   UNL     1       0.507  -7.246  -0.046  0.00  0.00    -0.161 NA
ATOM      3  N   UNL     1       0.698  -8.633  -0.053  0.00  0.00    -0.243 N 
ATOM      4  C   UNL     1       2.156  -8.846  -0.055  0.00  0.00    +0.222 C 
ATOM      5  N   UNL     1       2.713  -7.483  -0.054  0.00  0.00    -0.223 N 
ATOM      6  H   UNL     1       0.010  -9.316  -0.056  0.00  0.00    +0.170 HD
ENDROOT
BRANCH   4   7
ATOM      7  C   UNL     1       2.587  -9.599  -1.315  0.00  0.00    +0.197 C 
ATOM      8  C   UNL     1       1.889 -10.941  -1.404  0.00  0.00    -0.017 C 
ATOM      9  C   UNL     1       2.874 -11.837  -1.372  0.00  0.00    +0.065 C 
ATOM     10  C   UNL     1       2.296 -13.239  -1.456  0.00  0.00    +0.057 C 
ATOM     11  C   UNL     1       0.800 -13.079  -1.111  0.00  0.00    +0.011 C 
ATOM     12  C   UNL     1       0.542 -11.608  -1.509  0.00  0.00    +0.035 C 
ATOM     13  N   UNL     1       4.074 -11.204  -1.275  0.00  0.00    -0.158 NA
ATOM     14  N   UNL     1       4.010  -9.971  -1.240  0.00  0.00    -0.176 NA
ENDBRANCH   4   7
BRANCH   5  15
ATOM     15  N   UNL     1       4.035  -7.141  -0.059  0.00  0.00    -0.250 NA
ATOM     16  H   UNL     1       4.150  -6.138  -0.054  0.00  0.00    +0.141 HD
ATOM     17  H   UNL     1       4.522  -7.564   0.717  0.00  0.00    +0.141 HD
ENDBRANCH   5  15
BRANCH   1  18
ATOM     18  S   UNL     1       1.777  -4.858  -0.034  0.00  0.00    -0.083 S 
BRANCH  18  19
ATOM     19  C   UNL     1       0.059  -4.275  -0.021  0.00  0.00    +0.112 C 
BRANCH  19  24
ATOM     20  C   UNL     1      -0.018   1.503   0.010  0.00  0.00    +0.044 C 
ATOM     21  C   UNL     1       0.002  -0.004   0.002  0.00  0.00    -0.050 A 
ATOM     22  C   UNL     1       0.006  -0.689  -1.199  0.00  0.00    +0.003 A 
ATOM     23  C   UNL     1       0.025  -2.071  -1.206  0.00  0.00    +0.005 A 
ATOM     24  C   UNL     1       0.040  -2.768  -0.013  0.00  0.00    -0.037 A 
ATOM     25  C   UNL     1       0.037  -2.084   1.188  0.00  0.00    +0.005 A 
ATOM     26  C   UNL     1       0.023  -0.702   1.195  0.00  0.00    +0.003 A 
ENDBRANCH  19  24
ENDBRANCH  18  19
ENDBRANCH   1  18
TORSDOF 5
