REMARK  Name = ZINC12297006
REMARK  9 active torsions:
REMARK  status: ('A' for Active; 'I' for Inactive)
REMARK    1  A    between atoms: C_1  and  C_2
REMARK    2  A    between atoms: C_6  and  C_12
REMARK    3  A    between atoms: C_7  and  C_11
REMARK    4  A    between atoms: C_13  and  O_30
REMARK    5  A    between atoms: C_14  and  C_15
REMARK    6  A    between atoms: C_18  and  C_21
REMARK    7  A    between atoms: C_24  and  O_28
REMARK    8  A    between atoms: C_25  and  O_27
REMARK    9  A    between atoms: O_28  and  C_29
REMARK                            x       y       z     vdW  Elec       q    Type
REMARK                         _______ _______ _______ _____ _____    ______ ____
ROOT
ATOM      1  C   UNL     1       0.314  -6.334   1.664  0.00  0.00    +0.044 C 
ATOM      2  C   UNL     1      -0.685  -5.640   2.553  0.00  0.00    -0.035 A 
ATOM      3  C   UNL     1      -1.263  -6.329   3.596  0.00  0.00    +0.051 A 
ATOM      4  C   UNL     1      -2.187  -5.703   4.424  0.00  0.00    +0.143 A 
ATOM      5  C   UNL     1      -2.532  -4.358   4.194  0.00  0.00    +0.063 A 
ATOM      6  C   UNL     1      -3.507  -3.714   5.075  0.00  0.00    -0.027 A 
ATOM      7  C   UNL     1      -4.042  -4.447   6.086  0.00  0.00    +0.038 A 
ATOM      8  C   UNL     1      -3.651  -5.790   6.260  0.00  0.00    +0.340 A 
ATOM      9  O   UNL     1      -4.137  -6.436   7.171  0.00  0.00    -0.245 OA
ATOM     10  O   UNL     1      -2.756  -6.375   5.448  0.00  0.00    -0.422 OA
ATOM     11  C   UNL     1      -5.049  -3.826   7.020  0.00  0.00    +0.051 C 
ATOM     12  C   UNL     1      -3.908  -2.276   4.866  0.00  0.00    +0.045 C 
ATOM     13  C   UNL     1      -1.941  -3.653   3.136  0.00  0.00    +0.137 A 
ATOM     14  C   UNL     1      -1.018  -4.303   2.311  0.00  0.00    +0.043 A 
ENDROOT
BRANCH  14  15
ATOM     15  C   UNL     1      -0.392  -3.578   1.190  0.00  0.00    +0.072 C 
ATOM     16  N   UNL     1      -0.855  -3.522  -0.010  0.00  0.00    -0.190 NA
ATOM     17  N   UNL     1      -0.074  -2.771  -0.887  0.00  0.00    -0.261 N 
ATOM     18  C   UNL     1       1.090  -2.245  -0.157  0.00  0.00    +0.125 C 
ATOM     19  C   UNL     1       0.894  -2.787   1.274  0.00  0.00    +0.086 C 
ATOM     20  H   UNL     1      -0.268  -2.619  -1.825  0.00  0.00    +0.169 HD
BRANCH  18  21
ATOM     21  C   UNL     1       1.081  -0.738  -0.159  0.00  0.00    -0.022 A 
ATOM     22  C   UNL     1      -0.120  -0.056  -0.117  0.00  0.00    +0.009 A 
ATOM     23  C   UNL     1      -0.134   1.327  -0.119  0.00  0.00    +0.050 A 
ATOM     24  C   UNL     1       1.059   2.031  -0.164  0.00  0.00    +0.161 A 
ATOM     25  C   UNL     1       2.268   1.344  -0.207  0.00  0.00    +0.159 A 
ATOM     26  C   UNL     1       2.274  -0.042  -0.204  0.00  0.00    +0.054 A 
BRANCH  25  27
ATOM     27  O   UNL     1       3.441   2.031  -0.251  0.00  0.00    -0.503 OA
ATOM     28  H   UNL     1       3.748   2.227  -1.147  0.00  0.00    +0.292 HD
ENDBRANCH  25  27
BRANCH  24  29
ATOM     29  O   UNL     1       1.048   3.391  -0.167  0.00  0.00    -0.491 OA
ATOM     30  C   UNL     1      -0.230   4.029  -0.122  0.00  0.00    +0.277 C 
ENDBRANCH  24  29
ENDBRANCH  18  21
ENDBRANCH  14  15
BRANCH  13  31
ATOM     31  O   UNL     1      -2.265  -2.355   2.913  0.00  0.00    -0.505 OA
ATOM     32  H   UNL     1      -3.015  -2.235   2.315  0.00  0.00    +0.292 HD
ENDBRANCH  13  31
TORSDOF 5
