REMARK  Name = ZINC06177554
REMARK  10 active torsions:
REMARK  status: ('A' for Active; 'I' for Inactive)
REMARK    1  A    between atoms: C_1  and  C_2
REMARK    2  A    between atoms: C_3  and  C_9
REMARK    3  A    between atoms: C_4  and  O_8
REMARK    4  A    between atoms: C_9  and  C_10
REMARK    5  A    between atoms: C_9  and  C_28
REMARK    6  A    between atoms: N_12  and  C_19
REMARK    7  A    between atoms: C_19  and  C_20
REMARK    8  A    between atoms: C_25  and  C_26
REMARK    9  A    between atoms: C_29  and  C_35
REMARK   10  A    between atoms: C_33  and  O_34
REMARK                            x       y       z     vdW  Elec       q    Type
REMARK                         _______ _______ _______ _____ _____    ______ ____
ROOT
ATOM      1  C   UNL     1       0.082  -0.644  -2.198  0.00  0.00    +0.095 C 
ENDROOT
BRANCH   1   2
ATOM      2  C   UNL     1      -1.031  -1.194  -3.053  0.00  0.00    -0.010 A 
ATOM      3  C   UNL     1      -1.382  -2.484  -3.172  0.00  0.00    +0.091 A 
ATOM      4  N   UNL     1      -2.437  -2.603  -4.036  0.00  0.00    -0.342 N 
ATOM      5  C   UNL     1      -2.799  -1.360  -4.506  0.00  0.00    +0.050 A 
ATOM      6  C   UNL     1      -1.938  -0.422  -3.906  0.00  0.00    +0.004 A 
ATOM      7  C   UNL     1      -2.076   0.936  -4.195  0.00  0.00    +0.010 A 
ATOM      8  C   UNL     1      -3.051   1.349  -5.059  0.00  0.00    +0.001 A 
ATOM      9  C   UNL     1      -3.906   0.429  -5.651  0.00  0.00    +0.002 A 
ATOM     10  C   UNL     1      -3.780  -0.917  -5.386  0.00  0.00    +0.026 A 
BRANCH   4  11
ATOM     11  C   UNL     1      -3.084  -3.864  -4.406  0.00  0.00    +0.158 C 
BRANCH  11  12
ATOM     12  C   UNL     1      -2.472  -4.388  -5.680  0.00  0.00    -0.010 A 
ATOM     13  C   UNL     1      -3.049  -4.090  -6.897  0.00  0.00    +0.006 A 
ATOM     14  C   UNL     1      -2.489  -4.570  -8.068  0.00  0.00    +0.000 A 
ATOM     15  C   UNL     1      -1.347  -5.352  -8.026  0.00  0.00    +0.001 A 
ATOM     16  C   UNL     1      -0.761  -5.657  -6.816  0.00  0.00    +0.019 A 
ATOM     17  C   UNL     1      -1.317  -5.170  -5.631  0.00  0.00    +0.057 A 
BRANCH  17  18
ATOM     18  C   UNL     1      -0.710  -5.478  -4.371  0.00  0.00    +0.099 C 
ATOM     19  N   UNL     1      -0.228  -5.723  -3.372  0.00  0.00    -0.191 NA
ENDBRANCH  17  18
ENDBRANCH  11  12
ENDBRANCH   4  11
ENDBRANCH   1   2
BRANCH   1  22
ATOM     20  C   UNL     1      -0.538   1.551   0.001  0.00  0.00    +0.068 C 
ATOM     21  C   UNL     1      -0.497   0.061   0.226  0.00  0.00    +0.068 A 
ATOM     22  C   UNL     1      -0.223  -0.906  -0.746  0.00  0.00    +0.048 A 
ATOM     23  C   UNL     1      -0.281  -2.126  -0.148  0.00  0.00    +0.213 A 
ATOM     24  N   UNL     1      -0.581  -1.928   1.155  0.00  0.00    -0.247 N 
ATOM     25  H   UNL     1      -0.688  -2.619   1.827  0.00  0.00    +0.192 HD
ATOM     26  N   UNL     1      -0.706  -0.549   1.364  0.00  0.00    -0.176 NA
BRANCH  23  27
ATOM     27  O   UNL     1      -0.075  -3.325  -0.750  0.00  0.00    -0.492 OA
ATOM     28  H   UNL     1       0.830  -3.657  -0.667  0.00  0.00    +0.294 HD
ENDBRANCH  23  27
ENDBRANCH   1  22
BRANCH   1  29
ATOM     29  C   UNL     1       1.379  -1.316  -2.569  0.00  0.00    +0.048 A 
ATOM     30  C   UNL     1       2.467  -1.439  -1.775  0.00  0.00    +0.041 A 
ATOM     31  N   UNL     1       3.415  -2.100  -2.472  0.00  0.00    -0.278 N 
ATOM     32  N   UNL     1       2.894  -2.395  -3.738  0.00  0.00    -0.136 NA
ATOM     33  H   UNL     1       4.301  -2.331  -2.152  0.00  0.00    +0.189 HD
ATOM     34  C   UNL     1       1.670  -1.930  -3.796  0.00  0.00    +0.236 A 
ATOM     35  C   UNL     1       2.599  -0.927  -0.363  0.00  0.00    +0.065 C 
BRANCH  34  36
ATOM     36  O   UNL     1       0.830  -2.023  -4.861  0.00  0.00    -0.491 OA
ATOM     37  H   UNL     1       0.949  -1.324  -5.519  0.00  0.00    +0.294 HD
ENDBRANCH  34  36
ENDBRANCH   1  29
TORSDOF 8
