REMARK  Name = ZINC62084763
REMARK  5 active torsions:
REMARK  status: ('A' for Active; 'I' for Inactive)
REMARK    1  A    between atoms: C_1  and  C_2
REMARK    2  A    between atoms: C_4  and  C_21
REMARK    3  A    between atoms: C_7  and  C_8
REMARK    4  A    between atoms: N_14  and  S_17
REMARK    5  A    between atoms: S_17  and  C_20
REMARK                            x       y       z     vdW  Elec       q    Type
REMARK                         _______ _______ _______ _____ _____    ______ ____
ROOT
ATOM      1  C   UNL     1       0.178   1.499  -0.020  0.00  0.00    +0.044 C 
ATOM      2  C   UNL     1       0.098  -0.006  -0.013  0.00  0.00    -0.035 A 
ATOM      3  C   UNL     1      -0.114  -0.710  -1.185  0.00  0.00    +0.027 A 
ATOM      4  C   UNL     1      -0.182  -2.091  -1.147  0.00  0.00    +0.041 A 
ATOM      5  N   UNL     1      -0.049  -2.751  -0.013  0.00  0.00    -0.236 NA
ATOM      6  C   UNL     1       0.156  -2.127   1.137  0.00  0.00    +0.132 A 
ATOM      7  C   UNL     1       0.243  -0.725   1.178  0.00  0.00    +0.055 A 
ATOM      8  N   UNL     1       0.290  -2.859   2.303  0.00  0.00    -0.312 N 
ATOM      9  C   UNL     1      -0.895  -3.288   3.058  0.00  0.00    +0.123 C 
ATOM     10  C   UNL     1      -0.838  -4.810   3.237  0.00  0.00    +0.128 C 
ATOM     11  N   UNL     1       0.493  -5.173   3.743  0.00  0.00    -0.178 NA
ATOM     12  C   UNL     1       1.679  -4.744   2.988  0.00  0.00    +0.128 C 
ATOM     13  C   UNL     1       1.621  -3.227   2.805  0.00  0.00    +0.123 C 
ATOM     14  C   UNL     1      -0.414  -2.856  -2.425  0.00  0.00    +0.065 C 
ENDROOT
BRANCH   7  15
ATOM     15  C   UNL     1       0.477  -0.024   2.455  0.00  0.00    +0.098 C 
ATOM     16  N   UNL     1       1.609   0.655   2.645  0.00  0.00    -0.387 N 
ATOM     17  N   UNL     1      -0.442  -0.070   3.420  0.00  0.00    -0.344 N 
ATOM     18  H   UNL     1       2.277   0.689   1.944  0.00  0.00    +0.157 HD
ATOM     19  H   UNL     1      -1.265  -0.565   3.281  0.00  0.00    +0.144 HD
ATOM     20  H   UNL     1      -0.288   0.390   4.259  0.00  0.00    +0.144 HD
ATOM     21  H   UNL     1       1.762   1.116   3.485  0.00  0.00    +0.157 HD
ENDBRANCH   7  15
BRANCH  11  22
ATOM     22  S   UNL     1       0.654  -6.050   5.138  0.00  0.00    +0.029 S 
ATOM     23  O   UNL     1       1.936  -5.699   5.641  0.00  0.00    -0.158 OA
ATOM     24  O   UNL     1      -0.521  -5.762   5.885  0.00  0.00    -0.158 OA
ATOM     25  C   UNL     1       0.646  -7.783   4.604  0.00  0.00    +0.215 C 
ENDBRANCH  11  22
TORSDOF 2
