REMARK  Name = ZINC45163811
REMARK  4 active torsions:
REMARK  status: ('A' for Active; 'I' for Inactive)
REMARK    1  A    between atoms: C_1  and  C_2
REMARK    2  A    between atoms: N_4  and  C_5
REMARK    3  A    between atoms: C_14  and  C_17
REMARK    4  A    between atoms: N_19  and  C_20
REMARK                            x       y       z     vdW  Elec       q    Type
REMARK                         _______ _______ _______ _____ _____    ______ ____
ROOT
ATOM      1  C   UNL     1       0.020  -2.136  -1.177  0.00  0.00    +0.036 C 
ATOM      2  C   UNL     1      -1.215  -2.667  -0.447  0.00  0.00    +0.029 C 
ATOM      3  C   UNL     1      -1.195  -4.197  -0.455  0.00  0.00    -0.008 C 
ATOM      4  C   UNL     1       0.068  -4.694   0.252  0.00  0.00    +0.007 C 
ATOM      5  C   UNL     1       1.304  -4.163  -0.479  0.00  0.00    -0.008 C 
ATOM      6  C   UNL     1       1.283  -2.633  -0.470  0.00  0.00    +0.029 C 
ATOM      7  C   UNL     1       1.297  -4.665  -1.924  0.00  0.00    +0.020 C 
ATOM      8  C   UNL     1       0.034  -4.168  -2.631  0.00  0.00    +0.049 C 
ATOM      9  C   UNL     1      -1.201  -4.699  -1.900  0.00  0.00    +0.020 C 
ATOM     10  C   UNL     1       0.013  -2.639  -2.622  0.00  0.00    +0.042 C 
ENDROOT
BRANCH   1  14
ATOM     11  C   UNL     1      -0.018   1.503   0.010  0.00  0.00    +0.109 C 
ATOM     12  C   UNL     1       0.002  -0.004   0.002  0.00  0.00    +0.210 C 
ATOM     13  O   UNL     1       0.020  -0.616   1.049  0.00  0.00    -0.276 OA
ATOM     14  N   UNL     1       0.000  -0.672  -1.169  0.00  0.00    -0.310 N 
ATOM     15  H   UNL     1      -0.015  -0.182  -2.006  0.00  0.00    +0.149 HD
ENDBRANCH   1  14
BRANCH   8  16
ATOM     16  C   UNL     1       0.027  -4.663  -4.054  0.00  0.00    +0.219 C 
ATOM     17  O   UNL     1       0.008  -3.870  -4.971  0.00  0.00    -0.275 OA
ATOM     18  N   UNL     1       0.043  -5.987  -4.308  0.00  0.00    -0.318 N 
ATOM     19  C   UNL     1       0.036  -6.468  -5.691  0.00  0.00    +0.128 C 
ATOM     20  H   UNL     1       0.058  -6.621  -3.574  0.00  0.00    +0.148 HD
ENDBRANCH   8  16
TORSDOF 2
