REMARK  Name = ZINC50587226
REMARK  6 active torsions:
REMARK  status: ('A' for Active; 'I' for Inactive)
REMARK    1  A    between atoms: C_1  and  C_2
REMARK    2  A    between atoms: C_2  and  C_3
REMARK    3  A    between atoms: C_7  and  N_12
REMARK    4  A    between atoms: C_13  and  C_15
REMARK    5  A    between atoms: N_17  and  N_18
REMARK    6  A    between atoms: N_18  and  C_19
REMARK                            x       y       z     vdW  Elec       q    Type
REMARK                         _______ _______ _______ _____ _____    ______ ____
ROOT
ATOM      1  N   UNL     1       4.575  -2.309  -5.208  0.00  0.00    -0.278 N 
ATOM      2  C   UNL     1       4.522  -2.784  -6.469  0.00  0.00    +0.305 C 
ATOM      3  O   UNL     1       3.468  -2.791  -7.071  0.00  0.00    -0.265 OA
ATOM      4  H   UNL     1       5.428  -2.241  -4.751  0.00  0.00    +0.155 HD
ENDROOT
BRANCH   1   9
ATOM      5  C   UNL     1       0.464  -1.269  -1.202  0.00  0.00    +0.196 A 
ATOM      6  N   UNL     1       1.654  -1.786  -1.268  0.00  0.00    -0.213 NA
ATOM      7  C   UNL     1       2.088  -1.725  -2.557  0.00  0.00    +0.111 A 
ATOM      8  C   UNL     1       3.261  -2.121  -3.199  0.00  0.00    +0.055 A 
ATOM      9  C   UNL     1       3.400  -1.914  -4.560  0.00  0.00    +0.036 A 
ATOM     10  C   UNL     1       2.374  -1.313  -5.287  0.00  0.00    +0.027 A 
ATOM     11  C   UNL     1       1.213  -0.919  -4.660  0.00  0.00    +0.050 A 
ATOM     12  C   UNL     1       1.059  -1.121  -3.296  0.00  0.00    +0.155 A 
ATOM     13  O   UNL     1       0.066  -0.859  -2.416  0.00  0.00    -0.440 OA
BRANCH   5  15
ATOM     14  C   UNL     1      -0.060   0.186   0.736  0.00  0.00    +0.013 C 
ATOM     15  C   UNL     1      -0.355  -1.153   0.058  0.00  0.00    +0.093 C 
ENDBRANCH   5  15
ENDBRANCH   1   9
BRANCH   2  16
ATOM     16  C   UNL     1       5.760  -3.301  -7.124  0.00  0.00    +0.315 C 
ATOM     17  O   UNL     1       6.814  -3.294  -6.522  0.00  0.00    -0.264 OA
ATOM     18  N   UNL     1       5.707  -3.776  -8.385  0.00  0.00    -0.229 N 
ATOM     19  H   UNL     1       4.865  -3.781  -8.866  0.00  0.00    +0.173 HD
BRANCH  18  20
ATOM     20  N   UNL     1       6.869  -4.261  -9.000  0.00  0.00    -0.263 N 
ATOM     21  H   UNL     1       7.711  -4.255  -8.518  0.00  0.00    +0.170 HD
BRANCH  20  22
ATOM     22  C   UNL     1       6.814  -4.754 -10.307  0.00  0.00    +0.063 A 
ATOM     23  C   UNL     1       5.610  -4.757 -10.999  0.00  0.00    +0.027 A 
ATOM     24  C   UNL     1       5.559  -5.244 -12.291  0.00  0.00    +0.022 A 
ATOM     25  C   UNL     1       6.705  -5.728 -12.896  0.00  0.00    +0.042 A 
ATOM     26  C   UNL     1       7.906  -5.727 -12.209  0.00  0.00    +0.042 A 
ATOM     27  C   UNL     1       7.965  -5.235 -10.918  0.00  0.00    +0.065 A 
ATOM     28 CL   UNL     1       9.474  -5.227 -10.060  0.00  0.00    -0.082 Cl
ATOM     29 CL   UNL     1       6.636  -6.339 -14.519  0.00  0.00    -0.083 Cl
ENDBRANCH  20  22
ENDBRANCH  18  20
ENDBRANCH   2  16
TORSDOF 5
