REMARK  Name = ZINC14136795
REMARK  4 active torsions:
REMARK  status: ('A' for Active; 'I' for Inactive)
REMARK    1  A    between atoms: C_3  and  N_26
REMARK    2  A    between atoms: C_6  and  N_7
REMARK    3  A    between atoms: C_8  and  C_10
REMARK    4  A    between atoms: C_10  and  N_11
REMARK                            x       y       z     vdW  Elec       q    Type
REMARK                         _______ _______ _______ _____ _____    ______ ____
ROOT
ATOM      1  C   UNL     1      -0.933  -0.950   0.150  0.00  0.00    +0.214 C 
ENDROOT
BRANCH   1   2
ATOM      2  N   UNL     1      -0.420  -2.322   0.145  0.00  0.00    -0.215 N 
ATOM      3  C   UNL     1      -0.061  -3.002   1.254  0.00  0.00    +0.251 C 
ATOM      4  O   UNL     1      -0.098  -2.610   2.401  0.00  0.00    -0.272 OA
ATOM      5  C   UNL     1       0.397  -4.354   0.765  0.00  0.00    +0.139 C 
ATOM      6  C   UNL     1      -0.450  -5.468   1.361  0.00  0.00    +0.040 C 
ATOM      7  C   UNL     1      -0.134  -5.632   2.852  0.00  0.00    +0.008 C 
ATOM      8  C   UNL     1       1.287  -6.196   2.999  0.00  0.00    +0.043 C 
ATOM      9  C   UNL     1       2.205  -5.404   2.127  0.00  0.00    -0.005 A 
ATOM     10  C   UNL     1       1.861  -4.562   1.112  0.00  0.00    -0.005 A 
ATOM     11  C   UNL     1       2.911  -3.933   0.445  0.00  0.00    +0.014 A 
ATOM     12  C   UNL     1       4.190  -4.172   0.813  0.00  0.00    +0.046 A 
ATOM     13  S   UNL     1       3.975  -5.328   2.158  0.00  0.00    -0.101 S 
ATOM     14  N   UNL     1       0.233  -4.287  -0.691  0.00  0.00    -0.281 N 
ATOM     15  C   UNL     1      -0.256  -3.060  -0.960  0.00  0.00    +0.310 C 
ATOM     16  O   UNL     1      -0.515  -2.666  -2.080  0.00  0.00    -0.252 OA
ATOM     17  H   UNL     1       0.432  -4.987  -1.332  0.00  0.00    +0.152 HD
ENDBRANCH   1   2
BRANCH   1  19
ATOM     18  N   UNL     1      -0.016   1.344   0.009  0.00  0.00    -0.284 N 
ATOM     19  C   UNL     1       0.217   0.016   0.026  0.00  0.00    +0.235 C 
ATOM     20  O   UNL     1       1.353  -0.401  -0.058  0.00  0.00    -0.274 OA
ATOM     21  H   UNL     1      -0.927   1.676   0.008  0.00  0.00    +0.155 HD
BRANCH  18  27
ATOM     22  C   UNL     1       0.960   3.455   0.660  0.00  0.00    +0.025 A 
ATOM     23  C   UNL     1       2.020   4.340   0.644  0.00  0.00    +0.025 A 
ATOM     24  C   UNL     1       3.179   4.022  -0.053  0.00  0.00    +0.036 A 
ATOM     25  C   UNL     1       3.274   2.813  -0.728  0.00  0.00    +0.025 A 
ATOM     26  C   UNL     1       2.216   1.926  -0.708  0.00  0.00    +0.025 A 
ATOM     27  C   UNL     1       1.057   2.243  -0.011  0.00  0.00    +0.034 A 
BRANCH  24  28
ATOM     28  N   UNL     1       4.252   4.922  -0.073  0.00  0.00    -0.271 N 
ATOM     29  C   UNL     1       5.473   4.737  -0.867  0.00  0.00    +0.114 C 
ATOM     30  C   UNL     1       6.512   5.703  -0.257  0.00  0.00    +0.029 C 
ATOM     31  C   UNL     1       5.605   6.783   0.378  0.00  0.00    +0.098 C 
ATOM     32  C   UNL     1       4.294   6.069   0.627  0.00  0.00    +0.220 C 
ATOM     33  O   UNL     1       3.412   6.471   1.355  0.00  0.00    -0.275 OA
ENDBRANCH  24  28
ENDBRANCH  18  27
ENDBRANCH   1  19
TORSDOF 4
