REMARK  Name = ZINC11730723
REMARK  5 active torsions:
REMARK  status: ('A' for Active; 'I' for Inactive)
REMARK    1  A    between atoms: C_4  and  C_7
REMARK    2  A    between atoms: C_8  and  S_19
REMARK    3  A    between atoms: N_11  and  C_12
REMARK    4  A    between atoms: C_15  and  N_18
REMARK    5  A    between atoms: S_19  and  C_22
REMARK                            x       y       z     vdW  Elec       q    Type
REMARK                         _______ _______ _______ _____ _____    ______ ____
ROOT
ATOM      1  C   UNL     1       3.849   1.963  -0.272  0.00  0.00    +0.120 A 
ATOM      2  C   UNL     1       4.006   3.188  -0.859  0.00  0.00    +0.231 A 
ATOM      3  N   UNL     1       5.052   3.761  -0.260  0.00  0.00    -0.109 NA
ATOM      4  N   UNL     1       5.525   2.961   0.628  0.00  0.00    -0.058 NA
ATOM      5  N   UNL     1       4.843   1.870   0.664  0.00  0.00    -0.210 N 
ENDROOT
BRANCH   1   9
ATOM      6  C   UNL     1       0.898  -0.956  -1.180  0.00  0.00    +0.000 A 
ATOM      7  C   UNL     1       0.513   0.315  -0.793  0.00  0.00    +0.001 A 
ATOM      8  C   UNL     1       1.466   1.267  -0.497  0.00  0.00    +0.010 A 
ATOM      9  C   UNL     1       2.821   0.946  -0.588  0.00  0.00    +0.004 A 
ATOM     10  C   UNL     1       3.202  -0.338  -0.979  0.00  0.00    +0.010 A 
ATOM     11  C   UNL     1       2.239  -1.281  -1.272  0.00  0.00    +0.001 A 
ENDBRANCH   1   9
BRANCH   5  12
ATOM     12  C   UNL     1       5.077   0.778   1.512  0.00  0.00    +0.068 A 
ATOM     13  C   UNL     1       4.009   0.043   2.009  0.00  0.00    +0.029 A 
ATOM     14  C   UNL     1       4.240  -1.035   2.840  0.00  0.00    +0.025 A 
ATOM     15  C   UNL     1       5.540  -1.377   3.188  0.00  0.00    +0.025 A 
ATOM     16  C   UNL     1       6.609  -0.639   2.695  0.00  0.00    +0.025 A 
ATOM     17  C   UNL     1       6.377   0.435   1.859  0.00  0.00    +0.029 A 
BRANCH  15  18
ATOM     18  N   UNL     1       5.774  -2.465   4.034  0.00  0.00    -0.358 N 
ATOM     19  H   UNL     1       6.682  -2.704   4.277  0.00  0.00    +0.142 HD
ATOM     20  H   UNL     1       5.028  -2.981   4.378  0.00  0.00    +0.142 HD
ENDBRANCH  15  18
ENDBRANCH   5  12
BRANCH   2  21
ATOM     21  S   UNL     1       3.021   3.875  -2.148  0.00  0.00    +0.046 S 
ATOM     22  O   UNL     1       1.805   3.140  -2.167  0.00  0.00    -0.163 OA
ATOM     23  O   UNL     1       3.056   5.285  -1.978  0.00  0.00    -0.163 OA
BRANCH  21  24
ATOM     24  C   UNL     1       3.840   3.531  -3.670  0.00  0.00    +0.096 A 
ATOM     25  C   UNL     1       3.485   2.419  -4.410  0.00  0.00    +0.027 A 
ATOM     26  C   UNL     1       4.128   2.148  -5.604  0.00  0.00    +0.003 A 
ATOM     27  C   UNL     1       5.125   2.991  -6.058  0.00  0.00    +0.015 A 
ATOM     28  C   UNL     1       5.481   4.104  -5.318  0.00  0.00    +0.020 A 
ATOM     29  C   UNL     1       4.834   4.377  -4.126  0.00  0.00    +0.042 A 
ATOM     30 BR   UNL     1       6.845   5.256  -5.939  0.00  0.00    -0.050 Br
ENDBRANCH  21  24
ENDBRANCH   2  21
TORSDOF 5
