REMARK  Name = ZINC32594707
REMARK  4 active torsions:
REMARK  status: ('A' for Active; 'I' for Inactive)
REMARK    1  A    between atoms: C_4  and  O_35
REMARK    2  A    between atoms: C_5  and  C_7
REMARK    3  A    between atoms: N_22  and  C_25
REMARK    4  A    between atoms: C_30  and  C_31
REMARK                            x       y       z     vdW  Elec       q    Type
REMARK                         _______ _______ _______ _____ _____    ______ ____
ROOT
ATOM      1  C   UNL     1      -4.305   2.619   0.758  0.00  0.00    +0.078 C 
ATOM      2  C   UNL     1      -4.193   2.594   2.245  0.00  0.00    +0.033 A 
ATOM      3  C   UNL     1      -4.557   1.629   3.114  0.00  0.00    +0.087 A 
ATOM      4  N   UNL     1      -4.334   1.897   4.445  0.00  0.00    -0.311 N 
ATOM      5  H   UNL     1      -4.609   1.155   5.209  0.00  0.00    +0.170 HD
ATOM      6  C   UNL     1      -3.779   3.067   4.819  0.00  0.00    +0.289 A 
ATOM      7  O   UNL     1      -3.514   3.462   5.941  0.00  0.00    -0.260 OA
ATOM      8  S   UNL     1      -3.539   3.866   3.298  0.00  0.00    -0.030 S 
ATOM      9  S   UNL     1      -5.281   0.109   2.532  0.00  0.00    -0.106 S 
ATOM     10  C   UNL     1      -5.684   0.517   0.805  0.00  0.00    +0.093 C 
ATOM     11  C   UNL     1      -4.479   1.221   0.183  0.00  0.00    +0.077 C 
ATOM     12  C   UNL     1      -4.637   1.285  -1.345  0.00  0.00    +0.114 C 
ATOM     13  C   UNL     1      -3.452   0.491  -1.854  0.00  0.00    +0.227 C 
ATOM     14  O   UNL     1      -3.189   0.291  -3.020  0.00  0.00    -0.275 OA
ATOM     15  N   UNL     1      -2.742   0.043  -0.810  0.00  0.00    -0.209 N 
ATOM     16  C   UNL     1      -3.229   0.400   0.386  0.00  0.00    +0.235 C 
ATOM     17  O   UNL     1      -2.744   0.109   1.459  0.00  0.00    -0.274 OA
ENDROOT
BRANCH   1  22
ATOM     18  C   UNL     1      -0.671   3.285  -0.020  0.00  0.00    +0.001 A 
ATOM     19  C   UNL     1      -0.762   4.367  -0.876  0.00  0.00    +0.004 A 
ATOM     20  C   UNL     1      -1.999   4.886  -1.206  0.00  0.00    +0.046 A 
ATOM     21  C   UNL     1      -3.151   4.321  -0.677  0.00  0.00    +0.121 A 
ATOM     22  C   UNL     1      -3.056   3.235   0.182  0.00  0.00    +0.003 A 
ATOM     23  C   UNL     1      -1.816   2.723   0.512  0.00  0.00    +0.008 A 
BRANCH  21  24
ATOM     24  O   UNL     1      -4.369   4.829  -1.000  0.00  0.00    -0.506 OA
ATOM     25  H   UNL     1      -5.281   4.380  -0.580  0.00  0.00    +0.292 HD
ENDBRANCH  21  24
ENDBRANCH   1  22
BRANCH  15  26
ATOM     26  C   UNL     1      -1.581  -0.730  -0.957  0.00  0.00    +0.056 A 
ATOM     27  C   UNL     1      -0.350  -0.111  -1.128  0.00  0.00    +0.024 A 
ATOM     28  C   UNL     1       0.791  -0.875  -1.273  0.00  0.00    +0.002 A 
ATOM     29  C   UNL     1       0.709  -2.255  -1.248  0.00  0.00    +0.001 A 
ATOM     30  C   UNL     1      -0.515  -2.874  -1.074  0.00  0.00    +0.014 A 
ATOM     31  C   UNL     1      -1.661  -2.115  -0.933  0.00  0.00    +0.077 A 
BRANCH  31  32
ATOM     32  C   UNL     1      -2.995  -2.791  -0.748  0.00  0.00    +0.419 C 
ATOM     33  F   UNL     1      -2.837  -4.176  -0.867  0.00  0.00    -0.166 F 
ATOM     34  F   UNL     1      -3.499  -2.487   0.522  0.00  0.00    -0.166 F 
ATOM     35  F   UNL     1      -3.888  -2.337  -1.724  0.00  0.00    -0.166 F 
ENDBRANCH  31  32
ENDBRANCH  15  26
TORSDOF 4
