REMARK  Name = ZINC32615798
REMARK  4 active torsions:
REMARK  status: ('A' for Active; 'I' for Inactive)
REMARK    1  A    between atoms: C_1  and  C_2
REMARK    2  A    between atoms: C_5  and  C_16
REMARK    3  A    between atoms: N_9  and  C_12
REMARK    4  A    between atoms: C_12  and  C_13
REMARK                            x       y       z     vdW  Elec       q    Type
REMARK                         _______ _______ _______ _____ _____    ______ ____
ROOT
ATOM      1  C   UNL     1      -4.875   4.417  -4.916  0.00  0.00    +0.074 C 
ATOM      2  C   UNL     1      -4.430   4.254  -3.486  0.00  0.00    +0.078 A 
ATOM      3  N   UNL     1      -5.106   4.460  -2.388  0.00  0.00    -0.241 NA
ATOM      4  C   UNL     1      -4.576   4.275  -1.163  0.00  0.00    +0.121 A 
ATOM      5  C   UNL     1      -5.182   4.476   0.119  0.00  0.00    +0.104 A 
ATOM      6  N   UNL     1      -4.495   4.239   1.222  0.00  0.00    -0.191 NA
ATOM      7  C   UNL     1      -3.234   3.812   1.206  0.00  0.00    +0.350 A 
ATOM      8  O   UNL     1      -2.650   3.610   2.258  0.00  0.00    -0.244 OA
ATOM      9  N   UNL     1      -2.595   3.600   0.034  0.00  0.00    -0.276 N 
ATOM     10  C   UNL     1      -3.244   3.830  -1.131  0.00  0.00    +0.114 A 
ATOM     11  S   UNL     1      -2.847   3.711  -2.857  0.00  0.00    -0.054 S 
ENDROOT
BRANCH   5  12
ATOM     12  C   UNL     1      -6.580   4.950   0.208  0.00  0.00    +0.003 A 
ATOM     13  C   UNL     1      -7.308   5.208  -0.955  0.00  0.00    +0.011 A 
ATOM     14  C   UNL     1      -8.613   5.645  -0.865  0.00  0.00    +0.020 A 
ATOM     15  C   UNL     1      -9.198   5.838   0.375  0.00  0.00    +0.041 A 
ATOM     16  C   UNL     1      -8.479   5.589   1.532  0.00  0.00    +0.020 A 
ATOM     17  C   UNL     1      -7.175   5.147   1.456  0.00  0.00    +0.011 A 
ATOM     18 CL   UNL     1     -10.839   6.394   0.480  0.00  0.00    -0.084 Cl
ENDBRANCH   5  12
BRANCH   9  19
ATOM     19  C   UNL     1      -1.208   3.131   0.025  0.00  0.00    +0.222 C 
BRANCH  19  20
ATOM     20  C   UNL     1      -1.187   1.624   0.017  0.00  0.00    +0.230 C 
ATOM     21  O   UNL     1      -2.229   1.003   0.018  0.00  0.00    -0.274 OA
ATOM     22  N   UNL     1      -0.011   0.966   0.007  0.00  0.00    -0.328 N 
ATOM     23  H   UNL     1       0.004  -0.134   0.001  0.00  0.00    +0.145 HD
ATOM     24  H   UNL     1       0.934   1.529   0.006  0.00  0.00    +0.145 HD
ENDBRANCH  19  20
ENDBRANCH   9  19
TORSDOF 3
