REMARK  Name = ZINC01926536
REMARK  7 active torsions:
REMARK  status: ('A' for Active; 'I' for Inactive)
REMARK    1  A    between atoms: C_1  and  O_2
REMARK    2  A    between atoms: O_2  and  C_3
REMARK    3  A    between atoms: C_8  and  C_9
REMARK    4  A    between atoms: N_11  and  N_12
REMARK    5  A    between atoms: N_12  and  C_13
REMARK    6  A    between atoms: C_13  and  N_15
REMARK    7  A    between atoms: C_16  and  C_18
REMARK                            x       y       z     vdW  Elec       q    Type
REMARK                         _______ _______ _______ _____ _____    ______ ____
ROOT
ATOM      1  N   UNL     1       1.193   1.683  -0.000  0.00  0.00    -0.245 N 
ATOM      2  H   UNL     1       1.179   2.653   0.005  0.00  0.00    +0.172 HD
ENDROOT
BRANCH   1   5
ATOM      3  C   UNL     1      -1.187   1.624   0.017  0.00  0.00    +0.264 C 
ATOM      4  O   UNL     1      -1.204   2.840   0.023  0.00  0.00    -0.269 OA
ATOM      5  N   UNL     1      -0.011   0.966   0.007  0.00  0.00    -0.231 N 
ATOM      6  H   UNL     1       0.002  -0.004   0.002  0.00  0.00    +0.173 HD
BRANCH   3  12
ATOM      7  C   UNL     1      -3.680   1.549   0.028  0.00  0.00    +0.132 A 
ATOM      8  C   UNL     1      -4.866   0.829   0.029  0.00  0.00    +0.046 A 
ATOM      9  C   UNL     1      -4.837  -0.551   0.021  0.00  0.00    +0.004 A 
ATOM     10  C   UNL     1      -3.628  -1.227   0.011  0.00  0.00    +0.001 A 
ATOM     11  C   UNL     1      -2.441  -0.528   0.005  0.00  0.00    +0.017 A 
ATOM     12  C   UNL     1      -2.455   0.869   0.018  0.00  0.00    +0.080 A 
BRANCH   7  14
ATOM     13  C   UNL     1      -4.992   3.529   0.045  0.00  0.00    +0.277 C 
ATOM     14  O   UNL     1      -3.707   2.905   0.035  0.00  0.00    -0.494 OA
ENDBRANCH   7  14
ENDBRANCH   3  12
ENDBRANCH   1   5
BRANCH   1  15
ATOM     15  C   UNL     1       2.369   1.025  -0.015  0.00  0.00    +0.153 C 
ATOM     16  S   UNL     1       3.840   1.901  -0.024  0.00  0.00    -0.017 S 
BRANCH  15  17
ATOM     17  N   UNL     1       2.387  -0.323  -0.022  0.00  0.00    -0.263 N 
ATOM     18  C   UNL     1       3.563  -0.981  -0.037  0.00  0.00    +0.251 C 
ATOM     19  O   UNL     1       4.607  -0.359  -0.044  0.00  0.00    -0.270 OA
ATOM     20  H   UNL     1       1.554  -0.819  -0.017  0.00  0.00    +0.157 HD
BRANCH  18  21
ATOM     21  C   UNL     1       3.583  -2.458  -0.045  0.00  0.00    +0.050 A 
ATOM     22  C   UNL     1       2.385  -3.176  -0.032  0.00  0.00    +0.014 A 
ATOM     23  C   UNL     1       2.411  -4.554  -0.045  0.00  0.00    +0.001 A 
ATOM     24  C   UNL     1       3.621  -5.227  -0.060  0.00  0.00    +0.001 A 
ATOM     25  C   UNL     1       4.811  -4.523  -0.068  0.00  0.00    +0.015 A 
ATOM     26  C   UNL     1       4.800  -3.143  -0.061  0.00  0.00    +0.025 A 
ATOM     27  I   UNL     1       6.604  -2.078  -0.071  0.00  0.00    -0.043 I 
ENDBRANCH  18  21
ENDBRANCH  15  17
ENDBRANCH   1  15
TORSDOF 6
