REMARK  Name = ZINC58491044
REMARK  4 active torsions:
REMARK  status: ('A' for Active; 'I' for Inactive)
REMARK    1  A    between atoms: C_6  and  C_10
REMARK    2  A    between atoms: C_10  and  C_11
REMARK    3  A    between atoms: N_13  and  N_14
REMARK    4  A    between atoms: C_15  and  C_17
REMARK                            x       y       z     vdW  Elec       q    Type
REMARK                         _______ _______ _______ _____ _____    ______ ____
ROOT
ATOM      1  C   UNL     1       3.992  -3.732   1.362  0.00  0.00    +0.237 C 
ATOM      2  O   UNL     1       3.568  -3.079   2.292  0.00  0.00    -0.274 OA
ATOM      3  N   UNL     1       4.721  -4.842   1.595  0.00  0.00    -0.234 N 
ATOM      4  H   UNL     1       5.059  -5.364   0.851  0.00  0.00    +0.173 HD
ENDROOT
BRANCH   3   5
ATOM      5  N   UNL     1       4.990  -5.240   2.911  0.00  0.00    -0.230 N 
ATOM      6  C   UNL     1       5.719  -6.349   3.144  0.00  0.00    +0.267 C 
ATOM      7  O   UNL     1       6.144  -7.005   2.211  0.00  0.00    -0.268 OA
ATOM      8  H   UNL     1       4.651  -4.717   3.655  0.00  0.00    +0.173 HD
BRANCH   6   9
ATOM      9  C   UNL     1       6.000  -6.766   4.521  0.00  0.00    +0.076 A 
ATOM     10  C   UNL     1       6.723  -7.853   4.972  0.00  0.00    +0.024 A 
ATOM     11  C   UNL     1       6.832  -8.011   6.351  0.00  0.00    -0.036 A 
ATOM     12  C   UNL     1       6.213  -7.077   7.119  0.00  0.00    -0.006 A 
ATOM     13  S   UNL     1       5.507  -5.998   6.051  0.00  0.00    -0.088 S 
ATOM     14  C   UNL     1       6.161  -7.005   8.616  0.00  0.00    +0.043 C 
ATOM     15  C   UNL     1       7.418  -7.657   9.202  0.00  0.00    +0.005 C 
ATOM     16  C   UNL     1       7.145  -9.144   9.408  0.00  0.00    +0.001 C 
ATOM     17  C   UNL     1       6.819  -9.819   8.079  0.00  0.00    +0.005 C 
ATOM     18  C   UNL     1       7.614  -9.177   6.946  0.00  0.00    +0.036 C 
ENDBRANCH   6   9
ENDBRANCH   3   5
BRANCH   1  19
ATOM     19  C   UNL     1       3.702  -3.304  -0.053  0.00  0.00    +0.175 C 
BRANCH  19  25
ATOM     20  C   UNL     1      -0.016   1.354   0.009  0.00  0.00    +0.040 A 
ATOM     21  C   UNL     1       1.196   2.054   0.002  0.00  0.00    +0.116 A 
ATOM     22  N   UNL     1       2.337   1.404  -0.013  0.00  0.00    -0.219 NA
ATOM     23  C   UNL     1       2.365   0.066  -0.021  0.00  0.00    +0.253 A 
ATOM     24  N   UNL     1       3.363  -0.810  -0.036  0.00  0.00    -0.193 NA
ATOM     25  C   UNL     1       2.876  -2.044  -0.038  0.00  0.00    +0.162 A 
ATOM     26  N   UNL     1       1.565  -2.000  -0.024  0.00  0.00    -0.148 NA
ATOM     27  N   UNL     1       1.200  -0.647  -0.013  0.00  0.00    -0.204 N 
ATOM     28  C   UNL     1       0.002  -0.004   0.002  0.00  0.00    +0.118 A 
ENDBRANCH  19  25
ENDBRANCH   1  19
TORSDOF 4
