REMARK  Name = ZINC04516698
REMARK  6 active torsions:
REMARK  status: ('A' for Active; 'I' for Inactive)
REMARK    1  A    between atoms: C_1  and  C_2
REMARK    2  A    between atoms: C_7  and  N_8
REMARK    3  A    between atoms: C_9  and  C_11
REMARK    4  A    between atoms: C_11  and  N_12
REMARK    5  A    between atoms: C_15  and  C_19
REMARK    6  A    between atoms: C_15  and  C_20
REMARK                            x       y       z     vdW  Elec       q    Type
REMARK                         _______ _______ _______ _____ _____    ______ ____
ROOT
ATOM      1  N   UNL     1      -0.288   1.272  -2.443  0.00  0.00    -0.284 N 
ATOM      2  C   UNL     1      -0.743   1.582  -1.213  0.00  0.00    +0.235 C 
ATOM      3  O   UNL     1      -1.734   2.271  -1.088  0.00  0.00    -0.274 OA
ATOM      4  H   UNL     1       0.547   0.790  -2.544  0.00  0.00    +0.155 HD
ENDROOT
BRANCH   1  11
ATOM      5  C   UNL     1       1.108   1.601  -4.900  0.00  0.00    +0.046 C 
ATOM      6  C   UNL     1      -0.380   1.818  -4.794  0.00  0.00    -0.028 A 
ATOM      7  C   UNL     1      -1.107   2.182  -5.911  0.00  0.00    +0.025 A 
ATOM      8  C   UNL     1      -2.472   2.386  -5.813  0.00  0.00    +0.041 A 
ATOM      9  C   UNL     1      -3.113   2.222  -4.598  0.00  0.00    +0.022 A 
ATOM     10  C   UNL     1      -2.392   1.853  -3.479  0.00  0.00    +0.025 A 
ATOM     11  C   UNL     1      -1.022   1.647  -3.575  0.00  0.00    +0.036 A 
ATOM     12 CL   UNL     1      -3.381   2.850  -7.217  0.00  0.00    -0.084 Cl
ENDBRANCH   1  11
BRANCH   2  13
ATOM     13  C   UNL     1      -0.021   1.073   0.008  0.00  0.00    +0.214 C 
BRANCH  13  14
ATOM     14  N   UNL     1      -0.707   1.544   1.213  0.00  0.00    -0.215 N 
ATOM     15  C   UNL     1      -0.421   2.700   1.844  0.00  0.00    +0.246 C 
ATOM     16  O   UNL     1       0.420   3.516   1.533  0.00  0.00    -0.273 OA
ATOM     17  C   UNL     1      -1.372   2.770   3.023  0.00  0.00    +0.107 C 
ATOM     18  N   UNL     1      -2.152   1.525   2.913  0.00  0.00    -0.285 N 
ATOM     19  C   UNL     1      -1.691   0.877   1.827  0.00  0.00    +0.310 C 
ATOM     20  O   UNL     1      -2.121  -0.194   1.447  0.00  0.00    -0.252 OA
ATOM     21  C   UNL     1      -2.288   3.990   2.909  0.00  0.00    +0.041 C 
ATOM     22  C   UNL     1      -0.591   2.802   4.338  0.00  0.00    +0.041 C 
ATOM     23  H   UNL     1      -2.859   1.229   3.507  0.00  0.00    +0.151 HD
ENDBRANCH  13  14
ENDBRANCH   2  13
TORSDOF 3
