REMARK  Name = ZINC37929191
REMARK  5 active torsions:
REMARK  status: ('A' for Active; 'I' for Inactive)
REMARK    1  A    between atoms: C_1  and  C_2
REMARK    2  A    between atoms: C_7  and  N_8
REMARK    3  A    between atoms: N_8  and  S_9
REMARK    4  A    between atoms: S_9  and  C_12
REMARK    5  A    between atoms: C_17  and  N_18
REMARK                            x       y       z     vdW  Elec       q    Type
REMARK                         _______ _______ _______ _____ _____    ______ ____
ROOT
ATOM      1  S   UNL     1       0.777  -0.682   3.813  0.00  0.00    +0.074 S 
ATOM      2  O   UNL     1       0.572   0.106   4.977  0.00  0.00    -0.150 OA
ATOM      3  O   UNL     1       0.380  -2.044   3.735  0.00  0.00    -0.150 OA
ENDROOT
BRANCH   1   4
ATOM      4  C   UNL     1       2.506  -0.642   3.475  0.00  0.00    +0.130 A 
ATOM      5  C   UNL     1       3.194  -1.818   3.249  0.00  0.00    +0.050 A 
ATOM      6  C   UNL     1       4.551  -1.787   2.983  0.00  0.00    +0.043 A 
ATOM      7  C   UNL     1       5.224  -0.578   2.944  0.00  0.00    +0.022 A 
ATOM      8  C   UNL     1       4.541   0.601   3.170  0.00  0.00    +0.026 A 
ATOM      9  C   UNL     1       3.177   0.573   3.431  0.00  0.00    +0.052 A 
ATOM     10 CL   UNL     1       5.412  -3.267   2.699  0.00  0.00    -0.083 Cl
BRANCH   9  11
ATOM     11  N   UNL     1       2.483   1.765   3.654  0.00  0.00    -0.356 N 
ATOM     12  H   UNL     1       1.517   1.754   3.746  0.00  0.00    +0.142 HD
ATOM     13  H   UNL     1       2.966   2.604   3.717  0.00  0.00    +0.142 HD
ENDBRANCH   9  11
ENDBRANCH   1   4
BRANCH   1  14
ATOM     14  N   UNL     1       0.017   0.104   2.569  0.00  0.00    -0.216 N 
ATOM     15  H   UNL     1      -0.521   0.891   2.749  0.00  0.00    +0.174 HD
BRANCH  14  22
ATOM     16  C   UNL     1       0.113   2.012   0.461  0.00  0.00    +0.046 C 
ATOM     17  C   UNL     1       0.201   0.530   0.200  0.00  0.00    -0.027 A 
ATOM     18  C   UNL     1       0.338   0.062  -1.092  0.00  0.00    +0.025 A 
ATOM     19  C   UNL     1       0.420  -1.298  -1.332  0.00  0.00    +0.041 A 
ATOM     20  C   UNL     1       0.364  -2.194  -0.279  0.00  0.00    +0.022 A 
ATOM     21  C   UNL     1       0.226  -1.732   1.015  0.00  0.00    +0.026 A 
ATOM     22  C   UNL     1       0.150  -0.366   1.260  0.00  0.00    +0.051 A 
ATOM     23 CL   UNL     1       0.593  -1.882  -2.958  0.00  0.00    -0.084 Cl
ENDBRANCH  14  22
ENDBRANCH   1  14
TORSDOF 4
