REMARK  Name = ZINC13364850
REMARK  5 active torsions:
REMARK  status: ('A' for Active; 'I' for Inactive)
REMARK    1  A    between atoms: C_1  and  N_2
REMARK    2  A    between atoms: C_5  and  N_19
REMARK    3  A    between atoms: C_6  and  N_13
REMARK    4  A    between atoms: N_9  and  C_12
REMARK    5  A    between atoms: N_22  and  C_23
REMARK                            x       y       z     vdW  Elec       q    Type
REMARK                         _______ _______ _______ _____ _____    ______ ____
ROOT
ATOM      1  C   UNL     1       3.588   0.853  -0.022  0.00  0.00    +0.154 C 
ATOM      2  N   UNL     1       2.125   0.781   0.008  0.00  0.00    -0.295 N 
ATOM      3  C   UNL     1       1.365  -0.390   0.013  0.00  0.00    +0.071 A 
ATOM      4  C   UNL     1       1.697  -1.736  -0.006  0.00  0.00    +0.053 A 
ATOM      5  C   UNL     1       0.696  -2.694   0.007  0.00  0.00    +0.058 A 
ATOM      6  C   UNL     1      -0.644  -2.305   0.039  0.00  0.00    +0.053 A 
ATOM      7  C   UNL     1      -0.976  -0.960   0.058  0.00  0.00    +0.053 A 
ATOM      8  C   UNL     1       0.025  -0.000   0.045  0.00  0.00    +0.071 A 
ATOM      9  N   UNL     1       0.011   1.394   0.059  0.00  0.00    -0.295 N 
ATOM     10  C   UNL     1       1.284   1.832   0.036  0.00  0.00    +0.330 A 
ATOM     11  O   UNL     1       1.623   3.001   0.040  0.00  0.00    -0.246 OA
ATOM     12  C   UNL     1      -1.185   2.239   0.087  0.00  0.00    +0.154 C 
ENDROOT
BRANCH   6  13
ATOM     13  N   UNL     1      -1.654  -3.276   0.052  0.00  0.00    -0.328 N 
ATOM     14  C   UNL     1      -2.474  -3.199  -1.164  0.00  0.00    +0.105 C 
ATOM     15  C   UNL     1      -3.470  -4.361  -1.184  0.00  0.00    +0.019 C 
ATOM     16  C   UNL     1      -4.360  -4.284   0.059  0.00  0.00    +0.003 C 
ATOM     17  C   UNL     1      -3.479  -4.316   1.311  0.00  0.00    +0.019 C 
ATOM     18  C   UNL     1      -2.483  -3.156   1.258  0.00  0.00    +0.105 C 
ENDBRANCH   6  13
BRANCH   5  19
ATOM     19  N   UNL     1       1.030  -4.057  -0.013  0.00  0.00    -0.267 N 
ATOM     20  C   UNL     1       2.106  -4.477  -0.708  0.00  0.00    +0.308 C 
ATOM     21  O   UNL     1       2.837  -3.667  -1.245  0.00  0.00    -0.252 OA
ATOM     22  N   UNL     1       2.372  -5.795  -0.805  0.00  0.00    -0.268 N 
ATOM     23  H   UNL     1       0.486  -4.697   0.472  0.00  0.00    +0.156 HD
ATOM     24  H   UNL     1       1.747  -6.444  -0.448  0.00  0.00    +0.156 HD
BRANCH  22  25
ATOM     25  C   UNL     1       3.552  -6.226  -1.423  0.00  0.00    +0.049 A 
ATOM     26  C   UNL     1       4.658  -5.388  -1.473  0.00  0.00    +0.024 A 
ATOM     27  C   UNL     1       5.822  -5.819  -2.080  0.00  0.00    +0.002 A 
ATOM     28  C   UNL     1       5.883  -7.079  -2.647  0.00  0.00    +0.001 A 
ATOM     29  C   UNL     1       4.783  -7.914  -2.603  0.00  0.00    +0.017 A 
ATOM     30  C   UNL     1       3.616  -7.491  -1.993  0.00  0.00    +0.039 A 
ATOM     31 BR   UNL     1       2.111  -8.634  -1.935  0.00  0.00    -0.048 Br
ENDBRANCH  22  25
ENDBRANCH   5  19
TORSDOF 3
