REMARK  Name = ZINC12882810
REMARK  6 active torsions:
REMARK  status: ('A' for Active; 'I' for Inactive)
REMARK    1  A    between atoms: C_1  and  C_2
REMARK    2  A    between atoms: C_16  and  C_18
REMARK    3  A    between atoms: C_18  and  C_20
REMARK    4  A    between atoms: C_18  and  O_21
REMARK    5  A    between atoms: N_24  and  C_27
REMARK    6  A    between atoms: C_27  and  C_28
REMARK                            x       y       z     vdW  Elec       q    Type
REMARK                         _______ _______ _______ _____ _____    ______ ____
ROOT
ATOM      1  C   UNL     1      -2.498   1.770   0.048  0.00  0.00    +0.047 C 
ATOM      2  C   UNL     1      -1.083   2.288   0.030  0.00  0.00    -0.011 A 
ATOM      3  C   UNL     1      -0.847   3.648   0.030  0.00  0.00    +0.046 A 
ATOM      4  C   UNL     1       0.449   4.132   0.019  0.00  0.00    +0.020 A 
ATOM      5  C   UNL     1       1.514   3.249   0.004  0.00  0.00    +0.006 A 
ATOM      6  C   UNL     1       1.283   1.891   0.000  0.00  0.00    -0.027 A 
ATOM      7  C   UNL     1      -0.017   1.392   0.010  0.00  0.00    +0.040 A 
ATOM      8  N   UNL     1       0.002  -0.004   0.002  0.00  0.00    -0.286 N 
ATOM      9  C   UNL     1       1.256  -0.495  -0.012  0.00  0.00    +0.211 C 
ATOM     10  O   UNL     1       1.576  -1.665  -0.021  0.00  0.00    -0.277 OA
ATOM     11  C   UNL     1       2.184   0.689  -0.013  0.00  0.00    +0.050 C 
ATOM     12  C   UNL     1       3.099   0.683  -1.242  0.00  0.00    +0.088 C 
ATOM     13  C   UNL     1       4.439   0.084  -0.732  0.00  0.00    +0.075 C 
ATOM     14  C   UNL     1       4.187  -0.234   0.758  0.00  0.00    -0.028 C 
ATOM     15  C   UNL     1       4.557  -1.212  -1.501  0.00  0.00    +0.224 C 
ATOM     16  O   UNL     1       5.472  -2.002  -1.407  0.00  0.00    -0.275 OA
ATOM     17  N   UNL     1       3.495  -1.351  -2.303  0.00  0.00    -0.237 N 
ATOM     18  C   UNL     1       2.614  -0.347  -2.237  0.00  0.00    +0.225 C 
ATOM     19  O   UNL     1       1.586  -0.274  -2.875  0.00  0.00    -0.275 OA
ATOM     20 CL   UNL     1      -2.183   4.757   0.048  0.00  0.00    -0.083 Cl
ATOM     21  H   UNL     1      -0.795  -0.556   0.007  0.00  0.00    +0.155 HD
ATOM     22  N   UNL     1       3.083   0.655   1.127  0.00  0.00    +0.396 N 
ATOM     23  H   UNL     1       2.595   0.289   1.954  0.00  0.00    -0.083 HD
ATOM     24  H   UNL     1       3.438   1.597   1.328  0.00  0.00    -0.083 HD
ENDROOT
BRANCH  14  25
ATOM     25  C   UNL     1       5.440   0.058   1.587  0.00  0.00    +0.098 C 
ATOM     26  C   UNL     1       5.143  -0.191   3.067  0.00  0.00    +0.036 C 
BRANCH  25  27
ATOM     27  O   UNL     1       5.826   1.422   1.402  0.00  0.00    -0.394 OA
ATOM     28  H   UNL     1       5.152   2.061   1.669  0.00  0.00    +0.210 HD
ENDBRANCH  25  27
ENDBRANCH  14  25
BRANCH  17  29
ATOM     29  C   UNL     1       3.312  -2.509  -3.182  0.00  0.00    +0.151 C 
BRANCH  29  30
ATOM     30  C   UNL     1       3.945  -2.228  -4.521  0.00  0.00    -0.026 A 
ATOM     31  C   UNL     1       5.268  -2.561  -4.742  0.00  0.00    +0.009 A 
ATOM     32  C   UNL     1       5.852  -2.306  -5.968  0.00  0.00    +0.050 A 
ATOM     33  C   UNL     1       5.112  -1.716  -6.980  0.00  0.00    +0.166 A 
ATOM     34  C   UNL     1       3.779  -1.381  -6.757  0.00  0.00    +0.167 A 
ATOM     35  C   UNL     1       3.198  -1.645  -5.527  0.00  0.00    +0.054 A 
ATOM     36  O   UNL     1       3.274  -0.819  -7.894  0.00  0.00    -0.453 OA
ATOM     37  C   UNL     1       4.421  -0.441  -8.678  0.00  0.00    +0.466 C 
ATOM     38  O   UNL     1       5.443  -1.364  -8.256  0.00  0.00    -0.453 OA
ENDBRANCH  29  30
ENDBRANCH  17  29
TORSDOF 4
