REMARK  Name = ZINC05645205
REMARK  7 active torsions:
REMARK  status: ('A' for Active; 'I' for Inactive)
REMARK    1  A    between atoms: C_1  and  C_2
REMARK    2  A    between atoms: C_6  and  C_20
REMARK    3  A    between atoms: C_9  and  C_16
REMARK    4  A    between atoms: C_9  and  O_19
REMARK    5  A    between atoms: C_12  and  O_15
REMARK    6  A    between atoms: C_16  and  C_17
REMARK    7  A    between atoms: C_16  and  C_18
REMARK                            x       y       z     vdW  Elec       q    Type
REMARK                         _______ _______ _______ _____ _____    ______ ____
ROOT
ATOM      1  C   UNL     1       2.612   2.302   0.744  0.00  0.00    +0.039 C 
ATOM      2  C   UNL     1       1.219   1.794   1.012  0.00  0.00    -0.067 C 
ATOM      3  C   UNL     1       0.629   1.000   0.118  0.00  0.00    +0.046 C 
ATOM      4  C   UNL     1      -0.758   0.550   0.328  0.00  0.00    +0.162 C 
ATOM      5  O   UNL     1      -1.034  -0.617   0.509  0.00  0.00    -0.292 OA
ATOM      6  C   UNL     1      -1.807   1.616   0.297  0.00  0.00    +0.038 C 
ATOM      7  C   UNL     1      -3.245   1.098   0.142  0.00  0.00    +0.018 C 
ATOM      8  C   UNL     1      -4.107   2.279   0.664  0.00  0.00    +0.036 C 
ATOM      9  C   UNL     1      -3.194   3.109   1.601  0.00  0.00    +0.074 C 
ATOM     10  C   UNL     1      -1.861   2.365   1.620  0.00  0.00    +0.063 C 
ATOM     11  C   UNL     1      -0.638   3.160   1.966  0.00  0.00    +0.125 C 
ATOM     12  C   UNL     1       0.514   2.196   2.293  0.00  0.00    +0.062 C 
ATOM     13  C   UNL     1      -1.505   2.599  -0.837  0.00  0.00    +0.020 C 
ENDROOT
BRANCH   9  14
ATOM     14  C   UNL     1      -3.006   4.521   1.044  0.00  0.00    +0.015 C 
ATOM     15  C   UNL     1      -4.371   5.123   0.706  0.00  0.00    +0.010 C 
ATOM     16  C   UNL     1      -2.309   5.393   2.090  0.00  0.00    +0.010 C 
ENDBRANCH   9  14
BRANCH  11  17
ATOM     17  O   UNL     1      -0.273   3.983   0.857  0.00  0.00    -0.391 OA
ATOM     18  H   UNL     1       0.515   4.522   1.011  0.00  0.00    +0.210 HD
ENDBRANCH  11  17
BRANCH   9  19
ATOM     19  O   UNL     1      -3.750   3.165   2.916  0.00  0.00    -0.388 OA
ATOM     20  H   UNL     1      -4.598   3.627   2.965  0.00  0.00    +0.210 HD
ENDBRANCH   9  19
TORSDOF 3
