REMARK  Name = ZINC17207135
REMARK  7 active torsions:
REMARK  status: ('A' for Active; 'I' for Inactive)
REMARK    1  A    between atoms: C_1  and  C_2
REMARK    2  A    between atoms: C_2  and  C_3
REMARK    3  A    between atoms: C_3  and  C_5
REMARK    4  A    between atoms: C_3  and  N_6
REMARK    5  A    between atoms: C_10  and  N_11
REMARK    6  A    between atoms: N_11  and  N_12
REMARK    7  A    between atoms: N_12  and  C_13
REMARK                            x       y       z     vdW  Elec       q    Type
REMARK                         _______ _______ _______ _____ _____    ______ ____
ROOT
ATOM      1  N   UNL     1      -2.149  -0.123   1.240  0.00  0.00    -0.245 N 
ATOM      2  C   UNL     1      -3.296   0.583   1.144  0.00  0.00    +0.259 C 
ATOM      3  O   UNL     1      -3.793   0.832   0.061  0.00  0.00    -0.269 OA
ATOM      4  C   UNL     1      -3.927   1.041   2.395  0.00  0.00    +0.116 C 
ATOM      5  C   UNL     1      -5.106   1.770   2.387  0.00  0.00    +0.106 C 
ATOM      6  C   UNL     1      -3.251   0.689   3.652  0.00  0.00    +0.276 C 
ATOM      7  O   UNL     1      -3.764   1.069   4.841  0.00  0.00    -0.268 OA
ATOM      8  N   UNL     1      -2.130  -0.009   3.591  0.00  0.00    -0.153 NA
ATOM      9  C   UNL     1      -1.605  -0.402   2.433  0.00  0.00    +0.167 C 
ATOM     10  S   UNL     1      -0.153  -1.308   2.469  0.00  0.00    -0.016 S 
ENDROOT
BRANCH   1  11
ATOM     11  C   UNL     1      -1.490  -0.596   0.019  0.00  0.00    +0.080 C 
ATOM     12  C   UNL     1      -1.072   0.604  -0.833  0.00  0.00    +0.028 C 
BRANCH  11  14
ATOM     13  C   UNL     1      -2.822  -2.709   0.049  0.00  0.00    +0.006 C 
ATOM     14  C   UNL     1      -2.459  -1.473  -0.776  0.00  0.00    +0.019 C 
ENDBRANCH  11  14
ENDBRANCH   1  11
BRANCH   5  15
ATOM     15  N   UNL     1      -5.732   2.051   3.546  0.00  0.00    -0.273 N 
ATOM     16  H   UNL     1      -5.322   1.807   4.390  0.00  0.00    +0.169 HD
BRANCH  15  17
ATOM     17  N   UNL     1      -6.975   2.697   3.531  0.00  0.00    -0.267 N 
ATOM     18  H   UNL     1      -7.385   2.942   2.687  0.00  0.00    +0.170 HD
BRANCH  17  19
ATOM     19  C   UNL     1      -7.625   2.989   4.733  0.00  0.00    +0.044 A 
ATOM     20  C   UNL     1      -7.037   2.644   5.944  0.00  0.00    +0.024 A 
ATOM     21  C   UNL     1      -7.681   2.934   7.130  0.00  0.00    +0.002 A 
ATOM     22  C   UNL     1      -8.911   3.566   7.114  0.00  0.00    +0.000 A 
ATOM     23  C   UNL     1      -9.499   3.910   5.911  0.00  0.00    +0.002 A 
ATOM     24  C   UNL     1      -8.857   3.630   4.721  0.00  0.00    +0.024 A 
ENDBRANCH  17  19
ENDBRANCH  15  17
ENDBRANCH   5  15
TORSDOF 5
