REMARK  Name = ZINC39673868
REMARK  9 active torsions:
REMARK  status: ('A' for Active; 'I' for Inactive)
REMARK    1  A    between atoms: C_1  and  C_2
REMARK    2  A    between atoms: C_2  and  C_3
REMARK    3  A    between atoms: C_3  and  C_4
REMARK    4  A    between atoms: C_4  and  C_6
REMARK    5  A    between atoms: C_4  and  N_7
REMARK    6  A    between atoms: C_8  and  C_10
REMARK    7  A    between atoms: C_21  and  C_23
REMARK    8  A    between atoms: C_24  and  C_34
REMARK    9  A    between atoms: C_27  and  C_28
REMARK                            x       y       z     vdW  Elec       q    Type
REMARK                         _______ _______ _______ _____ _____    ______ ____
ROOT
ATOM      1  C   UNL     1       2.161  -4.236   1.519  0.00  0.00    +0.100 C 
ATOM      2  C   UNL     1       2.037  -3.278   2.725  0.00  0.00    +0.121 C 
ATOM      3  N   UNL     1       0.970  -3.870   3.566  0.00  0.00    -0.296 N 
ATOM      4  C   UNL     1       1.210  -5.331   3.493  0.00  0.00    +0.115 C 
ATOM      5  C   UNL     1       1.621  -5.583   2.028  0.00  0.00    -0.004 C 
ATOM      6  C   UNL     1       0.407  -6.010   1.208  0.00  0.00    -0.010 C 
ATOM      7  C   UNL     1      -0.077  -7.378   1.695  0.00  0.00    -0.082 C 
ATOM      8  N   UNL     1       1.004  -8.361   1.554  0.00  0.00    +0.379 N 
ATOM      9  C   UNL     1       2.132  -7.992   2.418  0.00  0.00    -0.082 C 
ATOM     10  C   UNL     1       2.710  -6.649   1.961  0.00  0.00    -0.010 C 
ATOM     11  C   UNL     1      -0.001  -3.225   4.243  0.00  0.00    +0.252 C 
ATOM     12  O   UNL     1      -0.810  -3.857   4.895  0.00  0.00    -0.270 OA
ATOM     13  H   UNL     1       0.664  -9.273   1.819  0.00  0.00    -0.086 HD
ATOM     14  H   UNL     1       1.312  -8.385   0.594  0.00  0.00    -0.086 HD
ENDROOT
BRANCH  11  15
ATOM     15  C   UNL     1      -0.081  -1.756   4.195  0.00  0.00    +0.106 A 
ATOM     16  C   UNL     1      -0.785  -1.008   3.296  0.00  0.00    +0.147 A 
ATOM     17  O   UNL     1      -0.601   0.282   3.590  0.00  0.00    -0.359 OA
ATOM     18  N   UNL     1       0.247   0.393   4.715  0.00  0.00    -0.077 NA
ATOM     19  C   UNL     1       0.576  -0.810   5.110  0.00  0.00    +0.126 A 
ATOM     20  C   UNL     1      -1.624  -1.546   2.167  0.00  0.00    +0.090 C 
BRANCH  19  21
ATOM     21  C   UNL     1       1.448  -1.155   6.260  0.00  0.00    +0.004 A 
ATOM     22  C   UNL     1       1.190  -2.298   7.015  0.00  0.00    +0.010 A 
ATOM     23  C   UNL     1       2.005  -2.614   8.083  0.00  0.00    +0.001 A 
ATOM     24  C   UNL     1       3.075  -1.799   8.405  0.00  0.00    +0.000 A 
ATOM     25  C   UNL     1       3.336  -0.664   7.659  0.00  0.00    +0.001 A 
ATOM     26  C   UNL     1       2.531  -0.341   6.585  0.00  0.00    +0.010 A 
ENDBRANCH  19  21
ENDBRANCH  11  15
BRANCH   1  28
ATOM     27  N   UNL     1       1.640  -4.098  -0.895  0.00  0.00    -0.312 N 
ATOM     28  C   UNL     1       1.328  -3.739   0.366  0.00  0.00    +0.218 C 
ATOM     29  O   UNL     1       0.377  -3.015   0.573  0.00  0.00    -0.275 OA
ATOM     30  H   UNL     1       2.401  -4.677  -1.060  0.00  0.00    +0.149 HD
BRANCH  27  31
ATOM     31  C   UNL     1       0.831  -3.614  -2.016  0.00  0.00    +0.070 C 
ATOM     32  C   UNL     1      -0.376  -4.535  -2.209  0.00  0.00    +0.028 C 
BRANCH  31  33
ATOM     33  C   UNL     1       1.677  -3.609  -3.291  0.00  0.00    +0.022 C 
BRANCH  33  35
ATOM     34  C   UNL     1       3.659  -2.589  -4.420  0.00  0.00    +0.004 C 
ATOM     35  C   UNL     1       2.813  -2.594  -3.145  0.00  0.00    -0.002 C 
ENDBRANCH  33  35
ENDBRANCH  31  33
ENDBRANCH  27  31
ENDBRANCH   1  28
TORSDOF 6
