REMARK  Name = ZINC37360044
REMARK  6 active torsions:
REMARK  status: ('A' for Active; 'I' for Inactive)
REMARK    1  A    between atoms: C_1  and  C_2
REMARK    2  A    between atoms: C_2  and  C_3
REMARK    3  A    between atoms: C_2  and  N_4
REMARK    4  A    between atoms: C_7  and  C_16
REMARK    5  A    between atoms: C_9  and  N_15
REMARK    6  A    between atoms: N_10  and  C_14
REMARK                            x       y       z     vdW  Elec       q    Type
REMARK                         _______ _______ _______ _____ _____    ______ ____
ROOT
ATOM      1  N   UNL     1      -1.178  -0.948   0.762  0.00  0.00    -0.311 N 
ATOM      2  C   UNL     1      -1.550  -1.989  -0.069  0.00  0.00    +0.218 A 
ATOM      3  N   UNL     1      -2.809  -2.412  -0.021  0.00  0.00    -0.214 NA
ATOM      4  C   UNL     1      -3.250  -3.405  -0.783  0.00  0.00    +0.091 A 
ATOM      5  C   UNL     1      -2.340  -4.024  -1.670  0.00  0.00    +0.086 A 
ATOM      6  C   UNL     1      -2.399  -5.055  -2.599  0.00  0.00    +0.126 A 
ATOM      7  N   UNL     1      -1.176  -5.183  -3.141  0.00  0.00    -0.251 N 
ATOM      8  N   UNL     1      -0.304  -4.244  -2.578  0.00  0.00    -0.149 NA
ATOM      9  C   UNL     1      -0.953  -3.524  -1.690  0.00  0.00    +0.188 A 
ATOM     10  N   UNL     1      -0.638  -2.505  -0.867  0.00  0.00    -0.193 NA
ATOM     11  C   UNL     1      -0.809  -6.161  -4.168  0.00  0.00    +0.174 C 
ATOM     12  H   UNL     1      -1.828  -0.548   1.360  0.00  0.00    +0.149 HD
ENDROOT
BRANCH   4  13
ATOM     13  C   UNL     1      -4.658  -3.853  -0.707  0.00  0.00    +0.039 A 
ATOM     14  C   UNL     1      -4.955  -5.186  -0.420  0.00  0.00    +0.013 A 
ATOM     15  C   UNL     1      -6.269  -5.599  -0.349  0.00  0.00    +0.004 A 
ATOM     16  C   UNL     1      -7.295  -4.695  -0.563  0.00  0.00    +0.041 A 
ATOM     17  C   UNL     1      -7.012  -3.371  -0.850  0.00  0.00    +0.159 A 
ATOM     18  C   UNL     1      -5.696  -2.942  -0.917  0.00  0.00    +0.168 A 
ATOM     19  F   UNL     1      -5.418  -1.649  -1.191  0.00  0.00    -0.202 F 
ATOM     20  F   UNL     1      -8.019  -2.495  -1.058  0.00  0.00    -0.202 F 
ENDBRANCH   4  13
BRANCH   1  22
ATOM     21  C   UNL     1       0.222   1.007   1.214  0.00  0.00    +0.027 C 
ATOM     22  C   UNL     1       0.199  -0.447   0.738  0.00  0.00    +0.067 C 
ATOM     23  C   UNL     1       1.069  -1.301   1.662  0.00  0.00    +0.027 C 
ENDBRANCH   1  22
BRANCH   6  24
ATOM     24  N   UNL     1      -3.514  -5.812  -2.909  0.00  0.00    -0.343 N 
ATOM     25  H   UNL     1      -4.381  -5.568  -2.550  0.00  0.00    +0.144 HD
ATOM     26  H   UNL     1      -3.428  -6.587  -3.486  0.00  0.00    +0.144 HD
ENDBRANCH   6  24
TORSDOF 3
