REMARK  Name = ZINC21983620
REMARK  7 active torsions:
REMARK  status: ('A' for Active; 'I' for Inactive)
REMARK    1  A    between atoms: C_1  and  C_2
REMARK    2  A    between atoms: C_17  and  C_31
REMARK    3  A    between atoms: C_23  and  C_30
REMARK    4  A    between atoms: C_24  and  C_25
REMARK    5  A    between atoms: C_24  and  O_29
REMARK    6  A    between atoms: C_25  and  C_27
REMARK    7  A    between atoms: C_27  and  O_28
REMARK                            x       y       z     vdW  Elec       q    Type
REMARK                         _______ _______ _______ _____ _____    ______ ____
ROOT
ATOM      1  C   UNL     1       0.797   0.723   2.144  0.00  0.00    +0.011 C 
ATOM      2  C   UNL     1       0.403  -0.486   1.293  0.00  0.00    +0.026 C 
ATOM      3  C   UNL     1      -0.942  -1.070   1.790  0.00  0.00    +0.011 C 
ATOM      4  C   UNL     1      -1.977  -0.423   0.854  0.00  0.00    +0.003 C 
ATOM      5  C   UNL     1      -3.317  -1.107   0.881  0.00  0.00    +0.004 C 
ATOM      6  C   UNL     1      -3.932  -1.066   2.280  0.00  0.00    +0.009 C 
ATOM      7  C   UNL     1      -5.371  -1.590   2.220  0.00  0.00    +0.032 C 
ATOM      8  C   UNL     1      -5.350  -2.968   1.585  0.00  0.00    -0.056 C 
ATOM      9  C   UNL     1      -5.956  -3.970   2.205  0.00  0.00    +0.051 C 
ATOM     10  C   UNL     1      -5.939  -5.325   1.633  0.00  0.00    +0.179 C 
ATOM     11  O   UNL     1      -6.530  -6.239   2.179  0.00  0.00    -0.288 OA
ATOM     12  C   UNL     1      -5.191  -5.552   0.385  0.00  0.00    +0.047 C 
ATOM     13  C   UNL     1      -4.599  -4.535  -0.222  0.00  0.00    -0.012 C 
ATOM     14  C   UNL     1      -4.632  -3.148   0.275  0.00  0.00    +0.017 C 
ATOM     15  C   UNL     1      -3.226  -2.556   0.397  0.00  0.00    +0.072 C 
ATOM     16  C   UNL     1      -2.569  -2.536  -0.967  0.00  0.00    +0.138 C 
ATOM     17  O   UNL     1      -3.105  -3.034  -1.928  0.00  0.00    -0.297 OA
ATOM     18  C   UNL     1      -1.221  -1.870  -1.080  0.00  0.00    +0.084 C 
ATOM     19  C   UNL     1      -1.283  -0.444  -0.519  0.00  0.00    +0.014 C 
ATOM     20  C   UNL     1       0.179  -0.053  -0.168  0.00  0.00    +0.134 C 
ATOM     21  C   UNL     1      -1.919   0.532  -1.511  0.00  0.00    +0.015 C 
ATOM     22  C   UNL     1      -5.393  -2.337  -0.775  0.00  0.00    +0.021 C 
ENDROOT
BRANCH  20  23
ATOM     23  C   UNL     1       0.363   1.437  -0.301  0.00  0.00    +0.190 C 
ATOM     24  O   UNL     1      -0.559   2.182  -0.072  0.00  0.00    -0.292 OA
BRANCH  23  25
ATOM     25  C   UNL     1       1.697   1.996  -0.724  0.00  0.00    +0.233 C 
BRANCH  25  26
ATOM     26  O   UNL     1       1.620   3.422  -0.776  0.00  0.00    -0.387 OA
ATOM     27  H   UNL     1       2.502   4.011  -1.068  0.00  0.00    +0.210 HD
ENDBRANCH  25  26
ENDBRANCH  23  25
ENDBRANCH  20  23
BRANCH  20  28
ATOM     28  O   UNL     1       1.091  -0.739  -1.029  0.00  0.00    -0.380 OA
ATOM     29  H   UNL     1       1.072  -0.550  -2.112  0.00  0.00    +0.211 HD
ENDBRANCH  20  28
TORSDOF 4
