REMARK  Name = ZINC18823854
REMARK  7 active torsions:
REMARK  status: ('A' for Active; 'I' for Inactive)
REMARK    1  A    between atoms: C_1  and  C_2
REMARK    2  A    between atoms: C_2  and  C_3
REMARK    3  A    between atoms: C_2  and  C_4
REMARK    4  A    between atoms: N_6  and  N_7
REMARK    5  A    between atoms: C_8  and  C_10
REMARK    6  A    between atoms: N_13  and  S_16
REMARK    7  A    between atoms: S_16  and  C_19
REMARK                            x       y       z     vdW  Elec       q    Type
REMARK                         _______ _______ _______ _____ _____    ______ ____
ROOT
ATOM      1  C   UNL     1      -2.482   0.853   0.018  0.00  0.00    +0.079 C 
ATOM      2  C   UNL     1      -2.556  -0.023  -1.235  0.00  0.00    +0.030 C 
ATOM      3  C   UNL     1      -3.857  -0.831  -1.212  0.00  0.00    +0.110 C 
ATOM      4  N   UNL     1      -4.987   0.096  -1.056  0.00  0.00    -0.177 NA
ATOM      5  C   UNL     1      -4.972   1.044   0.066  0.00  0.00    +0.110 C 
ATOM      6  C   UNL     1      -3.658   1.831   0.029  0.00  0.00    +0.030 C 
ENDROOT
BRANCH   1   8
ATOM      7  N   UNL     1      -0.011   0.966   0.007  0.00  0.00    -0.234 N 
ATOM      8  C   UNL     1      -1.187   1.624   0.017  0.00  0.00    +0.232 C 
ATOM      9  O   UNL     1      -1.204   2.837   0.023  0.00  0.00    -0.274 OA
ATOM     10  H   UNL     1       0.002  -0.004   0.002  0.00  0.00    +0.173 HD
BRANCH   7  13
ATOM     11  C   UNL     1       2.369   1.025  -0.015  0.00  0.00    +0.232 C 
ATOM     12  O   UNL     1       2.385  -0.188  -0.022  0.00  0.00    -0.274 OA
ATOM     13  N   UNL     1       1.193   1.683  -0.000  0.00  0.00    -0.234 N 
ATOM     14  H   UNL     1       1.179   2.653   0.005  0.00  0.00    +0.173 HD
BRANCH  11  16
ATOM     15  C   UNL     1       4.840   0.818  -0.040  0.00  0.00    +0.017 C 
ATOM     16  C   UNL     1       3.663   1.796  -0.023  0.00  0.00    +0.070 C 
ATOM     17  C   UNL     1       3.721   2.683  -1.268  0.00  0.00    +0.017 C 
ENDBRANCH  11  16
ENDBRANCH   7  13
ENDBRANCH   1   8
BRANCH   4  18
ATOM     18  S   UNL     1      -6.253   0.071  -2.123  0.00  0.00    +0.061 S 
ATOM     19  O   UNL     1      -6.273  -1.228  -2.699  0.00  0.00    -0.153 OA
ATOM     20  O   UNL     1      -7.371   0.619  -1.439  0.00  0.00    -0.153 OA
BRANCH  18  21
ATOM     21  C   UNL     1      -5.859   1.192  -3.424  0.00  0.00    +0.106 A 
ATOM     22  C   UNL     1      -6.236   2.519  -3.334  0.00  0.00    +0.029 A 
ATOM     23  C   UNL     1      -5.921   3.392  -4.355  0.00  0.00    +0.006 A 
ATOM     24  C   UNL     1      -5.238   2.946  -5.479  0.00  0.00    -0.044 A 
ATOM     25  C   UNL     1      -4.864   1.624  -5.570  0.00  0.00    -0.042 A 
ATOM     26  C   UNL     1      -5.178   0.748  -4.538  0.00  0.00    +0.032 A 
ATOM     27  C   UNL     1      -4.114   1.073  -6.754  0.00  0.00    +0.035 C 
ATOM     28  C   UNL     1      -4.228   2.018  -7.949  0.00  0.00    +0.005 C 
ATOM     29  C   UNL     1      -3.843   3.429  -7.489  0.00  0.00    +0.005 C 
ATOM     30  C   UNL     1      -4.939   3.949  -6.562  0.00  0.00    +0.035 C 
ENDBRANCH  18  21
ENDBRANCH   4  18
TORSDOF 5
