REMARK  Name = ZINC44253760
REMARK  7 active torsions:
REMARK  status: ('A' for Active; 'I' for Inactive)
REMARK    1  A    between atoms: C_6  and  S_7
REMARK    2  A    between atoms: S_7  and  C_8
REMARK    3  A    between atoms: C_11  and  C_17
REMARK    4  A    between atoms: C_13  and  N_14
REMARK    5  A    between atoms: C_17  and  C_19
REMARK    6  A    between atoms: C_17  and  N_23
REMARK    7  A    between atoms: C_19  and  C_20
REMARK                            x       y       z     vdW  Elec       q    Type
REMARK                         _______ _______ _______ _____ _____    ______ ____
ROOT
ATOM      1  C   UNL     1      -1.004  -2.587  -0.151  0.00  0.00    +0.043 A 
ATOM      2  C   UNL     1       0.347  -2.912  -0.140  0.00  0.00    +0.017 A 
ATOM      3  C   UNL     1       0.740  -4.229  -0.267  0.00  0.00    +0.003 A 
ATOM      4  C   UNL     1      -0.209  -5.225  -0.407  0.00  0.00    -0.059 A 
ATOM      5  C   UNL     1      -1.554  -4.906  -0.419  0.00  0.00    +0.035 A 
ATOM      6  C   UNL     1      -1.955  -3.591  -0.286  0.00  0.00    +0.140 A 
ENDROOT
BRANCH   6   7
ATOM      7  N   UNL     1      -3.396  -3.252  -0.293  0.00  0.00    +0.058 N 
ATOM      8  O   UNL     1      -4.223  -4.126  -0.410  0.00  0.00    -0.126 OA
ATOM      9  O   UNL     1      -3.746  -2.100  -0.182  0.00  0.00    -0.126 OA
ENDBRANCH   6   7
BRANCH   1  10
ATOM     10  S   UNL     1      -1.511  -0.907   0.012  0.00  0.00    -0.087 S 
BRANCH  10  16
ATOM     11  C   UNL     1       0.583   0.362  -1.210  0.00  0.00    +0.016 A 
ATOM     12  C   UNL     1       1.768   1.071  -1.218  0.00  0.00    +0.021 A 
ATOM     13  C   UNL     1       2.377   1.417  -0.024  0.00  0.00    +0.041 A 
ATOM     14  C   UNL     1       1.800   1.054   1.181  0.00  0.00    +0.021 A 
ATOM     15  C   UNL     1       0.615   0.345   1.195  0.00  0.00    +0.016 A 
ATOM     16  C   UNL     1       0.002  -0.003  -0.002  0.00  0.00    +0.013 A 
ATOM     17 CL   UNL     1       3.867   2.308  -0.037  0.00  0.00    -0.084 Cl
ENDBRANCH  10  16
ENDBRANCH   1  10
BRANCH   4  18
ATOM     18  C   UNL     1       0.224  -6.662  -0.546  0.00  0.00    -0.035 C 
BRANCH  18  19
ATOM     19  N   UNL     1       1.411  -6.734  -1.409  0.00  0.00    +0.383 N 
ATOM     20  H   UNL     1       1.701  -7.696  -1.502  0.00  0.00    -0.089 HD
ATOM     21  H   UNL     1       1.188  -6.360  -2.319  0.00  0.00    -0.089 HD
ATOM     22  H   UNL     1       2.159  -6.196  -0.998  0.00  0.00    -0.089 HD
ENDBRANCH  18  19
BRANCH  18  23
ATOM     23  C   UNL     1       0.562  -7.229   0.835  0.00  0.00    +0.084 C 
BRANCH  23  24
ATOM     24  C   UNL     1       0.877  -8.697   0.711  0.00  0.00    +0.209 C 
ATOM     25  O   UNL     1       0.835  -9.238  -0.374  0.00  0.00    -0.276 OA
ATOM     26  N   UNL     1       1.205  -9.411   1.807  0.00  0.00    -0.329 N 
ATOM     27  H   UNL     1       1.239  -8.979   2.675  0.00  0.00    +0.145 HD
ATOM     28  H   UNL     1       1.407 -10.356   1.727  0.00  0.00    +0.145 HD
ENDBRANCH  23  24
ENDBRANCH  18  23
ENDBRANCH   4  18
TORSDOF 7
