REMARK  Name = ZINC36900293
REMARK  3 active torsions:
REMARK  status: ('A' for Active; 'I' for Inactive)
REMARK    1  A    between atoms: C_6  and  C_7
REMARK    2  A    between atoms: C_7  and  N_8
REMARK    3  A    between atoms: N_8  and  C_9
REMARK                            x       y       z     vdW  Elec       q    Type
REMARK                         _______ _______ _______ _____ _____    ______ ____
ROOT
ATOM      1  N   UNL     1      -1.539  -1.285  -1.367  0.00  0.00    -0.336 N 
ATOM      2  H   UNL     1      -1.657  -0.352  -1.606  0.00  0.00    +0.147 HD
ENDROOT
BRANCH   1   3
ATOM      3  C   UNL     1      -2.564  -2.205  -1.609  0.00  0.00    +0.056 A 
ATOM      4  C   UNL     1      -3.532  -2.440  -0.640  0.00  0.00    +0.041 A 
ATOM      5  C   UNL     1      -4.544  -3.349  -0.883  0.00  0.00    +0.032 A 
ATOM      6  C   UNL     1      -4.594  -4.025  -2.089  0.00  0.00    +0.020 A 
ATOM      7  C   UNL     1      -3.632  -3.793  -3.056  0.00  0.00    +0.032 A 
ATOM      8  C   UNL     1      -2.620  -2.881  -2.822  0.00  0.00    +0.041 A 
ATOM      9 BR   UNL     1      -1.310  -2.559  -4.147  0.00  0.00    -0.048 Br
ATOM     10 BR   UNL     1      -5.980  -5.268  -2.417  0.00  0.00    -0.050 Br
ATOM     11 BR   UNL     1      -3.463  -1.518   1.009  0.00  0.00    -0.048 Br
ENDBRANCH   1   3
BRANCH   1  12
ATOM     12  C   UNL     1      -0.286  -1.730  -0.752  0.00  0.00    +0.159 C 
BRANCH  12  18
ATOM     13  C   UNL     1       0.685   0.169   0.715  0.00  0.00    +0.045 A 
ATOM     14  C   UNL     1       1.583   1.167   0.547  0.00  0.00    +0.105 A 
ATOM     15  N   UNL     1       2.046   1.096  -0.718  0.00  0.00    -0.284 N 
ATOM     16  H   UNL     1       2.703   1.686  -1.120  0.00  0.00    +0.188 HD
ATOM     17  N   UNL     1       1.412   0.018  -1.349  0.00  0.00    -0.177 NA
ATOM     18  C   UNL     1       0.597  -0.537  -0.489  0.00  0.00    +0.080 A 
ENDBRANCH  12  18
ENDBRANCH   1  12
TORSDOF 3
