REMARK  Name = ZINC01686154
REMARK  3 active torsions:
REMARK  status: ('A' for Active; 'I' for Inactive)
REMARK    1  A    between atoms: N_3  and  C_4
REMARK    2  A    between atoms: N_11  and  N_12
REMARK    3  A    between atoms: C_13  and  C_14
REMARK                            x       y       z     vdW  Elec       q    Type
REMARK                         _______ _______ _______ _____ _____    ______ ____
ROOT
ATOM      1  H   UNL     1       3.803   2.627  -0.030  0.00  0.00    +0.159 HD
ATOM      2  C   UNL     1       2.251   3.944   0.060  0.00  0.00    +0.194 C 
ATOM      3  N   UNL     1       1.232   3.022  -0.033  0.00  0.00    -0.327 N 
ATOM      4  N   UNL     1       1.960   5.288   0.120  0.00  0.00    -0.248 N 
ATOM      5  H   UNL     1       0.317   3.321  -0.147  0.00  0.00    +0.169 HD
ATOM      6  H   UNL     1       1.038   5.586   0.096  0.00  0.00    +0.192 HD
ATOM      7  N   UNL     1       3.531   3.601   0.104  0.00  0.00    -0.370 N 
ATOM      8  H   UNL     1       4.248   4.316   0.272  0.00  0.00    +0.159 HD
ENDROOT
BRANCH   3   9
ATOM      9  C   UNL     1       1.518   1.654   0.037  0.00  0.00    +0.042 A 
ATOM     10  C   UNL     1       2.471   1.187   0.933  0.00  0.00    +0.027 A 
ATOM     11  C   UNL     1       2.751  -0.163   1.000  0.00  0.00    +0.022 A 
ATOM     12  C   UNL     1       2.081  -1.052   0.177  0.00  0.00    +0.041 A 
ATOM     13  C   UNL     1       1.130  -0.589  -0.716  0.00  0.00    +0.022 A 
ATOM     14  C   UNL     1       0.848   0.760  -0.788  0.00  0.00    +0.027 A 
ATOM     15 CL   UNL     1       2.435  -2.749   0.264  0.00  0.00    -0.084 Cl
ENDBRANCH   3   9
BRANCH   4  16
ATOM     16  N   UNL     1       2.997   6.225   0.214  0.00  0.00    -0.179 NA
ATOM     17  C   UNL     1       2.723   7.492   0.271  0.00  0.00    +0.140 C 
BRANCH  17  18
ATOM     18  C   UNL     1       3.814   8.479   0.370  0.00  0.00    -0.005 A 
ATOM     19  C   UNL     1       5.144   8.053   0.410  0.00  0.00    +0.011 A 
ATOM     20  C   UNL     1       6.160   8.981   0.498  0.00  0.00    +0.020 A 
ATOM     21  C   UNL     1       5.864  10.333   0.558  0.00  0.00    +0.041 A 
ATOM     22  C   UNL     1       4.548  10.762   0.524  0.00  0.00    +0.020 A 
ATOM     23  C   UNL     1       3.522   9.844   0.431  0.00  0.00    +0.011 A 
ATOM     24 CL   UNL     1       7.149  11.495   0.676  0.00  0.00    -0.084 Cl
ENDBRANCH  17  18
ENDBRANCH   4  16
TORSDOF 3
