REMARK  Name = ZINC50322930
REMARK  5 active torsions:
REMARK  status: ('A' for Active; 'I' for Inactive)
REMARK    1  A    between atoms: C_1  and  C_2
REMARK    2  A    between atoms: C_2  and  C_3
REMARK    3  A    between atoms: C_3  and  C_4
REMARK    4  A    between atoms: C_5  and  N_19
REMARK    5  A    between atoms: C_6  and  C_10
REMARK                            x       y       z     vdW  Elec       q    Type
REMARK                         _______ _______ _______ _____ _____    ______ ____
ROOT
ATOM      1  C   UNL     1      -1.436  -2.040   0.009  0.00  0.00    +0.057 A 
ATOM      2  C   UNL     1      -1.312  -2.853   1.091  0.00  0.00    +0.078 A 
ATOM      3  C   UNL     1      -1.342  -4.175   0.576  0.00  0.00    +0.168 A 
ATOM      4  N   UNL     1      -1.477  -4.077  -0.733  0.00  0.00    -0.167 NA
ATOM      5  N   UNL     1      -1.539  -2.842  -1.083  0.00  0.00    -0.279 N 
ATOM      6  H   UNL     1      -1.641  -2.528  -1.995  0.00  0.00    +0.189 HD
ENDROOT
BRANCH   3   7
ATOM      7  C   UNL     1      -1.242  -5.422   1.356  0.00  0.00    +0.269 C 
ATOM      8  O   UNL     1      -1.029  -5.375   2.553  0.00  0.00    -0.268 OA
ATOM      9  N   UNL     1      -1.384  -6.614   0.743  0.00  0.00    -0.295 N 
ATOM     10  C   UNL     1      -1.407  -7.837   1.561  0.00  0.00    +0.109 C 
ATOM     11  C   UNL     1      -2.479  -8.891   1.183  0.00  0.00    +0.030 C 
ATOM     12  C   UNL     1      -3.827  -8.302   0.910  0.00  0.00    +0.071 C 
ATOM     13  S   UNL     1      -3.964  -7.840  -0.856  0.00  0.00    -0.159 S 
ATOM     14  C   UNL     1      -2.987  -6.402  -1.037  0.00  0.00    +0.088 C 
ATOM     15  C   UNL     1      -1.514  -6.647  -0.679  0.00  0.00    +0.119 C 
ENDBRANCH   3   7
BRANCH   2  16
ATOM     16  N   UNL     1      -1.182  -2.467   2.434  0.00  0.00    -0.355 N 
ATOM     17  H   UNL     1      -1.174  -1.526   2.669  0.00  0.00    +0.142 HD
ATOM     18  H   UNL     1      -1.100  -3.141   3.126  0.00  0.00    +0.142 HD
ENDBRANCH   2  16
BRANCH   1  19
ATOM     19  C   UNL     1      -1.461  -0.533   0.019  0.00  0.00    +0.056 C 
BRANCH  19  21
ATOM     20  C   UNL     1      -0.053   1.531   0.005  0.00  0.00    +0.004 C 
ATOM     21  C   UNL     1      -0.027   0.001  -0.005  0.00  0.00    +0.003 C 
ENDBRANCH  19  21
ENDBRANCH   1  19
TORSDOF 4
