REMARK  Name = ZINC50674251
REMARK  8 active torsions:
REMARK  status: ('A' for Active; 'I' for Inactive)
REMARK    1  A    between atoms: C_1  and  C_2
REMARK    2  A    between atoms: C_4  and  C_8
REMARK    3  A    between atoms: C_5  and  C_7
REMARK    4  A    between atoms: C_8  and  C_10
REMARK    5  A    between atoms: C_8  and  N_11
REMARK    6  A    between atoms: N_11  and  S_12
REMARK    7  A    between atoms: S_12  and  C_15
REMARK    8  A    between atoms: C_20  and  N_21
REMARK                            x       y       z     vdW  Elec       q    Type
REMARK                         _______ _______ _______ _____ _____    ______ ____
ROOT
ATOM      1  S   UNL     1      -3.367  -4.150  -1.479  0.00  0.00    +0.062 S 
ATOM      2  O   UNL     1      -4.526  -3.608  -2.097  0.00  0.00    -0.153 OA
ATOM      3  O   UNL     1      -2.225  -4.554  -2.222  0.00  0.00    -0.153 OA
ENDROOT
BRANCH   1   4
ATOM      4  C   UNL     1      -3.898  -5.560  -0.565  0.00  0.00    +0.146 A 
ATOM      5  C   UNL     1      -3.242  -6.771  -0.701  0.00  0.00    +0.048 A 
ATOM      6  C   UNL     1      -3.694  -7.856   0.039  0.00  0.00    +0.038 A 
ATOM      7  C   UNL     1      -4.777  -7.696   0.882  0.00  0.00    +0.128 A 
ATOM      8  N   UNL     1      -5.382  -6.529   0.991  0.00  0.00    -0.238 NA
ATOM      9  C   UNL     1      -4.977  -5.469   0.307  0.00  0.00    +0.143 A 
ATOM     10 BR   UNL     1      -2.837  -9.535  -0.107  0.00  0.00    -0.049 Br
BRANCH   9  11
ATOM     11  N   UNL     1      -5.641  -4.257   0.458  0.00  0.00    -0.342 N 
ATOM     12  H   UNL     1      -5.337  -3.474  -0.027  0.00  0.00    +0.144 HD
ATOM     13  H   UNL     1      -6.408  -4.194   1.048  0.00  0.00    +0.144 HD
ENDBRANCH   9  11
ENDBRANCH   1   4
BRANCH   1  14
ATOM     14  N   UNL     1      -2.845  -3.024  -0.383  0.00  0.00    -0.183 NA
ATOM     15  H   UNL     1      -3.310  -2.177  -0.298  0.00  0.00    +0.149 HD
BRANCH  14  16
ATOM     16  C   UNL     1      -1.680  -3.307   0.459  0.00  0.00    +0.107 C 
ATOM     17  C   UNL     1      -2.062  -3.140   1.931  0.00  0.00    +0.031 C 
BRANCH  16  21
ATOM     18  C   UNL     1       0.874   0.794  -1.156  0.00  0.00    +0.086 C 
ATOM     19  C   UNL     1       0.530  -0.559  -0.589  0.00  0.00    +0.103 A 
ATOM     20  C   UNL     1      -0.709  -1.064  -0.454  0.00  0.00    +0.050 A 
ATOM     21  C   UNL     1      -0.568  -2.349   0.117  0.00  0.00    +0.012 A 
ATOM     22  C   UNL     1       0.749  -2.553   0.297  0.00  0.00    +0.107 A 
ATOM     23  O   UNL     1       1.410  -1.468  -0.138  0.00  0.00    -0.465 OA
ATOM     24  C   UNL     1       1.378  -3.792   0.882  0.00  0.00    +0.086 C 
ENDBRANCH  16  21
ENDBRANCH  14  16
ENDBRANCH   1  14
TORSDOF 5
