REMARK  Name = ZINC21504643
REMARK  2 active torsions:
REMARK  status: ('A' for Active; 'I' for Inactive)
REMARK    1  A    between atoms: C_6  and  N_7
REMARK    2  A    between atoms: C_12  and  C_14
REMARK                            x       y       z     vdW  Elec       q    Type
REMARK                         _______ _______ _______ _____ _____    ______ ____
ROOT
ATOM      1  C   UNL     1       3.590   0.627  -2.823  0.00  0.00    +0.024 A 
ATOM      2  C   UNL     1       2.447  -0.053  -2.452  0.00  0.00    +0.025 A 
ATOM      3  C   UNL     1       1.241   0.625  -2.326  0.00  0.00    +0.040 A 
ATOM      4  C   UNL     1       1.180   1.989  -2.568  0.00  0.00    -0.024 A 
ATOM      5  C   UNL     1       2.326   2.670  -2.942  0.00  0.00    +0.028 A 
ATOM      6  C   UNL     1       3.530   1.993  -3.070  0.00  0.00    +0.025 A 
ATOM      7  C   UNL     1      -0.108   2.756  -2.428  0.00  0.00    +0.038 C 
ATOM      8  C   UNL     1      -1.307   1.812  -2.516  0.00  0.00    +0.024 C 
ATOM      9  C   UNL     1      -1.101   0.656  -1.528  0.00  0.00    +0.114 C 
ATOM     10  N   UNL     1       0.092  -0.089  -1.952  0.00  0.00    -0.267 N 
ATOM     11  C   UNL     1       0.084  -1.437  -1.980  0.00  0.00    +0.254 C 
ATOM     12  O   UNL     1       1.036  -2.041  -2.435  0.00  0.00    -0.270 OA
ENDROOT
BRANCH  11  13
ATOM     13  C   UNL     1      -1.080  -2.179  -1.459  0.00  0.00    +0.072 A 
ATOM     14  C   UNL     1      -1.689  -1.782  -0.266  0.00  0.00    +0.017 A 
ATOM     15  C   UNL     1      -2.776  -2.479   0.215  0.00  0.00    +0.021 A 
ATOM     16  C   UNL     1      -3.268  -3.571  -0.481  0.00  0.00    +0.044 A 
ATOM     17  C   UNL     1      -2.672  -3.972  -1.664  0.00  0.00    +0.059 A 
ATOM     18  C   UNL     1      -1.584  -3.279  -2.161  0.00  0.00    +0.137 A 
ATOM     19  F   UNL     1      -1.005  -3.667  -3.319  0.00  0.00    -0.205 F 
ATOM     20 CL   UNL     1      -4.638  -4.442   0.134  0.00  0.00    -0.083 Cl
ENDBRANCH  11  13
BRANCH   6  21
ATOM     21  N   UNL     1       4.686   2.686  -3.448  0.00  0.00    -0.358 N 
ATOM     22  H   UNL     1       4.639   3.767  -3.644  0.00  0.00    +0.142 HD
ATOM     23  H   UNL     1       5.641   2.149  -3.549  0.00  0.00    +0.142 HD
ENDBRANCH   6  21
TORSDOF 2
