REMARK  Name = ZINC05008641
REMARK  7 active torsions:
REMARK  status: ('A' for Active; 'I' for Inactive)
REMARK    1  A    between atoms: C_1  and  C_2
REMARK    2  A    between atoms: C_14  and  O_31
REMARK    3  A    between atoms: C_18  and  C_30
REMARK    4  A    between atoms: C_23  and  C_29
REMARK    5  A    between atoms: C_24  and  C_25
REMARK    6  A    between atoms: C_24  and  O_28
REMARK    7  A    between atoms: C_25  and  C_27
REMARK                            x       y       z     vdW  Elec       q    Type
REMARK                         _______ _______ _______ _____ _____    ______ ____
ROOT
ATOM      1  C   UNL     1      -4.887  -0.975   2.076  0.00  0.00    +0.011 C 
ATOM      2  C   UNL     1      -3.787  -0.513   1.116  0.00  0.00    +0.026 C 
ATOM      3  C   UNL     1      -4.291   0.669   0.264  0.00  0.00    +0.011 C 
ATOM      4  C   UNL     1      -3.021   1.518  -0.011  0.00  0.00    +0.002 C 
ATOM      5  C   UNL     1      -2.368   1.021  -1.288  0.00  0.00    -0.004 C 
ATOM      6  C   UNL     1      -2.515  -0.485  -1.478  0.00  0.00    +0.004 C 
ATOM      7  C   UNL     1      -2.079  -0.818  -2.911  0.00  0.00    +0.004 C 
ATOM      8  C   UNL     1      -0.598  -0.482  -3.077  0.00  0.00    -0.002 C 
ATOM      9  C   UNL     1       0.234  -1.498  -2.300  0.00  0.00    +0.035 C 
ATOM     10  C   UNL     1       1.718  -1.233  -2.562  0.00  0.00    +0.115 C 
ATOM     11  C   UNL     1       2.058   0.159  -2.029  0.00  0.00    +0.032 C 
ATOM     12  C   UNL     1       1.223   1.226  -2.713  0.00  0.00    +0.010 C 
ATOM     13  C   UNL     1      -0.282   0.954  -2.712  0.00  0.00    -0.026 C 
ATOM     14  C   UNL     1      -0.909   1.431  -1.408  0.00  0.00    -0.001 C 
ATOM     15  C   UNL     1      -0.123   0.951  -0.192  0.00  0.00    +0.005 C 
ATOM     16  C   UNL     1      -0.707   1.565   1.074  0.00  0.00    +0.010 C 
ATOM     17  C   UNL     1      -2.183   1.349   1.259  0.00  0.00    +0.007 C 
ATOM     18  C   UNL     1      -2.586   0.032   1.918  0.00  0.00    +0.131 C 
ATOM     19  C   UNL     1      -2.650   2.469   2.231  0.00  0.00    +0.015 C 
ATOM     20  C   UNL     1      -0.864   1.850  -3.843  0.00  0.00    +0.012 C 
ENDROOT
BRANCH  18  21
ATOM     21  C   UNL     1      -1.480  -0.984   1.947  0.00  0.00    +0.162 C 
ATOM     22  O   UNL     1      -1.352  -1.763   1.034  0.00  0.00    -0.295 OA
ATOM     23  C   UNL     1      -0.529  -1.030   3.115  0.00  0.00    +0.089 C 
ENDBRANCH  18  21
BRANCH  18  24
ATOM     24  O   UNL     1      -3.013   0.292   3.268  0.00  0.00    -0.380 OA
ATOM     25  H   UNL     1      -3.286  -0.498   3.754  0.00  0.00    +0.211 HD
ENDBRANCH  18  24
BRANCH  10  26
ATOM     26  O   UNL     1       2.505  -2.212  -1.882  0.00  0.00    -0.392 OA
ATOM     27  H   UNL     1       3.458  -2.092  -1.987  0.00  0.00    +0.210 HD
ENDBRANCH  10  26
TORSDOF 3
