REMARK  Name = ZINC36231888
REMARK  5 active torsions:
REMARK  status: ('A' for Active; 'I' for Inactive)
REMARK    1  A    between atoms: C_1  and  C_2
REMARK    2  A    between atoms: C_2  and  C_19
REMARK    3  A    between atoms: N_4  and  S_8
REMARK    4  A    between atoms: S_8  and  C_11
REMARK    5  A    between atoms: C_15  and  N_17
REMARK                            x       y       z     vdW  Elec       q    Type
REMARK                         _______ _______ _______ _____ _____    ______ ____
ROOT
ATOM      1  S   UNL     1      -3.512   0.543   1.413  0.00  0.00    +0.061 S 
ATOM      2  O   UNL     1      -3.553   1.206   2.669  0.00  0.00    -0.153 OA
ATOM      3  O   UNL     1      -3.697   1.229   0.182  0.00  0.00    -0.153 OA
ENDROOT
BRANCH   1   7
ATOM      4  C   UNL     1      -0.019   1.526   0.010  0.00  0.00    +0.042 C 
ATOM      5  C   UNL     1       0.002  -0.004   0.002  0.00  0.00    +0.078 C 
ATOM      6  C   UNL     1      -1.436  -0.536   0.019  0.00  0.00    +0.144 C 
ATOM      7  N   UNL     1      -2.037  -0.205   1.321  0.00  0.00    -0.172 NA
ATOM      8  C   UNL     1      -1.289  -0.558   2.538  0.00  0.00    +0.137 C 
ATOM      9  C   UNL     1       0.141  -0.025   2.398  0.00  0.00    +0.177 C 
ATOM     10  O   UNL     1       0.693  -0.479   1.160  0.00  0.00    -0.371 OA
ATOM     11  C   UNL     1       0.716  -0.499  -1.258  0.00  0.00    +0.042 C 
ENDBRANCH   1   7
BRANCH   1  12
ATOM     12  C   UNL     1      -4.735  -0.724   1.473  0.00  0.00    +0.107 A 
ATOM     13  C   UNL     1      -5.280  -1.213   0.300  0.00  0.00    +0.031 A 
ATOM     14  C   UNL     1      -6.240  -2.207   0.341  0.00  0.00    +0.042 A 
ATOM     15  C   UNL     1      -6.659  -2.715   1.557  0.00  0.00    +0.144 A 
ATOM     16  C   UNL     1      -6.113  -2.224   2.738  0.00  0.00    +0.062 A 
ATOM     17  C   UNL     1      -5.145  -1.230   2.691  0.00  0.00    +0.054 A 
ATOM     18  F   UNL     1      -7.598  -3.686   1.598  0.00  0.00    -0.204 F 
BRANCH  16  19
ATOM     19  N   UNL     1      -6.534  -2.735   3.970  0.00  0.00    -0.356 N 
ATOM     20  H   UNL     1      -7.207  -3.432   4.002  0.00  0.00    +0.142 HD
ATOM     21  H   UNL     1      -6.152  -2.392   4.793  0.00  0.00    +0.142 HD
ENDBRANCH  16  19
ENDBRANCH   1  12
TORSDOF 3
