REMARK  Name = ZINC50041808
REMARK  4 active torsions:
REMARK  status: ('A' for Active; 'I' for Inactive)
REMARK    1  A    between atoms: C_3  and  C_8
REMARK    2  A    between atoms: C_8  and  C_9
REMARK    3  A    between atoms: C_11  and  C_14
REMARK    4  A    between atoms: C_18  and  N_20
REMARK                            x       y       z     vdW  Elec       q    Type
REMARK                         _______ _______ _______ _____ _____    ______ ____
ROOT
ATOM      1  C   UNL     1       4.117   2.433   1.396  0.00  0.00    +0.232 A 
ATOM      2  N   UNL     1       4.888   1.654   2.100  0.00  0.00    -0.191 NA
ATOM      3  C   UNL     1       5.083   2.181   3.321  0.00  0.00    +0.202 A 
ATOM      4  N   UNL     1       4.428   3.313   3.399  0.00  0.00    -0.056 NA
ATOM      5  O   UNL     1       3.792   3.496   2.142  0.00  0.00    -0.337 OA
ENDROOT
BRANCH   3   6
ATOM      6  C   UNL     1       5.904   1.581   4.403  0.00  0.00    +0.024 A 
ATOM      7  C   UNL     1       6.558   0.368   4.191  0.00  0.00    +0.012 A 
ATOM      8  C   UNL     1       7.321  -0.189   5.198  0.00  0.00    +0.002 A 
ATOM      9  C   UNL     1       7.439   0.451   6.417  0.00  0.00    +0.023 A 
ATOM     10  C   UNL     1       6.790   1.660   6.636  0.00  0.00    +0.025 A 
ATOM     11  C   UNL     1       6.027   2.229   5.628  0.00  0.00    +0.034 A 
BRANCH  10  12
ATOM     12  N   UNL     1       6.912   2.304   7.870  0.00  0.00    -0.358 N 
ATOM     13  H   UNL     1       7.449   1.908   8.573  0.00  0.00    +0.142 HD
ATOM     14  H   UNL     1       6.459   3.148   8.023  0.00  0.00    +0.142 HD
ENDBRANCH  10  12
ENDBRANCH   3   6
BRANCH   1  15
ATOM     15  C   UNL     1       3.672   2.183  -0.022  0.00  0.00    +0.134 C 
BRANCH  15  18
ATOM     16  C   UNL     1      -0.017   1.378   0.010  0.00  0.00    +0.001 A 
ATOM     17  C   UNL     1       1.171   2.086   0.002  0.00  0.00    +0.004 A 
ATOM     18  C   UNL     1       2.378   1.411  -0.013  0.00  0.00    -0.037 A 
ATOM     19  C   UNL     1       2.397   0.029  -0.022  0.00  0.00    +0.019 A 
ATOM     20  C   UNL     1       1.210  -0.679  -0.014  0.00  0.00    +0.018 A 
ATOM     21  C   UNL     1       0.002  -0.004   0.002  0.00  0.00    +0.015 A 
ATOM     22 BR   UNL     1       1.236  -2.570  -0.025  0.00  0.00    -0.050 Br
ENDBRANCH  15  18
ENDBRANCH   1  15
TORSDOF 4
