REMARK  Name = ZINC62533289
REMARK  5 active torsions:
REMARK  status: ('A' for Active; 'I' for Inactive)
REMARK    1  A    between atoms: C_1  and  C_2
REMARK    2  A    between atoms: C_3  and  N_17
REMARK    3  A    between atoms: C_6  and  C_9
REMARK    4  A    between atoms: N_10  and  C_16
REMARK    5  A    between atoms: C_12  and  C_15
REMARK                            x       y       z     vdW  Elec       q    Type
REMARK                         _______ _______ _______ _____ _____    ______ ____
ROOT
ATOM      1  C   UNL     1      -0.018   1.502   0.010  0.00  0.00    +0.047 C 
ATOM      2  C   UNL     1       0.002  -0.004   0.002  0.00  0.00    -0.008 A 
ATOM      3  C   UNL     1      -0.011  -0.694  -1.200  0.00  0.00    +0.073 A 
ATOM      4  C   UNL     1       0.028  -2.087  -1.207  0.00  0.00    +0.163 A 
ATOM      5  C   UNL     1       0.085  -2.795  -0.001  0.00  0.00    +0.078 A 
ATOM      6  C   UNL     1       0.045  -2.097   1.190  0.00  0.00    -0.007 A 
ATOM      7  C   UNL     1       0.023  -0.705   1.189  0.00  0.00    +0.050 A 
ATOM      8 CL   UNL     1       0.021   0.146   2.703  0.00  0.00    -0.083 Cl
ATOM      9  C   UNL     1      -0.031  -2.762   2.542  0.00  0.00    +0.047 C 
ATOM     10  N   UNL     1       0.149  -4.190  -0.105  0.00  0.00    -0.326 N 
ATOM     11  C   UNL     1      -0.518  -4.781  -1.288  0.00  0.00    +0.149 C 
ATOM     12  C   UNL     1       0.123  -4.124  -2.518  0.00  0.00    +0.188 C 
ATOM     13  O   UNL     1       0.005  -2.712  -2.411  0.00  0.00    -0.484 OA
ATOM     14  C   UNL     1      -0.588  -4.610  -3.784  0.00  0.00    +0.053 C 
ATOM     15  C   UNL     1       0.880  -5.073   0.803  0.00  0.00    +0.129 C 
ENDROOT
BRANCH   3  16
ATOM     16  N   UNL     1      -0.065   0.007  -2.411  0.00  0.00    -0.355 N 
ATOM     17  H   UNL     1      -0.093   0.977  -2.409  0.00  0.00    +0.142 HD
ATOM     18  H   UNL     1      -0.074  -0.477  -3.252  0.00  0.00    +0.142 HD
ENDBRANCH   3  16
TORSDOF 1
