REMARK  Name = ZINC13940007
REMARK  7 active torsions:
REMARK  status: ('A' for Active; 'I' for Inactive)
REMARK    1  A    between atoms: C_1  and  C_2
REMARK    2  A    between atoms: C_5  and  C_9
REMARK    3  A    between atoms: C_6  and  C_8
REMARK    4  A    between atoms: C_9  and  C_11
REMARK    5  A    between atoms: C_11  and  C_12
REMARK    6  A    between atoms: C_12  and  O_24
REMARK    7  A    between atoms: C_17  and  C_22
REMARK                            x       y       z     vdW  Elec       q    Type
REMARK                         _______ _______ _______ _____ _____    ______ ____
ROOT
ATOM      1  C   UNL     1      -2.362   0.870  -0.959  0.00  0.00    +0.177 C 
ATOM      2  C   UNL     1      -3.699   1.561  -1.098  0.00  0.00    +0.033 A 
ATOM      3  C   UNL     1      -4.187   2.486  -1.995  0.00  0.00    +0.049 A 
ATOM      4  C   UNL     1      -5.486   2.951  -1.869  0.00  0.00    +0.021 A 
ATOM      5  C   UNL     1      -6.287   2.484  -0.844  0.00  0.00    +0.006 A 
ATOM      6  C   UNL     1      -5.801   1.558   0.056  0.00  0.00    -0.029 A 
ATOM      7  C   UNL     1      -4.495   1.085  -0.064  0.00  0.00    +0.044 A 
ATOM      8  N   UNL     1      -3.784   0.164   0.707  0.00  0.00    -0.282 N 
ATOM      9  C   UNL     1      -2.533  -0.020   0.254  0.00  0.00    +0.254 C 
ATOM     10  O   UNL     1      -1.697  -0.760   0.728  0.00  0.00    -0.272 OA
ATOM     11  C   UNL     1      -6.683   1.056   1.170  0.00  0.00    +0.045 C 
ATOM     12 CL   UNL     1      -3.176   3.068  -3.280  0.00  0.00    -0.083 Cl
ATOM     13  H   UNL     1      -4.152  -0.291   1.480  0.00  0.00    +0.155 HD
ENDROOT
BRANCH   1  14
ATOM     14  O   UNL     1      -2.078   0.086  -2.119  0.00  0.00    -0.374 OA
ATOM     15  H   UNL     1      -1.245  -0.403  -2.069  0.00  0.00    +0.211 HD
ENDBRANCH   1  14
BRANCH   1  16
ATOM     16  C   UNL     1      -1.252   1.895  -0.721  0.00  0.00    +0.129 C 
BRANCH  16  17
ATOM     17  C   UNL     1       0.053   1.176  -0.490  0.00  0.00    +0.167 C 
ATOM     18  O   UNL     1       0.091  -0.035  -0.514  0.00  0.00    -0.292 OA
BRANCH  17  23
ATOM     19  C   UNL     1       4.857   4.182   0.478  0.00  0.00    +0.044 C 
ATOM     20  C   UNL     1       3.597   3.394   0.225  0.00  0.00    -0.050 A 
ATOM     21  C   UNL     1       2.425   4.055  -0.098  0.00  0.00    +0.004 A 
ATOM     22  C   UNL     1       1.270   3.341  -0.338  0.00  0.00    +0.012 A 
ATOM     23  C   UNL     1       1.283   1.946  -0.242  0.00  0.00    +0.020 A 
ATOM     24  C   UNL     1       2.471   1.286   0.085  0.00  0.00    -0.040 A 
ATOM     25  C   UNL     1       3.619   2.014   0.316  0.00  0.00    +0.007 A 
ATOM     26  C   UNL     1       2.497  -0.218   0.185  0.00  0.00    +0.044 C 
ENDBRANCH  17  23
ENDBRANCH  16  17
ENDBRANCH   1  16
TORSDOF 4
