REMARK  Name = ZINC42429693
REMARK  2 active torsions:
REMARK  status: ('A' for Active; 'I' for Inactive)
REMARK    1  A    between atoms: C_6  and  N_7
REMARK    2  A    between atoms: C_14  and  C_16
REMARK                            x       y       z     vdW  Elec       q    Type
REMARK                         _______ _______ _______ _____ _____    ______ ____
ROOT
ATOM      1  N   UNL     1      -1.369  -0.513   0.089  0.00  0.00    -0.296 N 
ATOM      2  C   UNL     1      -1.665  -1.737  -0.392  0.00  0.00    +0.304 C 
ATOM      3  O   UNL     1      -0.795  -2.418  -0.897  0.00  0.00    -0.253 OA
ATOM      4  N   UNL     1      -2.926  -2.205  -0.311  0.00  0.00    -0.262 N 
ATOM      5  C   UNL     1      -4.016  -1.406   0.290  0.00  0.00    +0.179 C 
ATOM      6  S   UNL     1      -5.501  -2.183  -0.486  0.00  0.00    -0.139 S 
ATOM      7  C   UNL     1      -4.785  -3.878  -0.654  0.00  0.00    +0.105 C 
ATOM      8  C   UNL     1      -3.288  -3.519  -0.817  0.00  0.00    +0.201 C 
ATOM      9  H   UNL     1      -2.063   0.031   0.493  0.00  0.00    +0.151 HD
ENDROOT
BRANCH   1  15
ATOM     10  C   UNL     1      -0.019   1.527   0.010  0.00  0.00    +0.003 C 
ATOM     11  C   UNL     1       1.419   2.051  -0.001  0.00  0.00    -0.081 C 
ATOM     12  N   UNL     1       2.130   1.564   1.187  0.00  0.00    +0.379 N 
ATOM     13  C   UNL     1       2.217   0.099   1.149  0.00  0.00    -0.081 C 
ATOM     14  C   UNL     1       0.810  -0.500   1.205  0.00  0.00    +0.003 C 
ATOM     15  C   UNL     1       0.002  -0.004   0.002  0.00  0.00    +0.071 C 
ATOM     16  H   UNL     1       3.061   1.954   1.205  0.00  0.00    -0.086 HD
ATOM     17  H   UNL     1       1.632   1.849   2.017  0.00  0.00    -0.086 HD
ENDBRANCH   1  15
BRANCH   8  18
ATOM     18  C   UNL     1      -2.469  -4.553  -0.089  0.00  0.00    +0.377 C 
ATOM     19  O   UNL     1      -2.108  -4.349   1.058  0.00  0.00    -0.244 OA
ATOM     20  O   UNL     1      -2.168  -5.595  -0.646  0.00  0.00    -0.244 OA
ENDBRANCH   8  18
TORSDOF 2
