REMARK  Name = ZINC03548706
REMARK  6 active torsions:
REMARK  status: ('A' for Active; 'I' for Inactive)
REMARK    1  A    between atoms: C_1  and  C_2
REMARK    2  A    between atoms: C_2  and  C_4
REMARK    3  A    between atoms: C_2  and  N_11
REMARK    4  A    between atoms: C_12  and  C_14
REMARK    5  A    between atoms: C_14  and  S_15
REMARK    6  A    between atoms: S_15  and  C_16
REMARK                            x       y       z     vdW  Elec       q    Type
REMARK                         _______ _______ _______ _____ _____    ______ ____
ROOT
ATOM      1  C   UNL     1       0.008   0.009  -0.177  0.00  0.00    +0.191 A 
ATOM      2  N   UNL     1       1.152  -0.665  -0.186  0.00  0.00    -0.207 NA
ATOM      3  C   UNL     1       2.320  -0.068  -0.020  0.00  0.00    +0.129 A 
ATOM      4  C   UNL     1       2.360   1.341   0.174  0.00  0.00    +0.051 A 
ATOM      5  C   UNL     1       3.526   2.205   0.377  0.00  0.00    -0.025 A 
ATOM      6  C   UNL     1       3.290   3.523   0.536  0.00  0.00    -0.004 A 
ATOM      7  S   UNL     1       1.529   3.694   0.430  0.00  0.00    -0.073 S 
ATOM      8  C   UNL     1       1.109   1.990   0.171  0.00  0.00    +0.115 A 
ATOM      9  N   UNL     1      -0.015   1.323  -0.001  0.00  0.00    -0.214 NA
ATOM     10  C   UNL     1       4.302   4.606   0.757  0.00  0.00    +0.043 C 
ATOM     11  C   UNL     1       5.635   3.951   1.149  0.00  0.00    +0.005 C 
ATOM     12  C   UNL     1       5.927   2.811   0.169  0.00  0.00    +0.005 C 
ATOM     13  C   UNL     1       4.950   1.659   0.407  0.00  0.00    +0.037 C 
ATOM     14  N   UNL     1       3.491  -0.805  -0.035  0.00  0.00    -0.343 N 
ATOM     15  H   UNL     1       3.492  -1.705  -0.396  0.00  0.00    +0.144 HD
ATOM     16  H   UNL     1       4.310  -0.421   0.314  0.00  0.00    +0.144 HD
ENDROOT
BRANCH   1  17
ATOM     17  S   UNL     1      -1.508  -0.860  -0.404  0.00  0.00    -0.077 S 
BRANCH  17  18
ATOM     18  C   UNL     1      -0.879  -2.547  -0.588  0.00  0.00    +0.173 C 
BRANCH  18  20
ATOM     19  N   UNL     1      -1.803  -4.811  -0.961  0.00  0.00    -0.308 N 
ATOM     20  C   UNL     1      -2.033  -3.494  -0.799  0.00  0.00    +0.224 C 
ATOM     21  O   UNL     1      -3.169  -3.069  -0.823  0.00  0.00    -0.275 OA
ATOM     22  H   UNL     1      -0.895  -5.151  -0.941  0.00  0.00    +0.149 HD
BRANCH  19  24
ATOM     23  C   UNL     1      -3.498  -6.147   0.190  0.00  0.00    +0.033 C 
ATOM     24  C   UNL     1      -2.925  -5.731  -1.166  0.00  0.00    +0.100 C 
BRANCH  24  25
ATOM     25  C   UNL     1      -2.443  -6.954  -1.904  0.00  0.00    -0.027 A 
ATOM     26  C   UNL     1      -1.213  -7.505  -1.599  0.00  0.00    +0.008 A 
ATOM     27  C   UNL     1      -0.773  -8.630  -2.271  0.00  0.00    +0.038 A 
ATOM     28  C   UNL     1      -1.560  -9.197  -3.260  0.00  0.00    +0.123 A 
ATOM     29  C   UNL     1      -2.789  -8.639  -3.569  0.00  0.00    +0.038 A 
ATOM     30  C   UNL     1      -3.230  -7.519  -2.891  0.00  0.00    +0.008 A 
ATOM     31  F   UNL     1      -1.128 -10.292  -3.922  0.00  0.00    -0.205 F 
ENDBRANCH  24  25
ENDBRANCH  19  24
ENDBRANCH  18  20
ENDBRANCH  17  18
ENDBRANCH   1  17
TORSDOF 5
