REMARK  Name = ZINC59307628
REMARK  3 active torsions:
REMARK  status: ('A' for Active; 'I' for Inactive)
REMARK    1  A    between atoms: C_14  and  C_17
REMARK    2  A    between atoms: C_17  and  N_18
REMARK    3  A    between atoms: C_25  and  C_27
REMARK                            x       y       z     vdW  Elec       q    Type
REMARK                         _______ _______ _______ _____ _____    ______ ____
ROOT
ATOM      1  C   UNL     1      -0.062   1.328   0.017  0.00  0.00    +0.000 A 
ATOM      2  C   UNL     1       1.118   2.048   0.032  0.00  0.00    +0.000 A 
ATOM      3  C   UNL     1       2.326   1.382   0.015  0.00  0.00    +0.005 A 
ATOM      4  C   UNL     1       2.365  -0.006  -0.013  0.00  0.00    -0.027 A 
ATOM      5  C   UNL     1       1.191  -0.724  -0.018  0.00  0.00    -0.041 A 
ATOM      6  C   UNL     1      -0.024  -0.050  -0.008  0.00  0.00    +0.004 A 
ATOM      7  C   UNL     1       1.155  -2.230  -0.017  0.00  0.00    +0.054 C 
ATOM      8  C   UNL     1       2.482  -2.807  -0.506  0.00  0.00    +0.111 C 
ATOM      9  N   UNL     1       3.568  -2.109   0.202  0.00  0.00    -0.312 N 
ATOM     10  C   UNL     1       3.719  -0.671  -0.045  0.00  0.00    +0.141 C 
ATOM     11  C   UNL     1       4.417  -2.785   1.071  0.00  0.00    +0.099 A 
ATOM     12  C   UNL     1       4.168  -4.120   1.377  0.00  0.00    +0.042 A 
ATOM     13  C   UNL     1       5.021  -4.781   2.243  0.00  0.00    +0.010 A 
ATOM     14  C   UNL     1       6.097  -4.083   2.775  0.00  0.00    -0.014 A 
ATOM     15  C   UNL     1       6.284  -2.760   2.427  0.00  0.00    +0.089 A 
ATOM     16  N   UNL     1       5.457  -2.156   1.595  0.00  0.00    -0.349 N 
ATOM     17  H   UNL     1       5.613  -1.227   1.364  0.00  0.00    +0.167 HD
ENDROOT
BRANCH  14  18
ATOM     18  C   UNL     1       7.051  -4.763   3.723  0.00  0.00    +0.142 C 
BRANCH  18  19
ATOM     19  N   UNL     1       8.143  -5.375   2.961  0.00  0.00    -0.295 N 
ATOM     20  C   UNL     1       9.121  -6.042   3.603  0.00  0.00    +0.303 C 
ATOM     21  O   UNL     1       9.098  -6.137   4.815  0.00  0.00    -0.253 OA
ATOM     22  N   UNL     1      10.126  -6.605   2.903  0.00  0.00    -0.278 N 
ATOM     23  C   UNL     1      10.280  -6.562   1.437  0.00  0.00    +0.110 C 
ATOM     24  C   UNL     1      11.149  -7.798   1.094  0.00  0.00    +0.021 C 
ATOM     25  C   UNL     1      12.129  -7.834   2.296  0.00  0.00    +0.029 C 
ATOM     26  C   UNL     1      11.252  -7.359   3.474  0.00  0.00    +0.114 C 
ATOM     27  H   UNL     1       8.161  -5.299   1.994  0.00  0.00    +0.151 HD
BRANCH  26  28
ATOM     28  C   UNL     1      12.054  -6.467   4.386  0.00  0.00    +0.010 A 
ATOM     29  C   UNL     1      12.649  -6.768   5.567  0.00  0.00    +0.013 A 
ATOM     30  C   UNL     1      13.342  -5.779   6.239  0.00  0.00    +0.008 A 
ATOM     31  C   UNL     1      13.407  -4.538   5.698  0.00  0.00    +0.045 A 
ATOM     32  S   UNL     1      12.475  -4.744   4.189  0.00  0.00    -0.100 S 
ENDBRANCH  26  28
ENDBRANCH  18  19
ENDBRANCH  14  18
TORSDOF 3
