REMARK  Name = ZINC39448963
REMARK  5 active torsions:
REMARK  status: ('A' for Active; 'I' for Inactive)
REMARK    1  A    between atoms: N_6  and  C_7
REMARK    2  A    between atoms: C_17  and  C_19
REMARK    3  A    between atoms: C_19  and  C_20
REMARK    4  A    between atoms: C_20  and  C_21
REMARK    5  A    between atoms: N_26  and  C_29
REMARK                            x       y       z     vdW  Elec       q    Type
REMARK                         _______ _______ _______ _____ _____    ______ ____
ROOT
ATOM      1  C   UNL     1       3.529   1.547  -3.180  0.00  0.00    +0.105 C 
ENDROOT
BRANCH   1   8
ATOM      2  C   UNL     1      -0.018   1.464   0.010  0.00  0.00    -0.059 C 
ATOM      3  C   UNL     1       1.420   1.994  -0.001  0.00  0.00    +0.089 C 
ATOM      4  N   UNL     1       2.126   1.402  -1.148  0.00  0.00    -0.305 N 
ATOM      5  C   UNL     1       2.060  -0.057  -1.325  0.00  0.00    +0.089 C 
ATOM      6  C   UNL     1       0.592  -0.489  -1.252  0.00  0.00    -0.059 C 
ATOM      7  N   UNL     1       0.002  -0.004   0.002  0.00  0.00    +0.384 N 
ATOM      8  C   UNL     1       2.813   2.175  -2.012  0.00  0.00    +0.216 C 
ATOM      9  O   UNL     1       2.856   3.376  -1.850  0.00  0.00    -0.276 OA
ATOM     10  H   UNL     1       0.551  -0.336   0.781  0.00  0.00    -0.081 HD
BRANCH   7  11
ATOM     11  C   UNL     1      -1.371  -0.511   0.123  0.00  0.00    -0.062 C 
ATOM     12  C   UNL     1      -1.352  -2.041   0.115  0.00  0.00    -0.024 C 
ATOM     13  C   UNL     1      -0.516  -2.547   1.292  0.00  0.00    +0.005 C 
ATOM     14  C   UNL     1      -1.129  -2.052   2.603  0.00  0.00    -0.010 C 
ATOM     15  C   UNL     1      -2.559  -2.580   2.730  0.00  0.00    +0.007 C 
ATOM     16  C   UNL     1      -3.396  -2.074   1.553  0.00  0.00    -0.010 C 
ATOM     17  C   UNL     1      -2.783  -2.569   0.241  0.00  0.00    +0.005 C 
ATOM     18  C   UNL     1      -3.414  -0.544   1.561  0.00  0.00    +0.005 C 
ATOM     19  C   UNL     1      -1.984  -0.016   1.435  0.00  0.00    -0.024 C 
ATOM     20  C   UNL     1      -1.147  -0.522   2.612  0.00  0.00    +0.005 C 
ENDBRANCH   7  11
ENDBRANCH   1   8
BRANCH   1  21
ATOM     21  C   UNL     1       4.224   2.637  -3.998  0.00  0.00    +0.105 C 
BRANCH  21  22
ATOM     22  C   UNL     1       4.940   2.008  -5.166  0.00  0.00    +0.216 C 
ATOM     23  O   UNL     1       4.898   0.807  -5.329  0.00  0.00    -0.276 OA
ATOM     24  N   UNL     1       5.627   2.781  -6.030  0.00  0.00    -0.305 N 
ATOM     25  C   UNL     1       5.698   4.239  -5.850  0.00  0.00    +0.089 C 
ATOM     26  C   UNL     1       7.167   4.668  -5.926  0.00  0.00    -0.059 C 
ATOM     27  N   UNL     1       7.752   4.184  -7.183  0.00  0.00    +0.384 N 
ATOM     28  C   UNL     1       7.768   2.716  -7.194  0.00  0.00    -0.059 C 
ATOM     29  C   UNL     1       6.333   2.190  -7.178  0.00  0.00    +0.089 C 
ATOM     30  H   UNL     1       7.203   4.519  -7.960  0.00  0.00    -0.081 HD
BRANCH  27  31
ATOM     31  C   UNL     1       9.127   4.688  -7.306  0.00  0.00    -0.062 C 
ATOM     32  C   UNL     1       9.111   6.217  -7.306  0.00  0.00    -0.024 C 
ATOM     33  C   UNL     1      10.543   6.742  -7.435  0.00  0.00    +0.005 C 
ATOM     34  C   UNL     1      11.155   6.238  -8.743  0.00  0.00    -0.010 C 
ATOM     35  C   UNL     1      10.319   6.740  -9.923  0.00  0.00    +0.007 C 
ATOM     36  C   UNL     1       8.888   6.216  -9.794  0.00  0.00    -0.010 C 
ATOM     37  C   UNL     1       8.276   6.720  -8.485  0.00  0.00    +0.005 C 
ATOM     38  C   UNL     1       8.903   4.686  -9.795  0.00  0.00    +0.005 C 
ATOM     39  C   UNL     1       9.738   4.184  -8.615  0.00  0.00    -0.024 C 
ATOM     40  C   UNL     1      11.170   4.708  -8.744  0.00  0.00    +0.005 C 
ENDBRANCH  27  31
ENDBRANCH  21  22
ENDBRANCH   1  21
TORSDOF 5
