REMARK  Name = ZINC37581789
REMARK  9 active torsions:
REMARK  status: ('A' for Active; 'I' for Inactive)
REMARK    1  A    between atoms: C_1  and  C_2
REMARK    2  A    between atoms: N_4  and  C_5
REMARK    3  A    between atoms: C_5  and  C_6
REMARK    4  A    between atoms: C_6  and  N_7
REMARK    5  A    between atoms: N_7  and  S_8
REMARK    6  A    between atoms: S_8  and  C_11
REMARK    7  A    between atoms: C_16  and  C_17
REMARK    8  A    between atoms: C_18  and  C_19
REMARK    9  A    between atoms: C_19  and  N_20
REMARK                            x       y       z     vdW  Elec       q    Type
REMARK                         _______ _______ _______ _____ _____    ______ ____
ROOT
ATOM      1  C   UNL     1      -4.929  -4.706  -0.893  0.00  0.00    +0.121 A 
ATOM      2  C   UNL     1      -5.449  -5.725  -1.665  0.00  0.00    +0.030 A 
ATOM      3  C   UNL     1      -6.303  -5.435  -2.715  0.00  0.00    +0.002 A 
ATOM      4  C   UNL     1      -6.641  -4.123  -2.997  0.00  0.00    +0.001 A 
ATOM      5  C   UNL     1      -6.128  -3.095  -2.232  0.00  0.00    +0.019 A 
ATOM      6  C   UNL     1      -5.270  -3.382  -1.169  0.00  0.00    +0.051 A 
ENDROOT
BRANCH   1   7
ATOM      7  S   UNL     1      -3.842  -5.078   0.443  0.00  0.00    +0.060 S 
ATOM      8  O   UNL     1      -2.711  -4.231   0.293  0.00  0.00    -0.153 OA
ATOM      9  O   UNL     1      -3.732  -6.494   0.495  0.00  0.00    -0.153 OA
BRANCH   7  10
ATOM     10  N   UNL     1      -4.602  -4.610   1.837  0.00  0.00    -0.188 NA
ATOM     11  H   UNL     1      -4.228  -3.897   2.378  0.00  0.00    +0.148 HD
BRANCH  10  12
ATOM     12  C   UNL     1      -5.840  -5.274   2.255  0.00  0.00    +0.124 C 
BRANCH  12  13
ATOM     13  C   UNL     1      -6.124  -4.946   3.722  0.00  0.00    +0.121 C 
BRANCH  13  17
ATOM     14  C   UNL     1      -9.085  -6.146   5.831  0.00  0.00    +0.109 C 
ATOM     15  C   UNL     1      -7.813  -5.463   5.401  0.00  0.00    +0.210 C 
ATOM     16  O   UNL     1      -7.194  -4.781   6.191  0.00  0.00    -0.276 OA
ATOM     17  N   UNL     1      -7.362  -5.610   4.140  0.00  0.00    -0.314 N 
ATOM     18  H   UNL     1      -7.856  -6.155   3.508  0.00  0.00    +0.149 HD
ENDBRANCH  13  17
ENDBRANCH  12  13
ENDBRANCH  10  12
ENDBRANCH   7  10
ENDBRANCH   1   7
BRANCH   6  19
ATOM     19  C   UNL     1      -4.739  -2.321  -0.368  0.00  0.00    -0.066 C 
ATOM     20  C   UNL     1      -4.303  -1.450   0.289  0.00  0.00    -0.117 C 
BRANCH  20  21
ATOM     21  C   UNL     1      -3.756  -0.360   1.112  0.00  0.00    +0.005 C 
BRANCH  21  22
ATOM     22  N   UNL     1      -4.265   0.928   0.620  0.00  0.00    +0.385 N 
ATOM     23  H   UNL     1      -3.982   1.056  -0.340  0.00  0.00    -0.089 HD
ATOM     24  H   UNL     1      -5.272   0.935   0.677  0.00  0.00    -0.089 HD
ATOM     25  H   UNL     1      -3.890   1.675   1.184  0.00  0.00    -0.089 HD
ENDBRANCH  21  22
ENDBRANCH  20  21
ENDBRANCH   6  19
TORSDOF 8
