REMARK  Name = ZINC40531308
REMARK  6 active torsions:
REMARK  status: ('A' for Active; 'I' for Inactive)
REMARK    1  A    between atoms: C_1  and  S_2
REMARK    2  A    between atoms: S_2  and  C_5
REMARK    3  A    between atoms: C_5  and  C_6
REMARK    4  A    between atoms: C_6  and  CA_7
REMARK    5  A    between atoms: CA_7  and  C_9
REMARK    6  A    between atoms: CA_7  and  N_12
REMARK                            x       y       z     vdW  Elec       q    Type
REMARK                         _______ _______ _______ _____ _____    ______ ____
ROOT
ATOM      1  N   UNL     1       0.925  -1.766  -4.146  0.00  0.00    -0.286 N 
ATOM      2  C   UNL     1       1.528  -1.468  -5.314  0.00  0.00    +0.303 C 
ATOM      3  O   UNL     1       2.733  -1.580  -5.423  0.00  0.00    -0.253 OA
ATOM      4  N   UNL     1       0.793  -1.048  -6.363  0.00  0.00    -0.286 N 
ATOM      5  C   UNL     1      -0.638  -0.921  -6.200  0.00  0.00    +0.109 C 
ATOM      6  C   UNL     1      -1.323  -2.263  -6.558  0.00  0.00    +0.019 C 
ATOM      7  C   UNL     1      -1.260  -2.498  -8.008  0.00  0.00    +0.002 C 
ATOM      8  C   UNL     1       0.155  -2.637  -8.562  0.00  0.00    +0.002 C 
ATOM      9  C   UNL     1       0.714  -1.267  -8.855  0.00  0.00    +0.019 C 
ATOM     10  C   UNL     1       1.483  -0.731  -7.629  0.00  0.00    +0.109 C 
ATOM     11  H   UNL     1      -0.037  -1.677  -4.060  0.00  0.00    +0.151 HD
ENDROOT
BRANCH   1  12
ATOM     12  CA  UNL     1       1.724  -2.223  -3.006  0.00  0.00    +0.189 C 
BRANCH  12  13
ATOM     13  C   UNL     1       1.939  -3.711  -3.107  0.00  0.00    +0.376 C 
ATOM     14  O   UNL     1       1.102  -4.412  -3.649  0.00  0.00    -0.244 OA
ATOM     15  OXT UNL     1       2.951  -4.213  -2.648  0.00  0.00    -0.244 OA
ENDBRANCH  12  13
BRANCH  12  16
ATOM     16  C   UNL     1       0.986  -1.902  -1.705  0.00  0.00    +0.056 C 
BRANCH  16  17
ATOM     17  C   UNL     1       0.877  -0.385  -1.541  0.00  0.00    +0.168 C 
BRANCH  17  19
ATOM     18  C   UNL     1      -0.022   1.810   0.012  0.00  0.00    +0.194 C 
ATOM     19  S   UNL     1       0.002  -0.004   0.002  0.00  0.00    -0.034 S 
ATOM     20  O   UNL     1       0.798  -0.449   1.092  0.00  0.00    -0.175 OA
ATOM     21  O   UNL     1      -1.335  -0.471  -0.113  0.00  0.00    -0.175 OA
ENDBRANCH  17  19
ENDBRANCH  16  17
ENDBRANCH  12  16
ENDBRANCH   1  12
TORSDOF 5
