REMARK  Name = ZINC39747246
REMARK  6 active torsions:
REMARK  status: ('A' for Active; 'I' for Inactive)
REMARK    1  A    between atoms: C_1  and  C_2
REMARK    2  A    between atoms: C_4  and  O_9
REMARK    3  A    between atoms: O_9  and  C_10
REMARK    4  A    between atoms: C_12  and  C_23
REMARK    5  A    between atoms: C_24  and  C_25
REMARK    6  A    between atoms: C_24  and  C_27
REMARK                            x       y       z     vdW  Elec       q    Type
REMARK                         _______ _______ _______ _____ _____    ______ ____
ROOT
ATOM      1  C   UNL     1       0.047  -4.176  -2.317  0.00  0.00    +0.308 C 
ATOM      2  C   UNL     1      -0.208  -4.755  -3.710  0.00  0.00    +0.163 C 
ATOM      3  C   UNL     1       1.027  -4.570  -4.556  0.00  0.00    +0.237 C 
ATOM      4  O   UNL     1       0.924  -4.326  -5.739  0.00  0.00    -0.274 OA
ATOM      5  N   UNL     1       2.244  -4.676  -3.989  0.00  0.00    -0.231 N 
ATOM      6  C   UNL     1       3.365  -4.656  -4.780  0.00  0.00    +0.085 C 
ATOM      7  C   UNL     1       4.582  -4.887  -4.252  0.00  0.00    +0.016 C 
ATOM      8  C   UNL     1       4.725  -5.153  -2.877  0.00  0.00    +0.005 C 
ATOM      9  C   UNL     1       3.637  -5.117  -2.067  0.00  0.00    +0.044 C 
ATOM     10  C   UNL     1       2.368  -4.812  -2.621  0.00  0.00    +0.130 C 
ATOM     11  N   UNL     1       1.349  -4.620  -1.824  0.00  0.00    -0.225 NA
ENDROOT
BRANCH   2  12
ATOM     12  C   UNL     1      -0.526  -6.223  -3.595  0.00  0.00    +0.010 C 
ATOM     13  C   UNL     1      -1.696  -6.687  -4.028  0.00  0.00    +0.068 C 
BRANCH  13  14
ATOM     14  C   UNL     1      -2.014  -8.155  -3.913  0.00  0.00    +0.216 C 
ATOM     15  N   UNL     1      -3.251  -8.344  -3.146  0.00  0.00    -0.359 N 
ATOM     16  C   UNL     1      -4.106  -8.942  -3.924  0.00  0.00    +0.060 A 
ATOM     17  C   UNL     1      -5.492  -9.390  -3.728  0.00  0.00    +0.027 A 
ATOM     18  C   UNL     1      -6.144  -9.996  -4.741  0.00  0.00    +0.002 A 
ATOM     19  C   UNL     1      -5.553 -10.222  -5.996  0.00  0.00    +0.002 A 
ATOM     20  C   UNL     1      -4.288  -9.851  -6.281  0.00  0.00    +0.027 A 
ATOM     21  C   UNL     1      -3.480  -9.182  -5.253  0.00  0.00    +0.060 A 
ATOM     22  N   UNL     1      -2.262  -8.723  -5.244  0.00  0.00    -0.359 N 
ATOM     23  H   UNL     1      -3.404  -8.073  -2.227  0.00  0.00    +0.162 HD
ATOM     24  H   UNL     1      -1.633  -8.751  -5.982  0.00  0.00    +0.162 HD
ENDBRANCH  13  14
BRANCH  13  25
ATOM     25  C   UNL     1      -2.652  -5.790  -4.604  0.00  0.00    +0.098 C 
ATOM     26  N   UNL     1      -3.411  -5.078  -5.061  0.00  0.00    -0.191 NA
ENDBRANCH  13  25
ENDBRANCH   2  12
BRANCH   1  27
ATOM     27  O   UNL     1       0.028  -2.749  -2.386  0.00  0.00    -0.466 OA
BRANCH  27  31
ATOM     28  C   UNL     1      -0.018   1.503   0.010  0.00  0.00    +0.045 C 
ATOM     29  C   UNL     1       0.002  -0.004   0.002  0.00  0.00    -0.029 A 
ATOM     30  C   UNL     1       0.006  -0.688  -1.199  0.00  0.00    +0.050 A 
ATOM     31  C   UNL     1       0.025  -2.075  -1.206  0.00  0.00    +0.124 A 
ATOM     32  C   UNL     1       0.040  -2.773  -0.007  0.00  0.00    +0.047 A 
ATOM     33  C   UNL     1       0.036  -2.086   1.192  0.00  0.00    +0.024 A 
ATOM     34  C   UNL     1       0.023  -0.702   1.196  0.00  0.00    +0.044 A 
ATOM     35 CL   UNL     1       0.025   0.160   2.704  0.00  0.00    -0.083 Cl
ENDBRANCH  27  31
ENDBRANCH   1  27
TORSDOF 5
