REMARK  Name = ZINC20422581
REMARK  7 active torsions:
REMARK  status: ('A' for Active; 'I' for Inactive)
REMARK    1  A    between atoms: C_1  and  C_2
REMARK    2  A    between atoms: C_2  and  C_4
REMARK    3  A    between atoms: C_2  and  N_11
REMARK    4  A    between atoms: N_9  and  C_10
REMARK    5  A    between atoms: N_11  and  C_12
REMARK    6  A    between atoms: N_11  and  C_13
REMARK    7  A    between atoms: C_16  and  N_19
REMARK                            x       y       z     vdW  Elec       q    Type
REMARK                         _______ _______ _______ _____ _____    ______ ____
ROOT
ATOM      1  C   UNL     1      -0.001   1.514   0.005  0.00  0.00    +0.038 C 
ATOM      2  C   UNL     1       0.006  -0.016  -0.007  0.00  0.00    +0.156 C 
ENDROOT
BRANCH   2   3
ATOM      3  C   UNL     1       0.698  -0.505  -1.254  0.00  0.00    +0.241 C 
ATOM      4  O   UNL     1       0.098  -1.199  -2.047  0.00  0.00    -0.273 OA
ATOM      5  N   UNL     1       1.983  -0.172  -1.486  0.00  0.00    -0.239 N 
ATOM      6  C   UNL     1       2.601  -0.609  -2.601  0.00  0.00    +0.306 C 
ATOM      7  O   UNL     1       2.000  -1.304  -3.397  0.00  0.00    -0.252 OA
ATOM      8  N   UNL     1       3.886  -0.276  -2.834  0.00  0.00    -0.302 N 
ATOM      9  C   UNL     1       4.559  -0.751  -4.045  0.00  0.00    +0.129 C 
ATOM     10  H   UNL     1       2.463   0.383  -0.852  0.00  0.00    +0.159 HD
ATOM     11  H   UNL     1       4.366   0.279  -2.199  0.00  0.00    +0.150 HD
ENDBRANCH   2   3
BRANCH   2  12
ATOM     12  N   UNL     1      -1.372  -0.511   0.012  0.00  0.00    -0.322 N 
ATOM     13  C   UNL     1      -2.326  -0.064  -1.006  0.00  0.00    +0.130 C 
BRANCH  12  14
ATOM     14  C   UNL     1      -1.779  -1.411   1.005  0.00  0.00    +0.030 A 
ATOM     15  C   UNL     1      -3.046  -1.976   0.953  0.00  0.00    +0.025 A 
ATOM     16  C   UNL     1      -3.447  -2.864   1.931  0.00  0.00    +0.024 A 
ATOM     17  C   UNL     1      -2.583  -3.191   2.968  0.00  0.00    +0.025 A 
ATOM     18  C   UNL     1      -1.316  -2.627   3.020  0.00  0.00    +0.024 A 
ATOM     19  C   UNL     1      -0.913  -1.743   2.038  0.00  0.00    +0.025 A 
BRANCH  17  20
ATOM     20  N   UNL     1      -2.990  -4.091   3.961  0.00  0.00    -0.358 N 
ATOM     21  H   UNL     1      -3.876  -4.485   3.925  0.00  0.00    +0.142 HD
ATOM     22  H   UNL     1      -2.387  -4.320   4.685  0.00  0.00    +0.142 HD
ENDBRANCH  17  20
ENDBRANCH  12  14
ENDBRANCH   2  12
TORSDOF 4
