REMARK  Name = ZINC15668950
REMARK  2 active torsions:
REMARK  status: ('A' for Active; 'I' for Inactive)
REMARK    1  A    between atoms: C_3  and  C_6
REMARK    2  A    between atoms: C_6  and  N_7
REMARK                            x       y       z     vdW  Elec       q    Type
REMARK                         _______ _______ _______ _____ _____    ______ ____
ROOT
ATOM      1  N   UNL     1       4.234   2.004   1.353  0.00  0.00    -0.308 N 
ATOM      2  C   UNL     1       5.525   2.465   1.597  0.00  0.00    +0.237 A 
ATOM      3  N   UNL     1       6.057   2.641   2.789  0.00  0.00    -0.125 NA
ATOM      4  N   UNL     1       7.360   3.114   2.590  0.00  0.00    -0.158 N 
ATOM      5  C   UNL     1       8.367   3.467   3.433  0.00  0.00    +0.279 A 
ATOM      6  O   UNL     1       8.194   3.392   4.773  0.00  0.00    -0.265 OA
ATOM      7  C   UNL     1       9.560   3.901   2.911  0.00  0.00    +0.040 A 
ATOM      8  C   UNL     1       9.711   3.967   1.533  0.00  0.00    +0.054 A 
ATOM      9  N   UNL     1       8.707   3.620   0.743  0.00  0.00    -0.215 NA
ATOM     10  C   UNL     1       7.542   3.196   1.238  0.00  0.00    +0.258 A 
ATOM     11  N   UNL     1       6.414   2.792   0.662  0.00  0.00    -0.176 NA
ATOM     12  C   UNL     1      10.995   4.417   0.884  0.00  0.00    +0.056 C 
ATOM     13  C   UNL     1      11.864   5.174   1.887  0.00  0.00    +0.006 C 
ATOM     14  C   UNL     1      12.005   4.320   3.152  0.00  0.00    +0.005 C 
ATOM     15  C   UNL     1      10.655   4.291   3.867  0.00  0.00    +0.042 C 
ATOM     16  H   UNL     1       3.648   1.787   2.095  0.00  0.00    +0.149 HD
ENDROOT
BRANCH   1  17
ATOM     17  C   UNL     1       3.761   1.845  -0.024  0.00  0.00    +0.147 C 
BRANCH  17  20
ATOM     18  C   UNL     1      -0.016   1.351   0.009  0.00  0.00    +0.008 A 
ATOM     19  C   UNL     1       1.183   2.038   0.002  0.00  0.00    +0.013 A 
ATOM     20  C   UNL     1       2.343   1.336  -0.013  0.00  0.00    +0.007 A 
ATOM     21  S   UNL     1       1.754  -0.349  -0.017  0.00  0.00    -0.100 S 
ATOM     22  C   UNL     1       0.002  -0.004   0.002  0.00  0.00    +0.045 A 
ENDBRANCH  17  20
ENDBRANCH   1  17
TORSDOF 2
