REMARK  Name = ZINC15083203
REMARK  8 active torsions:
REMARK  status: ('A' for Active; 'I' for Inactive)
REMARK    1  A    between atoms: C_1  and  C_2
REMARK    2  A    between atoms: C_2  and  O_3
REMARK    3  A    between atoms: O_3  and  C_4
REMARK    4  A    between atoms: C_4  and  C_6
REMARK    5  A    between atoms: C_8  and  C_21
REMARK    6  A    between atoms: C_15  and  O_16
REMARK    7  A    between atoms: C_18  and  C_19
REMARK    8  A    between atoms: C_18  and  O_20
REMARK                            x       y       z     vdW  Elec       q    Type
REMARK                         _______ _______ _______ _____ _____    ______ ____
ROOT
ATOM      1  C   UNL     1       2.228   1.292   1.093  0.00  0.00    +0.141 C 
ATOM      2  C   UNL     1       2.430  -0.177   0.702  0.00  0.00    +0.072 C 
ATOM      3  C   UNL     1       1.093  -0.752   0.307  0.00  0.00    +0.044 A 
ATOM      4  C   UNL     1       0.002  -0.004   0.002  0.00  0.00    +0.046 A 
ATOM      5  N   UNL     1      -1.004  -0.843  -0.295  0.00  0.00    -0.278 N 
ATOM      6  H   UNL     1      -1.933  -0.579  -0.557  0.00  0.00    +0.189 HD
ATOM      7  N   UNL     1      -0.523  -2.155  -0.173  0.00  0.00    -0.136 NA
ATOM      8  C   UNL     1       0.739  -2.098   0.190  0.00  0.00    +0.235 A 
ATOM      9  C   UNL     1      -0.018   1.504   0.010  0.00  0.00    +0.090 C 
ATOM     10  C   UNL     1       1.430   2.008  -0.001  0.00  0.00    +0.082 C 
ATOM     11  C   UNL     1       2.060   1.718  -1.365  0.00  0.00    +0.042 C 
ENDROOT
BRANCH   2  12
ATOM     12  C   UNL     1       2.987  -0.943   1.874  0.00  0.00    -0.039 A 
ATOM     13  C   UNL     1       2.287  -0.989   3.065  0.00  0.00    +0.004 A 
ATOM     14  C   UNL     1       2.795  -1.696   4.139  0.00  0.00    +0.000 A 
ATOM     15  C   UNL     1       4.008  -2.349   4.024  0.00  0.00    +0.000 A 
ATOM     16  C   UNL     1       4.710  -2.299   2.834  0.00  0.00    +0.000 A 
ATOM     17  C   UNL     1       4.200  -1.597   1.759  0.00  0.00    +0.004 A 
ENDBRANCH   2  12
BRANCH   1  18
ATOM     18  C   UNL     1       3.571   1.959   1.252  0.00  0.00    +0.314 C 
ATOM     19  O   UNL     1       3.860   2.908   0.562  0.00  0.00    -0.250 OA
BRANCH  18  20
ATOM     20  O   UNL     1       4.445   1.498   2.161  0.00  0.00    -0.465 OA
BRANCH  20  22
ATOM     21  C   UNL     1       6.576   1.526   3.339  0.00  0.00    +0.048 C 
ATOM     22  C   UNL     1       5.718   2.189   2.259  0.00  0.00    +0.229 C 
ENDBRANCH  20  22
ENDBRANCH  18  20
ENDBRANCH   1  18
BRANCH   8  23
ATOM     23  O   UNL     1       1.556  -3.162   0.410  0.00  0.00    -0.491 OA
ATOM     24  H   UNL     1       1.049  -4.010   0.255  0.00  0.00    +0.294 HD
ENDBRANCH   8  23
BRANCH  10  25
ATOM     25  O   UNL     1       1.447   3.416   0.241  0.00  0.00    -0.388 OA
ATOM     26  H   UNL     1       0.960   3.933  -0.414  0.00  0.00    +0.210 HD
ENDBRANCH  10  25
TORSDOF 6
