REMARK  Name = ZINC41716635
REMARK  5 active torsions:
REMARK  status: ('A' for Active; 'I' for Inactive)
REMARK    1  A    between atoms: C_1  and  C_2
REMARK    2  A    between atoms: N_6  and  C_7
REMARK    3  A    between atoms: C_8  and  C_14
REMARK    4  A    between atoms: C_12  and  C_13
REMARK    5  A    between atoms: C_18  and  O_20
REMARK                            x       y       z     vdW  Elec       q    Type
REMARK                         _______ _______ _______ _____ _____    ______ ____
ROOT
ATOM      1  C   UNL     1      -0.018   1.503   0.010  0.00  0.00    +0.064 C 
ATOM      2  C   UNL     1       0.002  -0.004   0.002  0.00  0.00    +0.021 A 
ATOM      3  C   UNL     1       0.008  -0.790  -1.098  0.00  0.00    +0.029 A 
ATOM      4  C   UNL     1       0.029  -2.121  -0.658  0.00  0.00    +0.002 A 
ATOM      5  C   UNL     1       0.036  -2.107   0.695  0.00  0.00    +0.030 A 
ATOM      6  N   UNL     1       0.024  -0.811   1.105  0.00  0.00    -0.314 N 
ATOM      7  C   UNL     1       0.061  -3.348   1.552  0.00  0.00    +0.054 C 
ATOM      8  C   UNL     1       0.490  -4.532   0.678  0.00  0.00    +0.009 C 
ATOM      9  C   UNL     1      -0.354  -4.557  -0.599  0.00  0.00    +0.036 C 
ATOM     10  C   UNL     1       0.039  -3.376  -1.495  0.00  0.00    +0.146 C 
ENDROOT
BRANCH   6  11
ATOM     11  C   UNL     1       0.029  -0.372   2.444  0.00  0.00    +0.090 A 
ATOM     12  C   UNL     1       1.128  -0.101   3.192  0.00  0.00    +0.057 A 
ATOM     13  N   UNL     1       0.705   0.290   4.415  0.00  0.00    -0.280 N 
ATOM     14  H   UNL     1       1.272   0.548   5.159  0.00  0.00    +0.189 HD
ATOM     15  N   UNL     1      -0.695   0.260   4.420  0.00  0.00    -0.177 NA
ATOM     16  C   UNL     1      -1.102  -0.131   3.239  0.00  0.00    +0.084 A 
ATOM     17  C   UNL     1      -2.536  -0.298   2.809  0.00  0.00    +0.070 C 
ATOM     18  C   UNL     1       2.562  -0.217   2.742  0.00  0.00    +0.067 C 
ENDBRANCH   6  11
BRANCH  10  19
ATOM     19  O   UNL     1      -0.900  -3.249  -2.564  0.00  0.00    -0.387 OA
ATOM     20  H   UNL     1      -0.944  -4.022  -3.143  0.00  0.00    +0.210 HD
ENDBRANCH  10  19
TORSDOF 2
