REMARK  Name = ZINC20284062
REMARK  11 active torsions:
REMARK  status: ('A' for Active; 'I' for Inactive)
REMARK    1  A    between atoms: C_1  and  C_2
REMARK    2  A    between atoms: C_2  and  C_3
REMARK    3  A    between atoms: C_3  and  C_5
REMARK    4  A    between atoms: C_3  and  N_6
REMARK    5  A    between atoms: N_9  and  C_12
REMARK    6  A    between atoms: C_12  and  C_13
REMARK    7  A    between atoms: C_14  and  C_27
REMARK    8  A    between atoms: C_15  and  C_21
REMARK    9  A    between atoms: C_27  and  O_29
REMARK   10  A    between atoms: O_29  and  C_30
REMARK   11  A    between atoms: C_30  and  C_31
REMARK                            x       y       z     vdW  Elec       q    Type
REMARK                         _______ _______ _______ _____ _____    ______ ____
ROOT
ATOM      1  C   UNL     1       2.100   0.719   0.493  0.00  0.00    +0.038 C 
ATOM      2  C   UNL     1       0.978   1.442   0.288  0.00  0.00    +0.079 C 
ATOM      3  C   UNL     1       1.074   2.948   0.432  0.00  0.00    +0.144 C 
ATOM      4  N   UNL     1       2.393   3.502   0.781  0.00  0.00    -0.288 N 
ATOM      5  C   UNL     1       3.423   2.650   0.949  0.00  0.00    +0.304 C 
ATOM      6  O   UNL     1       4.516   3.097   1.237  0.00  0.00    -0.252 OA
ATOM      7  N   UNL     1       3.282   1.325   0.809  0.00  0.00    -0.271 N 
ATOM      8  H   UNL     1       2.519   4.588   0.898  0.00  0.00    +0.151 HD
ATOM      9  H   UNL     1       4.187   0.720   0.963  0.00  0.00    +0.156 HD
ENDROOT
BRANCH   3  10
ATOM     10  C   UNL     1       0.640   3.568  -0.871  0.00  0.00    -0.023 A 
ATOM     11  C   UNL     1       1.522   3.634  -1.933  0.00  0.00    +0.006 A 
ATOM     12  C   UNL     1       1.123   4.199  -3.129  0.00  0.00    +0.000 A 
ATOM     13  C   UNL     1      -0.157   4.705  -3.261  0.00  0.00    +0.000 A 
ATOM     14  C   UNL     1      -1.038   4.644  -2.198  0.00  0.00    +0.000 A 
ATOM     15  C   UNL     1      -0.640   4.075  -1.002  0.00  0.00    +0.006 A 
ENDBRANCH   3  10
BRANCH   2  16
ATOM     16  C   UNL     1      -0.246   0.816  -0.044  0.00  0.00    +0.339 C 
ATOM     17  O   UNL     1      -0.637   0.817  -1.196  0.00  0.00    -0.245 OA
BRANCH  16  18
ATOM     18  O   UNL     1      -0.982   0.222   0.918  0.00  0.00    -0.462 OA
BRANCH  18  19
ATOM     19  C   UNL     1      -2.210  -0.386   0.513  0.00  0.00    +0.229 C 
ATOM     20  C   UNL     1      -2.901  -1.003   1.731  0.00  0.00    +0.048 C 
ENDBRANCH  18  19
ENDBRANCH  16  18
ENDBRANCH   2  16
BRANCH   1  21
ATOM     21  C   UNL     1       2.048  -0.782   0.365  0.00  0.00    +0.135 C 
BRANCH  21  25
ATOM     22  N   UNL     1       3.482  -2.588  -3.174  0.00  0.00    +0.383 N 
ATOM     23  C   UNL     1       4.019  -3.064  -1.891  0.00  0.00    -0.063 C 
ATOM     24  C   UNL     1       3.064  -2.668  -0.763  0.00  0.00    +0.066 C 
ATOM     25  N   UNL     1       2.900  -1.208  -0.753  0.00  0.00    -0.300 NA
ATOM     26  C   UNL     1       2.363  -0.733  -2.035  0.00  0.00    +0.066 C 
ATOM     27  C   UNL     1       3.318  -1.128  -3.164  0.00  0.00    -0.063 C 
ATOM     28  H   UNL     1       2.490  -3.041  -3.315  0.00  0.00    -0.081 HD
BRANCH  22  29
ATOM     29  C   UNL     1       4.335  -3.014  -4.292  0.00  0.00    -0.072 C 
ATOM     30  C   UNL     1       4.367  -4.543  -4.355  0.00  0.00    -0.013 C 
BRANCH  29  32
ATOM     31  C   UNL     1       4.698  -2.843  -6.758  0.00  0.00    +0.002 C 
ATOM     32  C   UNL     1       3.770  -2.462  -5.603  0.00  0.00    -0.019 C 
ENDBRANCH  29  32
ENDBRANCH  22  29
ENDBRANCH  21  25
ENDBRANCH   1  21
TORSDOF 8
