REMARK  Name = ZINC00372703
REMARK  7 active torsions:
REMARK  status: ('A' for Active; 'I' for Inactive)
REMARK    1  A    between atoms: C_1  and  C_2
REMARK    2  A    between atoms: C_2  and  N_3
REMARK    3  A    between atoms: C_4  and  C_24
REMARK    4  A    between atoms: C_5  and  C_9
REMARK    5  A    between atoms: C_6  and  C_8
REMARK    6  A    between atoms: N_10  and  N_11
REMARK    7  A    between atoms: C_12  and  C_14
REMARK                            x       y       z     vdW  Elec       q    Type
REMARK                         _______ _______ _______ _____ _____    ______ ____
ROOT
ATOM      1  N   UNL     1      -6.635  -2.459   1.824  0.00  0.00    -0.203 N 
ATOM      2  C   UNL     1      -7.787  -2.882   1.268  0.00  0.00    +0.265 C 
ATOM      3  O   UNL     1      -7.901  -2.920   0.057  0.00  0.00    -0.268 OA
ATOM      4  H   UNL     1      -6.545  -2.429   2.790  0.00  0.00    +0.178 HD
ENDROOT
BRANCH   2   5
ATOM      5  C   UNL     1      -8.907  -3.299   2.124  0.00  0.00    +0.063 A 
ATOM      6  C   UNL     1      -8.933  -3.307   3.487  0.00  0.00    +0.096 A 
ATOM      7  N   UNL     1     -10.137  -3.754   3.920  0.00  0.00    -0.360 N 
ATOM      8  H   UNL     1     -10.390  -3.847   4.851  0.00  0.00    +0.165 HD
ATOM      9  C   UNL     1     -10.951  -4.058   2.848  0.00  0.00    +0.047 A 
ATOM     10  C   UNL     1     -10.226  -3.784   1.677  0.00  0.00    +0.012 A 
ATOM     11  C   UNL     1     -10.808  -3.994   0.430  0.00  0.00    +0.011 A 
ATOM     12  C   UNL     1     -12.098  -4.470   0.351  0.00  0.00    +0.001 A 
ATOM     13  C   UNL     1     -12.817  -4.738   1.507  0.00  0.00    +0.002 A 
ATOM     14  C   UNL     1     -12.251  -4.542   2.748  0.00  0.00    +0.026 A 
ENDBRANCH   2   5
BRANCH   1  16
ATOM     15  C   UNL     1      -4.458  -1.655   1.544  0.00  0.00    +0.141 C 
ATOM     16  N   UNL     1      -5.567  -2.062   1.008  0.00  0.00    -0.187 NA
BRANCH  15  19
ATOM     17  N   UNL     1      -1.372  -0.511   0.012  0.00  0.00    -0.268 N 
ATOM     18  C   UNL     1      -2.104  -0.785   1.111  0.00  0.00    +0.045 A 
ATOM     19  C   UNL     1      -3.334  -1.237   0.685  0.00  0.00    +0.038 A 
ATOM     20  C   UNL     1      -3.318  -1.226  -0.727  0.00  0.00    +0.069 A 
ATOM     21  N   UNL     1      -2.152  -0.788  -1.117  0.00  0.00    -0.176 NA
ATOM     22  C   UNL     1      -4.453  -1.642  -1.627  0.00  0.00    +0.068 C 
ATOM     23  C   UNL     1      -1.658  -0.626   2.542  0.00  0.00    +0.066 C 
BRANCH  17  25
ATOM     24  C   UNL     1      -0.019   1.526   0.010  0.00  0.00    +0.029 C 
ATOM     25  C   UNL     1       0.002  -0.004   0.002  0.00  0.00    +0.140 C 
ENDBRANCH  17  25
ENDBRANCH  15  19
ENDBRANCH   1  16
TORSDOF 4
