REMARK  Name = ZINC28898252
REMARK  12 active torsions:
REMARK  status: ('A' for Active; 'I' for Inactive)
REMARK    1  A    between atoms: C_1  and  C_2
REMARK    2  A    between atoms: C_2  and  C_4
REMARK    3  A    between atoms: C_2  and  N_14
REMARK    4  A    between atoms: C_6  and  O_12
REMARK    5  A    between atoms: C_9  and  O_10
REMARK    6  A    between atoms: O_10  and  C_11
REMARK    7  A    between atoms: O_12  and  C_13
REMARK    8  A    between atoms: N_14  and  C_15
REMARK    9  A    between atoms: C_15  and  C_17
REMARK   10  A    between atoms: C_15  and  C_18
REMARK   11  A    between atoms: N_20  and  C_21
REMARK   12  A    between atoms: C_24  and  C_28
REMARK                            x       y       z     vdW  Elec       q    Type
REMARK                         _______ _______ _______ _____ _____    ______ ____
ROOT
ATOM      1  N   UNL     1      -1.921   1.944   6.142  0.00  0.00    +0.391 N 
ATOM      2  H   UNL     1      -2.102   2.950   5.737  0.00  0.00    -0.084 HD
ATOM      3  H   UNL     1      -2.026   1.200   5.339  0.00  0.00    -0.084 HD
ENDROOT
BRANCH   1   5
ATOM      4  C   UNL     1      -0.192   3.231   7.306  0.00  0.00    -0.009 C 
ATOM      5  C   UNL     1      -0.562   1.878   6.696  0.00  0.00    -0.039 C 
BRANCH   5   6
ATOM      6  C   UNL     1       0.412   1.539   5.597  0.00  0.00    -0.016 A 
ATOM      7  C   UNL     1       0.106   1.842   4.285  0.00  0.00    +0.051 A 
ATOM      8  C   UNL     1       1.002   1.531   3.273  0.00  0.00    +0.121 A 
ATOM      9  C   UNL     1       2.204   0.910   3.579  0.00  0.00    +0.049 A 
ATOM     10  C   UNL     1       2.513   0.612   4.892  0.00  0.00    +0.049 A 
ATOM     11  C   UNL     1       1.617   0.923   5.904  0.00  0.00    +0.122 A 
BRANCH  11  12
ATOM     12  O   UNL     1       1.919   0.625   7.195  0.00  0.00    -0.495 OA
ATOM     13  C   UNL     1       3.176  -0.009   7.438  0.00  0.00    +0.277 C 
ENDBRANCH  11  12
BRANCH   8  14
ATOM     14  O   UNL     1       0.701   1.830   1.982  0.00  0.00    -0.495 OA
ATOM     15  C   UNL     1       1.670   1.481   0.992  0.00  0.00    +0.277 C 
ENDBRANCH   8  14
ENDBRANCH   5   6
ENDBRANCH   1   5
BRANCH   1  16
ATOM     16  C   UNL     1      -2.925   1.665   7.178  0.00  0.00    +0.014 C 
ATOM     17  C   UNL     1      -4.244   2.347   6.806  0.00  0.00    -0.004 C 
BRANCH  16  18
ATOM     18  C   UNL     1      -3.140   0.177   7.281  0.00  0.00    +0.203 C 
ATOM     19  O   UNL     1      -2.518  -0.577   6.563  0.00  0.00    -0.277 OA
ATOM     20  N   UNL     1      -4.024  -0.316   8.171  0.00  0.00    -0.287 N 
ATOM     21  H   UNL     1      -4.642   0.370   8.769  0.00  0.00    +0.155 HD
BRANCH  20  22
ATOM     22  C   UNL     1      -4.154  -1.696   8.334  0.00  0.00    +0.035 A 
ATOM     23  C   UNL     1      -4.035  -2.538   7.233  0.00  0.00    +0.024 A 
ATOM     24  C   UNL     1      -4.157  -3.901   7.389  0.00  0.00    +0.022 A 
ATOM     25  C   UNL     1      -4.413  -4.437   8.655  0.00  0.00    +0.070 A 
ATOM     26  C   UNL     1      -4.538  -3.587   9.759  0.00  0.00    +0.060 A 
ATOM     27  C   UNL     1      -4.408  -2.224   9.594  0.00  0.00    +0.044 A 
ATOM     28 CL   UNL     1      -4.857  -4.246  11.333  0.00  0.00    -0.082 Cl
BRANCH  25  29
ATOM     29  C   UNL     1      -4.548  -5.853   8.821  0.00  0.00    +0.101 C 
ATOM     30  N   UNL     1      -4.654  -6.976   8.952  0.00  0.00    -0.191 NA
ENDBRANCH  25  29
ENDBRANCH  20  22
ENDBRANCH  16  18
ENDBRANCH   1  16
TORSDOF 8
