REMARK  Name = ZINC39102949
REMARK  5 active torsions:
REMARK  status: ('A' for Active; 'I' for Inactive)
REMARK    1  A    between atoms: C_1  and  C_2
REMARK    2  A    between atoms: C_2  and  C_3
REMARK    3  A    between atoms: C_3  and  C_12
REMARK    4  A    between atoms: C_12  and  C_13
REMARK    5  A    between atoms: C_12  and  C_14
REMARK                            x       y       z     vdW  Elec       q    Type
REMARK                         _______ _______ _______ _____ _____    ______ ____
ROOT
ATOM      1  C   UNL     1      -1.168  -0.546   0.151  0.00  0.00    +0.094 C 
ATOM      2  C   UNL     1      -1.879   0.074  -1.037  0.00  0.00    +0.231 C 
ATOM      3  O   UNL     1      -1.596  -0.241  -2.173  0.00  0.00    -0.274 OA
ATOM      4  N   UNL     1      -2.837   0.991  -0.782  0.00  0.00    -0.267 N 
ATOM      5  C   UNL     1      -3.160   1.349   0.466  0.00  0.00    +0.141 C 
ATOM      6  S   UNL     1      -4.393   2.521   0.660  0.00  0.00    -0.018 S 
ATOM      7  N   UNL     1      -2.591   0.859   1.572  0.00  0.00    -0.293 N 
ATOM      8  C   UNL     1      -1.611  -0.069   1.522  0.00  0.00    +0.070 C 
ATOM      9  S   UNL     1      -0.943  -0.643   2.856  0.00  0.00    -0.039 S 
ATOM     10  H   UNL     1      -3.305   1.401  -1.526  0.00  0.00    +0.157 HD
ATOM     11  H   UNL     1      -2.891   1.180   2.437  0.00  0.00    +0.154 HD
ENDROOT
BRANCH   1  12
ATOM     12  C   UNL     1      -1.373  -2.061   0.086  0.00  0.00    +0.004 C 
ATOM     13  C   UNL     1      -2.871  -2.373   0.077  0.00  0.00    +0.008 C 
ATOM     14  C   UNL     1      -0.731  -2.607  -1.191  0.00  0.00    +0.008 C 
ENDBRANCH   1  12
BRANCH   1  16
ATOM     15  C   UNL     1       0.581   1.238   0.152  0.00  0.00    +0.005 C 
ATOM     16  C   UNL     1       0.329  -0.265   0.011  0.00  0.00    +0.019 C 
ENDBRANCH   1  16
TORSDOF 2
