REMARK  Name = ZINC40783331
REMARK  4 active torsions:
REMARK  status: ('A' for Active; 'I' for Inactive)
REMARK    1  A    between atoms: C_3  and  N_9
REMARK    2  A    between atoms: C_11  and  N_22
REMARK    3  A    between atoms: C_12  and  N_16
REMARK    4  A    between atoms: N_16  and  C_17
REMARK                            x       y       z     vdW  Elec       q    Type
REMARK                         _______ _______ _______ _____ _____    ______ ____
ROOT
ATOM      1  N   UNL     1       3.583   2.126  -0.021  0.00  0.00    -0.297 N 
ATOM      2  C   UNL     1       3.567   3.513  -0.119  0.00  0.00    +0.149 A 
ATOM      3  C   UNL     1       4.759   4.229  -0.239  0.00  0.00    +0.105 A 
ATOM      4  C   UNL     1       4.685   5.620  -0.334  0.00  0.00    +0.145 A 
ATOM      5  N   UNL     1       3.490   6.206  -0.307  0.00  0.00    -0.219 NA
ATOM      6  C   UNL     1       2.388   5.492  -0.193  0.00  0.00    +0.225 A 
ATOM      7  N   UNL     1       2.413   4.177  -0.106  0.00  0.00    -0.219 NA
ATOM      8  H   UNL     1       4.428   1.655   0.052  0.00  0.00    +0.154 HD
ENDROOT
BRANCH   1  11
ATOM      9  C   UNL     1       0.066   1.244  -0.629  0.00  0.00    +0.022 A 
ATOM     10  C   UNL     1       1.252   1.953  -0.624  0.00  0.00    +0.026 A 
ATOM     11  C   UNL     1       2.382   1.410  -0.028  0.00  0.00    +0.051 A 
ATOM     12  C   UNL     1       2.317   0.152   0.561  0.00  0.00    +0.063 A 
ATOM     13  C   UNL     1       1.129  -0.553   0.552  0.00  0.00    +0.041 A 
ATOM     14  C   UNL     1       0.004  -0.008  -0.043  0.00  0.00    +0.042 A 
ATOM     15 CL   UNL     1      -1.487  -0.896  -0.052  0.00  0.00    -0.083 Cl
ATOM     16 CL   UNL     1       3.728  -0.532   1.306  0.00  0.00    -0.082 Cl
ENDBRANCH   1  11
BRANCH   3  17
ATOM     17  N   UNL     1       5.998   3.570  -0.262  0.00  0.00    -0.353 N 
ATOM     18  H   UNL     1       6.034   2.603  -0.194  0.00  0.00    +0.143 HD
ATOM     19  H   UNL     1       6.818   4.081  -0.345  0.00  0.00    +0.143 HD
ENDBRANCH   3  17
BRANCH   4  20
ATOM     20  N   UNL     1       5.841   6.382  -0.454  0.00  0.00    -0.325 N 
ATOM     21  H   UNL     1       6.708   5.947  -0.472  0.00  0.00    +0.148 HD
BRANCH  20  22
ATOM     22  C   UNL     1       5.751   7.840  -0.553  0.00  0.00    +0.072 C 
ATOM     23  C   UNL     1       5.582   8.260  -2.028  0.00  0.00    +0.022 C 
ATOM     24  C   UNL     1       6.409   9.564  -2.149  0.00  0.00    +0.002 C 
ATOM     25  C   UNL     1       7.638   9.273  -1.253  0.00  0.00    +0.002 C 
ATOM     26  C   UNL     1       7.059   8.485  -0.060  0.00  0.00    +0.022 C 
ENDBRANCH  20  22
ENDBRANCH   4  20
TORSDOF 4
