REMARK  Name = ZINC40913281
REMARK  9 active torsions:
REMARK  status: ('A' for Active; 'I' for Inactive)
REMARK    1  A    between atoms: C_1  and  C_2
REMARK    2  A    between atoms: C_4  and  O_10
REMARK    3  A    between atoms: C_6  and  C_9
REMARK    4  A    between atoms: O_10  and  C_11
REMARK    5  A    between atoms: C_11  and  C_13
REMARK    6  A    between atoms: C_11  and  C_14
REMARK    7  A    between atoms: N_16  and  C_17
REMARK    8  A    between atoms: C_20  and  S_23
REMARK    9  A    between atoms: S_23  and  N_26
REMARK                            x       y       z     vdW  Elec       q    Type
REMARK                         _______ _______ _______ _____ _____    ______ ____
ROOT
ATOM      1  C   UNL     1      -0.601  -4.795  -3.490  0.00  0.00    +0.258 C 
ATOM      2  O   UNL     1      -1.154  -4.103  -4.319  0.00  0.00    -0.271 OA
ATOM      3  N   UNL     1      -0.531  -6.129  -3.664  0.00  0.00    -0.282 N 
ATOM      4  H   UNL     1      -0.157  -6.690  -2.967  0.00  0.00    +0.155 HD
ENDROOT
BRANCH   3   5
ATOM      5  C   UNL     1      -0.999  -6.706  -4.850  0.00  0.00    +0.034 A 
ATOM      6  C   UNL     1      -1.578  -7.968  -4.830  0.00  0.00    +0.025 A 
ATOM      7  C   UNL     1      -2.038  -8.534  -6.002  0.00  0.00    +0.030 A 
ATOM      8  C   UNL     1      -1.923  -7.845  -7.196  0.00  0.00    +0.105 A 
ATOM      9  C   UNL     1      -1.346  -6.589  -7.220  0.00  0.00    +0.030 A 
ATOM     10  C   UNL     1      -0.889  -6.014  -6.050  0.00  0.00    +0.025 A 
BRANCH   8  11
ATOM     11  S   UNL     1      -2.512  -8.571  -8.690  0.00  0.00    +0.056 S 
ATOM     12  O   UNL     1      -1.794  -7.956  -9.751  0.00  0.00    -0.153 OA
ATOM     13  O   UNL     1      -2.513  -9.977  -8.485  0.00  0.00    -0.153 OA
BRANCH  11  14
ATOM     14  N   UNL     1      -4.095  -8.117  -8.864  0.00  0.00    -0.204 NA
ATOM     15  H   UNL     1      -4.513  -7.550  -8.197  0.00  0.00    +0.144 HD
ATOM     16  H   UNL     1      -4.604  -8.417  -9.633  0.00  0.00    +0.144 HD
ENDBRANCH  11  14
ENDBRANCH   8  11
ENDBRANCH   3   5
BRANCH   1  17
ATOM     17  C   UNL     1       0.008  -4.162  -2.265  0.00  0.00    +0.256 C 
ATOM     18  C   UNL     1       1.526  -4.354  -2.293  0.00  0.00    +0.062 C 
BRANCH  17  19
ATOM     19  O   UNL     1      -0.294  -2.765  -2.251  0.00  0.00    -0.480 OA
BRANCH  19  23
ATOM     20  C   UNL     1       0.537  -2.961   2.555  0.00  0.00    +0.045 C 
ATOM     21  C   UNL     1       0.106  -2.208   1.322  0.00  0.00    -0.028 A 
ATOM     22  C   UNL     1       0.105  -2.839   0.093  0.00  0.00    +0.050 A 
ATOM     23  C   UNL     1      -0.293  -2.146  -1.041  0.00  0.00    +0.122 A 
ATOM     24  C   UNL     1      -0.688  -0.820  -0.938  0.00  0.00    +0.050 A 
ATOM     25  C   UNL     1      -0.686  -0.193   0.292  0.00  0.00    -0.028 A 
ATOM     26  C   UNL     1      -0.294  -0.887   1.423  0.00  0.00    +0.047 A 
ATOM     27 CL   UNL     1      -0.298  -0.099   2.970  0.00  0.00    -0.083 Cl
ATOM     28  C   UNL     1      -1.115   1.247   0.404  0.00  0.00    +0.045 C 
ENDBRANCH  19  23
ENDBRANCH  17  19
ENDBRANCH   1  17
TORSDOF 6
