REMARK  Name = ZINC00876505
REMARK  5 active torsions:
REMARK  status: ('A' for Active; 'I' for Inactive)
REMARK    1  A    between atoms: C_1  and  C_2
REMARK    2  A    between atoms: C_4  and  C_29
REMARK    3  A    between atoms: C_9  and  C_14
REMARK    4  A    between atoms: C_16  and  C_27
REMARK    5  A    between atoms: C_17  and  N_26
REMARK                            x       y       z     vdW  Elec       q    Type
REMARK                         _______ _______ _______ _____ _____    ______ ____
ROOT
ATOM      1  C   UNL     1       3.733   2.135  -0.023  0.00  0.00    +0.106 C 
ATOM      2  C   UNL     1       4.494   1.760  -1.263  0.00  0.00    +0.098 C 
ATOM      3  C   UNL     1       5.500   0.854  -1.202  0.00  0.00    +0.198 C 
ATOM      4  O   UNL     1       5.842   0.267  -0.045  0.00  0.00    -0.445 OA
ATOM      5  C   UNL     1       5.521   0.852   1.124  0.00  0.00    +0.115 C 
ATOM      6  C   UNL     1       4.521   1.746   1.204  0.00  0.00    +0.046 C 
ATOM      7  C   UNL     1       4.174   2.349   2.432  0.00  0.00    +0.163 C 
ATOM      8  O   UNL     1       3.273   3.163   2.463  0.00  0.00    -0.292 OA
ATOM      9  C   UNL     1       4.901   2.002   3.702  0.00  0.00    +0.080 C 
ATOM     10  C   UNL     1       5.436   0.570   3.592  0.00  0.00    +0.016 C 
ATOM     11  C   UNL     1       6.322   0.478   2.348  0.00  0.00    +0.075 C 
ENDROOT
BRANCH   1  20
ATOM     12  C   UNL     1      -3.725   2.108   0.051  0.00  0.00    +0.044 C 
ATOM     13  C   UNL     1      -2.408   1.375   0.033  0.00  0.00    -0.050 A 
ATOM     14  C   UNL     1      -2.393  -0.013   0.025  0.00  0.00    +0.008 A 
ATOM     15  C   UNL     1      -1.200  -0.703   0.010  0.00  0.00    -0.026 A 
ATOM     16  C   UNL     1       0.002  -0.004   0.002  0.00  0.00    +0.052 A 
ATOM     17  C   UNL     1      -0.017   1.403   0.010  0.00  0.00    -0.001 A 
ATOM     18  C   UNL     1      -1.239   2.083   0.031  0.00  0.00    +0.013 A 
ATOM     19  C   UNL     1       1.254   2.130   0.002  0.00  0.00    +0.020 A 
ATOM     20  C   UNL     1       2.408   1.418  -0.013  0.00  0.00    +0.030 A 
ATOM     21  C   UNL     1       2.372   0.007  -0.020  0.00  0.00    +0.253 A 
ATOM     22  O   UNL     1       3.420  -0.614  -0.033  0.00  0.00    -0.268 OA
ATOM     23  N   UNL     1       1.210  -0.669  -0.013  0.00  0.00    -0.322 N 
ATOM     24  H   UNL     1       1.221  -1.669  -0.018  0.00  0.00    +0.169 HD
ATOM     25  C   UNL     1      -1.199  -2.210   0.002  0.00  0.00    +0.046 C 
ENDBRANCH   1  20
BRANCH   3  26
ATOM     26  N   UNL     1       6.184   0.531  -2.348  0.00  0.00    -0.328 N 
ATOM     27  H   UNL     1       5.945   0.950  -3.190  0.00  0.00    +0.145 HD
ATOM     28  H   UNL     1       6.906  -0.116  -2.316  0.00  0.00    +0.145 HD
ENDBRANCH   3  26
BRANCH   2  29
ATOM     29  C   UNL     1       4.154   2.363  -2.517  0.00  0.00    +0.101 C 
ATOM     30  N   UNL     1       3.885   2.842  -3.511  0.00  0.00    -0.191 NA
ENDBRANCH   2  29
TORSDOF 3
