REMARK  Name = ZINC38051374
REMARK  6 active torsions:
REMARK  status: ('A' for Active; 'I' for Inactive)
REMARK    1  A    between atoms: C_1  and  C_2
REMARK    2  A    between atoms: C_2  and  N_3
REMARK    3  A    between atoms: C_7  and  C_9
REMARK    4  A    between atoms: C_9  and  C_11
REMARK    5  A    between atoms: C_9  and  N_12
REMARK    6  A    between atoms: C_19  and  N_22
REMARK                            x       y       z     vdW  Elec       q    Type
REMARK                         _______ _______ _______ _____ _____    ______ ____
ROOT
ATOM      1  N   UNL     1      -4.487  -5.621   0.015  0.00  0.00    -0.317 N 
ATOM      2  C   UNL     1      -3.941  -6.302  -1.155  0.00  0.00    +0.117 C 
ATOM      3  C   UNL     1      -4.987  -7.298  -1.679  0.00  0.00    +0.093 C 
ATOM      4  S   UNL     1      -5.219  -8.574  -0.405  0.00  0.00    -0.122 S 
ATOM      5  C   UNL     1      -5.370  -7.637   1.083  0.00  0.00    +0.029 A 
ATOM      6  C   UNL     1      -4.986  -6.298   1.128  0.00  0.00    +0.046 A 
ATOM      7  C   UNL     1      -5.106  -5.594   2.323  0.00  0.00    +0.047 A 
ATOM      8  C   UNL     1      -5.604  -6.216   3.457  0.00  0.00    +0.026 A 
ATOM      9  C   UNL     1      -5.985  -7.550   3.408  0.00  0.00    +0.024 A 
ATOM     10  C   UNL     1      -5.874  -8.256   2.220  0.00  0.00    +0.018 A 
ENDROOT
BRANCH   8  11
ATOM     11  N   UNL     1      -5.720  -5.500   4.654  0.00  0.00    -0.358 N 
ATOM     12  H   UNL     1      -5.454  -4.568   4.689  0.00  0.00    +0.142 HD
ATOM     13  H   UNL     1      -6.068  -5.935   5.448  0.00  0.00    +0.142 HD
ENDBRANCH   8  11
BRANCH   1  14
ATOM     14  C   UNL     1      -4.507  -4.156   0.023  0.00  0.00    +0.157 C 
ATOM     15  C   UNL     1      -5.231  -3.649  -1.226  0.00  0.00    +0.038 C 
BRANCH  14  20
ATOM     16  N   UNL     1      -1.372  -0.511   0.055  0.00  0.00    -0.299 N 
ATOM     17  C   UNL     1      -1.601  -1.840   0.046  0.00  0.00    +0.306 C 
ATOM     18  O   UNL     1      -0.666  -2.617   0.046  0.00  0.00    -0.252 OA
ATOM     19  N   UNL     1      -2.865  -2.306   0.039  0.00  0.00    -0.239 N 
ATOM     20  C   UNL     1      -3.093  -3.634   0.031  0.00  0.00    +0.241 C 
ATOM     21  O   UNL     1      -2.161  -4.410   0.030  0.00  0.00    -0.273 OA
ATOM     22  H   UNL     1      -2.118   0.109   0.055  0.00  0.00    +0.150 HD
ATOM     23  H   UNL     1      -3.611  -1.686   0.040  0.00  0.00    +0.159 HD
BRANCH  16  25
ATOM     24  C   UNL     1      -0.018   1.525   0.071  0.00  0.00    +0.024 C 
ATOM     25  C   UNL     1       0.002  -0.004   0.063  0.00  0.00    +0.102 C 
ENDBRANCH  16  25
ENDBRANCH  14  20
ENDBRANCH   1  14
TORSDOF 4
