REMARK  Name = ZINC04714019
REMARK  6 active torsions:
REMARK  status: ('A' for Active; 'I' for Inactive)
REMARK    1  A    between atoms: C_1  and  C_2
REMARK    2  A    between atoms: C_3  and  C_18
REMARK    3  A    between atoms: C_4  and  C_10
REMARK    4  A    between atoms: C_15  and  O_16
REMARK    5  A    between atoms: C_18  and  O_20
REMARK    6  A    between atoms: O_20  and  C_21
REMARK                            x       y       z     vdW  Elec       q    Type
REMARK                         _______ _______ _______ _____ _____    ______ ____
ROOT
ATOM      1  C   UNL     1       1.376  -2.175  -3.733  0.00  0.00    +0.061 C 
ATOM      2  C   UNL     1       1.425  -0.675  -3.598  0.00  0.00    +0.019 C 
ATOM      3  C   UNL     1       0.933  -0.092  -2.483  0.00  0.00    +0.078 C 
ATOM      4  C   UNL     1       1.002   1.418  -2.387  0.00  0.00    +0.145 C 
ATOM      5  N   UNL     1       1.605   2.132  -3.526  0.00  0.00    -0.315 N 
ATOM      6  C   UNL     1       2.052   1.408  -4.572  0.00  0.00    +0.135 C 
ATOM      7  S   UNL     1       2.754   2.224  -5.903  0.00  0.00    -0.019 S 
ATOM      8  N   UNL     1       1.965   0.073  -4.603  0.00  0.00    -0.300 N 
ATOM      9  H   UNL     1       1.678   3.099  -3.524  0.00  0.00    +0.149 HD
ATOM     10  H   UNL     1       2.305  -0.390  -5.385  0.00  0.00    +0.154 HD
ENDROOT
BRANCH   4  11
ATOM     11  C   UNL     1       1.789   1.770  -1.151  0.00  0.00    +0.020 A 
ATOM     12  C   UNL     1       2.705   0.873  -0.635  0.00  0.00    +0.024 A 
ATOM     13  C   UNL     1       3.427   1.195   0.499  0.00  0.00    +0.018 A 
ATOM     14  C   UNL     1       3.235   2.417   1.121  0.00  0.00    +0.019 A 
ATOM     15  C   UNL     1       2.325   3.319   0.605  0.00  0.00    +0.047 A 
ATOM     16  C   UNL     1       1.595   2.995  -0.529  0.00  0.00    +0.122 A 
ATOM     17 BR   UNL     1       4.679  -0.035   1.203  0.00  0.00    -0.050 Br
BRANCH  16  18
ATOM     18  O   UNL     1       0.695   3.879  -1.035  0.00  0.00    -0.506 OA
ATOM     19  H   UNL     1      -0.213   3.731  -0.735  0.00  0.00    +0.292 HD
ENDBRANCH  16  18
ENDBRANCH   4  11
BRANCH   3  20
ATOM     20  C   UNL     1       0.374  -0.866  -1.440  0.00  0.00    +0.338 C 
ATOM     21  O   UNL     1       0.423  -2.081  -1.491  0.00  0.00    -0.245 OA
BRANCH  20  22
ATOM     22  O   UNL     1      -0.212  -0.258  -0.388  0.00  0.00    -0.465 OA
ATOM     23  C   UNL     1      -0.854  -1.099   0.573  0.00  0.00    +0.280 C 
ENDBRANCH  20  22
ENDBRANCH   3  20
TORSDOF 4
