REMARK  Name = ZINC02625793
REMARK  9 active torsions:
REMARK  status: ('A' for Active; 'I' for Inactive)
REMARK    1  A    between atoms: C_1  and  C_2
REMARK    2  A    between atoms: C_2  and  N_3
REMARK    3  A    between atoms: N_3  and  C_4
REMARK    4  A    between atoms: N_3  and  C_30
REMARK    5  A    between atoms: C_7  and  N_10
REMARK    6  A    between atoms: C_11  and  C_13
REMARK    7  A    between atoms: C_13  and  N_14
REMARK    8  A    between atoms: C_30  and  C_31
REMARK    9  A    between atoms: C_30  and  C_32
REMARK                            x       y       z     vdW  Elec       q    Type
REMARK                         _______ _______ _______ _____ _____    ______ ____
ROOT
ATOM      1  C   UNL     1      -5.838   1.934  -5.938  0.00  0.00    +0.214 C 
ENDROOT
BRANCH   1   2
ATOM      2  N   UNL     1      -7.057   2.683  -5.623  0.00  0.00    -0.215 N 
ATOM      3  C   UNL     1      -8.248   2.112  -5.350  0.00  0.00    +0.252 C 
ATOM      4  O   UNL     1      -8.504   0.927  -5.319  0.00  0.00    -0.272 OA
ATOM      5  C   UNL     1      -9.196   3.260  -5.091  0.00  0.00    +0.144 C 
ATOM      6  C   UNL     1     -10.333   3.250  -6.108  0.00  0.00    +0.081 C 
ATOM      7  C   UNL     1     -11.402   4.252  -5.648  0.00  0.00    +0.232 C 
ATOM      8  O   UNL     1     -11.937   3.801  -4.403  0.00  0.00    -0.492 OA
ATOM      9  C   UNL     1     -11.065   3.462  -3.418  0.00  0.00    +0.126 A 
ATOM     10  C   UNL     1      -9.734   3.187  -3.689  0.00  0.00    +0.027 A 
ATOM     11  C   UNL     1      -8.880   2.840  -2.657  0.00  0.00    +0.010 A 
ATOM     12  C   UNL     1      -9.347   2.769  -1.359  0.00  0.00    +0.001 A 
ATOM     13  C   UNL     1     -10.674   3.045  -1.085  0.00  0.00    +0.004 A 
ATOM     14  C   UNL     1     -11.531   3.391  -2.110  0.00  0.00    +0.046 A 
ATOM     15  N   UNL     1      -8.363   4.456  -5.261  0.00  0.00    -0.281 N 
ATOM     16  C   UNL     1      -7.126   4.019  -5.566  0.00  0.00    +0.310 C 
ATOM     17  O   UNL     1      -6.180   4.754  -5.769  0.00  0.00    -0.252 OA
ATOM     18  H   UNL     1      -8.646   5.379  -5.169  0.00  0.00    +0.152 HD
ENDBRANCH   1   2
BRANCH   1  20
ATOM     19  N   UNL     1      -3.929   0.951  -4.710  0.00  0.00    -0.284 N 
ATOM     20  C   UNL     1      -5.089   1.635  -4.665  0.00  0.00    +0.235 C 
ATOM     21  O   UNL     1      -5.530   2.011  -3.599  0.00  0.00    -0.274 OA
ATOM     22  H   UNL     1      -3.541   0.709  -5.566  0.00  0.00    +0.155 HD
BRANCH  19  26
ATOM     23  C   UNL     1      -2.007  -0.126  -1.174  0.00  0.00    +0.014 A 
ATOM     24  C   UNL     1      -2.689   1.075  -1.251  0.00  0.00    +0.023 A 
ATOM     25  C   UNL     1      -3.327   1.435  -2.421  0.00  0.00    +0.025 A 
ATOM     26  C   UNL     1      -3.283   0.589  -3.522  0.00  0.00    +0.034 A 
ATOM     27  C   UNL     1      -2.598  -0.616  -3.442  0.00  0.00    +0.025 A 
ATOM     28  C   UNL     1      -1.958  -0.968  -2.270  0.00  0.00    +0.023 A 
BRANCH  23  29
ATOM     29  N   UNL     1      -1.363  -0.488   0.013  0.00  0.00    -0.392 NA
ATOM     30  H   UNL     1      -0.915  -1.384  -0.107  0.00  0.00    +0.127 HD
BRANCH  29  31
ATOM     31  C   UNL     1      -0.351   0.523   0.348  0.00  0.00    +0.049 C 
ATOM     32  C   UNL     1       0.355   0.128   1.647  0.00  0.00    +0.026 C 
ATOM     33  C   UNL     1       0.675   0.613  -0.783  0.00  0.00    +0.026 C 
ENDBRANCH  29  31
BRANCH  29  35
ATOM     34  C   UNL     1      -3.329  -1.711   0.809  0.00  0.00    +0.022 C 
ATOM     35  C   UNL     1      -2.348  -0.573   1.099  0.00  0.00    +0.082 C 
ENDBRANCH  29  35
ENDBRANCH  23  29
ENDBRANCH  19  26
ENDBRANCH   1  20
TORSDOF 6
