REMARK  Name = ZINC48797513
REMARK  8 active torsions:
REMARK  status: ('A' for Active; 'I' for Inactive)
REMARK    1  A    between atoms: C_1  and  C_2
REMARK    2  A    between atoms: C_2  and  O_3
REMARK    3  A    between atoms: O_3  and  C_4
REMARK    4  A    between atoms: C_4  and  C_6
REMARK    5  A    between atoms: C_9  and  N_12
REMARK    6  A    between atoms: N_12  and  C_13
REMARK    7  A    between atoms: C_13  and  C_14
REMARK    8  A    between atoms: C_19  and  O_20
REMARK                            x       y       z     vdW  Elec       q    Type
REMARK                         _______ _______ _______ _____ _____    ______ ____
ROOT
ATOM      1  N   UNL     1       0.129  -4.507   4.907  0.00  0.00    +0.384 N 
ATOM      2  H   UNL     1      -0.357  -4.138   5.711  0.00  0.00    -0.085 HD
ATOM      3  H   UNL     1      -0.327  -4.191   4.064  0.00  0.00    -0.085 HD
ENDROOT
BRANCH   1   7
ATOM      4  C   UNL     1       1.516  -2.381   2.500  0.00  0.00    +0.098 C 
ATOM      5  C   UNL     1       0.814  -1.926   3.781  0.00  0.00    +0.013 C 
ATOM      6  C   UNL     1       1.540  -2.507   4.995  0.00  0.00    -0.015 C 
ATOM      7  C   UNL     1       1.520  -4.035   4.918  0.00  0.00    -0.071 C 
ATOM      8  C   UNL     1       2.223  -4.490   3.637  0.00  0.00    -0.015 C 
ATOM      9  C   UNL     1       1.496  -3.909   2.423  0.00  0.00    +0.013 C 
BRANCH   4  10
ATOM     10  C   UNL     1       0.801  -1.808   1.304  0.00  0.00    +0.310 C 
ATOM     11  O   UNL     1       0.324  -2.546   0.475  0.00  0.00    -0.251 OA
BRANCH  10  12
ATOM     12  O   UNL     1       0.693  -0.477   1.160  0.00  0.00    -0.465 OA
BRANCH  12  14
ATOM     13  C   UNL     1      -0.019   1.526   0.010  0.00  0.00    +0.048 C 
ATOM     14  C   UNL     1       0.002  -0.004   0.002  0.00  0.00    +0.229 C 
ENDBRANCH  12  14
ENDBRANCH  10  12
ENDBRANCH   4  10
ENDBRANCH   1   7
BRANCH   1  15
ATOM     15  C   UNL     1       0.109  -5.975   4.954  0.00  0.00    -0.043 C 
BRANCH  15  16
ATOM     16  C   UNL     1      -1.318  -6.459   4.943  0.00  0.00    -0.022 A 
ATOM     17  C   UNL     1      -1.930  -6.834   6.124  0.00  0.00    +0.005 A 
ATOM     18  C   UNL     1      -3.239  -7.278   6.115  0.00  0.00    +0.002 A 
ATOM     19  C   UNL     1      -3.940  -7.347   4.925  0.00  0.00    +0.019 A 
ATOM     20  C   UNL     1      -3.333  -6.973   3.741  0.00  0.00    +0.059 A 
ATOM     21  C   UNL     1      -2.020  -6.522   3.749  0.00  0.00    +0.132 A 
ATOM     22 BR   UNL     1      -4.292  -7.068   2.114  0.00  0.00    -0.047 Br
BRANCH  21  23
ATOM     23  O   UNL     1      -1.422  -6.148   2.587  0.00  0.00    -0.505 OA
ATOM     24  H   UNL     1      -0.968  -6.868   2.129  0.00  0.00    +0.292 HD
ENDBRANCH  21  23
ENDBRANCH  15  16
ENDBRANCH   1  15
TORSDOF 7
