REMARK  Name = ZINC66323440
REMARK  0 active torsions:
REMARK  status: ('A' for Active; 'I' for Inactive)
REMARK                            x       y       z     vdW  Elec       q    Type
REMARK                         _______ _______ _______ _____ _____    ______ ____
ROOT
ATOM      1  C   UNL     1      -0.016   1.361   0.009  0.00  0.00    +0.100 A 
ATOM      2  C   UNL     1       1.243   1.838   0.000  0.00  0.00    +0.061 A 
ATOM      3  C   UNL     1       2.137   0.684  -0.015  0.00  0.00    +0.109 A 
ATOM      4  C   UNL     1       1.302  -0.453  -0.013  0.00  0.00    +0.104 A 
ATOM      5  N   UNL     1       0.002  -0.004   0.002  0.00  0.00    -0.356 N 
ATOM      6  H   UNL     1      -0.784  -0.573   0.007  0.00  0.00    +0.165 HD
ATOM      7  C   UNL     1       1.902  -1.707  -0.025  0.00  0.00    +0.158 A 
ATOM      8  N   UNL     1       3.224  -1.781  -0.038  0.00  0.00    -0.204 NA
ATOM      9  C   UNL     1       3.976  -0.693  -0.040  0.00  0.00    +0.225 A 
ATOM     10  N   UNL     1       3.459   0.518  -0.028  0.00  0.00    -0.215 NA
ATOM     11 CL   UNL     1       5.703  -0.867  -0.057  0.00  0.00    -0.041 Cl
ATOM     12 CL   UNL     1       0.936  -3.150  -0.023  0.00  0.00    -0.060 Cl
ATOM     13 BR   UNL     1       1.756   3.658   0.005  0.00  0.00    -0.047 Br
ENDROOT
TORSDOF 0
