REMARK  Name = ZINC20714496
REMARK  3 active torsions:
REMARK  status: ('A' for Active; 'I' for Inactive)
REMARK    1  A    between atoms: C_2  and  C_3
REMARK    2  A    between atoms: C_3  and  N_4
REMARK    3  A    between atoms: C_15  and  O_23
REMARK                            x       y       z     vdW  Elec       q    Type
REMARK                         _______ _______ _______ _____ _____    ______ ____
ROOT
ATOM      1  N   UNL     1       1.357   1.975  -0.000  0.00  0.00    -0.259 N 
ATOM      2  C   UNL     1       2.095   2.231   1.141  0.00  0.00    +0.042 A 
ATOM      3  C   UNL     1       1.736   2.082   2.482  0.00  0.00    +0.024 A 
ATOM      4  C   UNL     1       2.685   2.420   3.434  0.00  0.00    +0.002 A 
ATOM      5  C   UNL     1       3.937   2.884   3.086  0.00  0.00    +0.000 A 
ATOM      6  C   UNL     1       4.308   3.037   1.754  0.00  0.00    +0.007 A 
ATOM      7  C   UNL     1       3.369   2.704   0.801  0.00  0.00    -0.006 A 
ATOM      8  C   UNL     1       3.414   2.742  -0.692  0.00  0.00    +0.112 C 
ATOM      9  C   UNL     1       2.054   2.242  -1.125  0.00  0.00    +0.236 C 
ATOM     10  O   UNL     1       1.663   2.108  -2.266  0.00  0.00    -0.274 OA
ATOM     11  C   UNL     1       4.509   1.827  -1.238  0.00  0.00    +0.121 C 
ATOM     12  C   UNL     1       5.853   2.497  -1.199  0.00  0.00    +0.191 C 
ATOM     13  N   UNL     1       6.022   3.776  -1.346  0.00  0.00    -0.198 NA
ATOM     14  C   UNL     1       4.934   4.585  -1.499  0.00  0.00    +0.156 A 
ATOM     15  C   UNL     1       3.653   4.136  -1.198  0.00  0.00    +0.036 A 
ATOM     16  C   UNL     1       2.772   5.171  -1.451  0.00  0.00    +0.141 A 
ATOM     17  N   UNL     1       3.459   6.208  -1.872  0.00  0.00    -0.180 NA
ATOM     18  N   UNL     1       4.822   5.868  -1.900  0.00  0.00    -0.260 N 
ATOM     19  H   UNL     1       5.551   6.452  -2.162  0.00  0.00    +0.191 HD
ENDROOT
BRANCH  12  20
ATOM     20  O   UNL     1       6.944   1.728  -0.999  0.00  0.00    -0.495 OA
ATOM     21  H   UNL     1       7.775   2.221  -0.985  0.00  0.00    +0.293 HD
ENDBRANCH  12  20
BRANCH   1  22
ATOM     22  C   UNL     1      -0.018   1.468   0.010  0.00  0.00    +0.202 C 
BRANCH  22  24
ATOM     23  C   UNL     1       0.018  -1.178  -0.004  0.00  0.00    +0.005 C 
ATOM     24  C   UNL     1       0.002  -0.004   0.002  0.00  0.00    -0.086 C 
ENDBRANCH  22  24
ENDBRANCH   1  22
TORSDOF 3
