REMARK  Name = ZINC39747275
REMARK  6 active torsions:
REMARK  status: ('A' for Active; 'I' for Inactive)
REMARK    1  A    between atoms: C_1  and  C_2
REMARK    2  A    between atoms: C_7  and  O_8
REMARK    3  A    between atoms: O_8  and  C_9
REMARK    4  A    between atoms: C_11  and  C_22
REMARK    5  A    between atoms: C_23  and  C_24
REMARK    6  A    between atoms: C_23  and  C_26
REMARK                            x       y       z     vdW  Elec       q    Type
REMARK                         _______ _______ _______ _____ _____    ______ ____
ROOT
ATOM      1  C   UNL     1       0.048  -0.820   3.574  0.00  0.00    +0.308 C 
ATOM      2  C   UNL     1      -0.332   0.058   4.767  0.00  0.00    +0.163 C 
ATOM      3  C   UNL     1       0.824   0.970   5.097  0.00  0.00    +0.237 C 
ATOM      4  O   UNL     1       0.618   2.099   5.485  0.00  0.00    -0.274 OA
ATOM      5  N   UNL     1       2.087   0.521   4.957  0.00  0.00    -0.231 N 
ATOM      6  C   UNL     1       3.133   1.292   5.396  0.00  0.00    +0.085 C 
ATOM      7  C   UNL     1       4.392   0.813   5.384  0.00  0.00    +0.016 C 
ATOM      8  C   UNL     1       4.655  -0.489   4.919  0.00  0.00    +0.005 C 
ATOM      9  C   UNL     1       3.643  -1.246   4.425  0.00  0.00    +0.044 C 
ATOM     10  C   UNL     1       2.330  -0.711   4.385  0.00  0.00    +0.130 C 
ATOM     11  N   UNL     1       1.387  -1.371   3.766  0.00  0.00    -0.225 NA
ENDROOT
BRANCH   2  12
ATOM     12  C   UNL     1      -0.642  -0.814   5.956  0.00  0.00    +0.010 C 
ATOM     13  C   UNL     1      -1.847  -0.767   6.519  0.00  0.00    +0.068 C 
BRANCH  13  14
ATOM     14  C   UNL     1      -2.158  -1.639   7.708  0.00  0.00    +0.216 C 
ATOM     15  N   UNL     1      -3.323  -2.486   7.421  0.00  0.00    -0.359 N 
ATOM     16  C   UNL     1      -4.245  -2.188   8.290  0.00  0.00    +0.060 A 
ATOM     17  C   UNL     1      -5.609  -2.688   8.511  0.00  0.00    +0.027 A 
ATOM     18  C   UNL     1      -6.350  -2.179   9.515  0.00  0.00    +0.002 A 
ATOM     19  C   UNL     1      -5.872  -1.176  10.377  0.00  0.00    +0.002 A 
ATOM     20  C   UNL     1      -4.637  -0.647  10.262  0.00  0.00    +0.027 A 
ATOM     21  C   UNL     1      -3.739  -1.126   9.202  0.00  0.00    +0.060 A 
ATOM     22  N   UNL     1      -2.523  -0.808   8.861  0.00  0.00    -0.359 N 
ATOM     23  H   UNL     1      -3.393  -3.145   6.713  0.00  0.00    +0.162 HD
ATOM     24  H   UNL     1      -1.962  -0.144   9.291  0.00  0.00    +0.162 HD
ENDBRANCH  13  14
BRANCH  13  25
ATOM     25  C   UNL     1      -2.848   0.113   5.996  0.00  0.00    +0.098 C 
ATOM     26  N   UNL     1      -3.642   0.811   5.581  0.00  0.00    -0.191 NA
ENDBRANCH  13  25
ENDBRANCH   2  12
BRANCH   1  27
ATOM     27  O   UNL     1       0.025  -0.033   2.381  0.00  0.00    -0.466 OA
BRANCH  27  34
ATOM     28  C   UNL     1      -0.018   1.503   0.010  0.00  0.00    +0.047 C 
ATOM     29  C   UNL     1       0.002  -0.004   0.002  0.00  0.00    -0.009 A 
ATOM     30  C   UNL     1       0.006  -0.689  -1.198  0.00  0.00    +0.007 A 
ATOM     31  C   UNL     1       0.024  -2.071  -1.206  0.00  0.00    +0.000 A 
ATOM     32  C   UNL     1       0.039  -2.772  -0.014  0.00  0.00    +0.004 A 
ATOM     33  C   UNL     1       0.036  -2.092   1.188  0.00  0.00    +0.046 A 
ATOM     34  C   UNL     1       0.023  -0.705   1.199  0.00  0.00    +0.126 A 
ENDBRANCH  27  34
ENDBRANCH   1  27
TORSDOF 5
