REMARK  Name = ZINC01688058
REMARK  4 active torsions:
REMARK  status: ('A' for Active; 'I' for Inactive)
REMARK    1  A    between atoms: C_1  and  C_2
REMARK    2  A    between atoms: N_4  and  C_5
REMARK    3  A    between atoms: C_11  and  N_19
REMARK    4  A    between atoms: C_20  and  C_22
REMARK                            x       y       z     vdW  Elec       q    Type
REMARK                         _______ _______ _______ _____ _____    ______ ____
ROOT
ATOM      1  C   UNL     1       2.388   1.265   0.076  0.00  0.00    +0.034 A 
ATOM      2  C   UNL     1       2.464  -0.123   0.062  0.00  0.00    +0.024 A 
ATOM      3  C   UNL     1       3.688  -0.750   0.135  0.00  0.00    +0.010 A 
ATOM      4  C   UNL     1       4.859   0.008   0.224  0.00  0.00    -0.012 A 
ATOM      5  C   UNL     1       4.775   1.398   0.238  0.00  0.00    -0.013 A 
ATOM      6  C   UNL     1       3.550   2.023   0.159  0.00  0.00    +0.029 A 
ATOM      7  C   UNL     1       6.181   1.937   0.339  0.00  0.00    +0.135 C 
ATOM      8  C   UNL     1       7.088   0.731   0.382  0.00  0.00    -0.015 A 
ATOM      9  C   UNL     1       6.282  -0.402   0.313  0.00  0.00    -0.012 A 
ATOM     10  C   UNL     1       6.875  -1.666   0.336  0.00  0.00    +0.009 A 
ATOM     11  C   UNL     1       8.246  -1.782   0.425  0.00  0.00    +0.001 A 
ATOM     12  C   UNL     1       9.039  -0.650   0.493  0.00  0.00    +0.000 A 
ATOM     13  C   UNL     1       8.458   0.605   0.472  0.00  0.00    +0.006 A 
ENDROOT
BRANCH   1  17
ATOM     14  C   UNL     1      -1.251   2.072   0.597  0.00  0.00    +0.109 C 
ATOM     15  C   UNL     1       0.068   1.343   0.594  0.00  0.00    +0.214 C 
ATOM     16  O   UNL     1       0.160   0.254   1.121  0.00  0.00    -0.276 OA
ATOM     17  N   UNL     1       1.143   1.898   0.001  0.00  0.00    -0.286 N 
ATOM     18  H   UNL     1       1.054   2.737  -0.477  0.00  0.00    +0.155 HD
ENDBRANCH   1  17
BRANCH   7  19
ATOM     19  N   UNL     1       6.333   2.726   1.564  0.00  0.00    -0.297 N 
ATOM     20  C   UNL     1       7.274   3.688   1.634  0.00  0.00    +0.318 C 
ATOM     21  O   UNL     1       7.996   3.900   0.682  0.00  0.00    -0.266 OA
ATOM     22  H   UNL     1       5.755   2.556   2.324  0.00  0.00    +0.150 HD
BRANCH  20  23
ATOM     23  C   UNL     1       7.430   4.499   2.894  0.00  0.00    +0.469 C 
ATOM     24  F   UNL     1       8.463   5.428   2.726  0.00  0.00    -0.162 F 
ATOM     25  F   UNL     1       6.235   5.176   3.163  0.00  0.00    -0.162 F 
ATOM     26  F   UNL     1       7.736   3.649   3.962  0.00  0.00    -0.162 F 
ENDBRANCH  20  23
ENDBRANCH   7  19
TORSDOF 3
