REMARK  Name = ZINC40751146
REMARK  11 active torsions:
REMARK  status: ('A' for Active; 'I' for Inactive)
REMARK    1  A    between atoms: C_3  and  S_12
REMARK    2  A    between atoms: C_6  and  C_7
REMARK    3  A    between atoms: C_8  and  C_9
REMARK    4  A    between atoms: C_9  and  N_10
REMARK    5  A    between atoms: S_12  and  N_15
REMARK    6  A    between atoms: N_15  and  C_16
REMARK    7  A    between atoms: N_15  and  C_19
REMARK    8  A    between atoms: C_16  and  C_17
REMARK    9  A    between atoms: C_17  and  O_18
REMARK   10  A    between atoms: C_19  and  C_20
REMARK   11  A    between atoms: C_20  and  O_21
REMARK                            x       y       z     vdW  Elec       q    Type
REMARK                         _______ _______ _______ _____ _____    ______ ____
ROOT
ATOM      1  C   UNL     1       1.429  -0.680   0.401  0.00  0.00    +0.019 A 
ATOM      2  C   UNL     1       2.482   0.197   0.571  0.00  0.00    +0.031 A 
ATOM      3  C   UNL     1       2.622   1.285  -0.272  0.00  0.00    +0.124 A 
ATOM      4  C   UNL     1       1.710   1.502  -1.290  0.00  0.00    +0.068 A 
ATOM      5  C   UNL     1       0.653   0.632  -1.470  0.00  0.00    +0.038 A 
ATOM      6  C   UNL     1       0.506  -0.467  -0.624  0.00  0.00    +0.026 A 
ATOM      7 CL   UNL     1       1.894   2.871  -2.341  0.00  0.00    -0.081 Cl
ENDROOT
BRANCH   3   8
ATOM      8  S   UNL     1       3.969   2.399  -0.047  0.00  0.00    +0.062 S 
ATOM      9  O   UNL     1       4.966   2.026  -0.988  0.00  0.00    -0.153 OA
ATOM     10  O   UNL     1       3.411   3.706  -0.005  0.00  0.00    -0.153 OA
BRANCH   8  11
ATOM     11  N   UNL     1       4.601   2.107   1.455  0.00  0.00    -0.172 NA
BRANCH  11  12
ATOM     12  C   UNL     1       5.608   1.057   1.634  0.00  0.00    +0.137 C 
BRANCH  12  13
ATOM     13  C   UNL     1       7.006   1.677   1.581  0.00  0.00    +0.173 C 
BRANCH  13  14
ATOM     14  O   UNL     1       7.178   2.559   2.691  0.00  0.00    -0.394 OA
ATOM     15  H   UNL     1       8.044   2.989   2.721  0.00  0.00    +0.209 HD
ENDBRANCH  13  14
ENDBRANCH  12  13
ENDBRANCH  11  12
BRANCH  11  16
ATOM     16  C   UNL     1       4.155   2.897   2.605  0.00  0.00    +0.137 C 
BRANCH  16  17
ATOM     17  C   UNL     1       3.035   2.151   3.332  0.00  0.00    +0.173 C 
BRANCH  17  18
ATOM     18  O   UNL     1       3.551   0.938   3.885  0.00  0.00    -0.394 OA
ATOM     19  H   UNL     1       2.894   0.413   4.362  0.00  0.00    +0.209 HD
ENDBRANCH  17  18
ENDBRANCH  16  17
ENDBRANCH  11  16
ENDBRANCH   8  11
ENDBRANCH   3   8
BRANCH   6  20
ATOM     20  C   UNL     1      -0.588  -1.374  -0.805  0.00  0.00    -0.068 C 
ATOM     21  C   UNL     1      -1.484  -2.117  -0.954  0.00  0.00    -0.117 C 
BRANCH  21  22
ATOM     22  C   UNL     1      -2.608  -3.048  -1.141  0.00  0.00    +0.005 C 
BRANCH  22  23
ATOM     23  N   UNL     1      -3.428  -2.606  -2.276  0.00  0.00    +0.385 N 
ATOM     24  H   UNL     1      -3.785  -1.680  -2.092  0.00  0.00    -0.089 HD
ATOM     25  H   UNL     1      -2.864  -2.588  -3.112  0.00  0.00    -0.089 HD
ATOM     26  H   UNL     1      -4.199  -3.244  -2.404  0.00  0.00    -0.089 HD
ENDBRANCH  22  23
ENDBRANCH  21  22
ENDBRANCH   6  20
TORSDOF 11
