REMARK  Name = ZINC24956961
REMARK  7 active torsions:
REMARK  status: ('A' for Active; 'I' for Inactive)
REMARK    1  A    between atoms: C_1  and  C_2
REMARK    2  A    between atoms: C_2  and  N_3
REMARK    3  A    between atoms: C_4  and  C_6
REMARK    4  A    between atoms: C_6  and  C_8
REMARK    5  A    between atoms: C_6  and  N_9
REMARK    6  A    between atoms: C_10  and  C_12
REMARK    7  A    between atoms: C_17  and  C_18
REMARK                            x       y       z     vdW  Elec       q    Type
REMARK                         _______ _______ _______ _____ _____    ______ ____
ROOT
ATOM      1  C   UNL     1       1.410  -0.413  -0.014  0.00  0.00    +0.082 A 
ATOM      2  C   UNL     1       2.153   0.750  -0.015  0.00  0.00    +0.118 A 
ATOM      3  N   UNL     1       1.299   1.784  -0.001  0.00  0.00    -0.283 N 
ATOM      4  H   UNL     1       1.683   2.815   0.001  0.00  0.00    +0.188 HD
ATOM      5  N   UNL     1      -0.016   1.310   0.009  0.00  0.00    -0.173 NA
ATOM      6  C   UNL     1       0.002  -0.004   0.002  0.00  0.00    +0.105 A 
ENDROOT
BRANCH   6   7
ATOM      7  C   UNL     1      -1.177  -0.902   0.009  0.00  0.00    +0.003 A 
ATOM      8  C   UNL     1      -1.144  -2.105  -0.695  0.00  0.00    +0.013 A 
ATOM      9  C   UNL     1      -2.242  -2.940  -0.683  0.00  0.00    +0.039 A 
ATOM     10  C   UNL     1      -3.381  -2.580   0.019  0.00  0.00    +0.123 A 
ATOM     11  C   UNL     1      -3.421  -1.383   0.716  0.00  0.00    +0.039 A 
ATOM     12  C   UNL     1      -2.325  -0.544   0.714  0.00  0.00    +0.013 A 
ATOM     13  F   UNL     1      -4.456  -3.398   0.024  0.00  0.00    -0.205 F 
ENDBRANCH   6   7
BRANCH   1  15
ATOM     14  N   UNL     1       3.258  -2.011  -0.040  0.00  0.00    -0.300 N 
ATOM     15  C   UNL     1       1.928  -1.791  -0.025  0.00  0.00    +0.248 C 
ATOM     16  O   UNL     1       1.157  -2.731  -0.023  0.00  0.00    -0.270 OA
ATOM     17  H   UNL     1       3.956  -1.161  -0.042  0.00  0.00    +0.150 HD
BRANCH  14  18
ATOM     18  C   UNL     1       3.774  -3.382  -0.051  0.00  0.00    +0.156 C 
ATOM     19  C   UNL     1       3.849  -3.911   1.382  0.00  0.00    +0.038 C 
BRANCH  18  21
ATOM     20  N   UNL     1       5.824  -4.557  -0.782  0.00  0.00    -0.314 N 
ATOM     21  C   UNL     1       5.150  -3.396  -0.665  0.00  0.00    +0.233 C 
ATOM     22  O   UNL     1       5.651  -2.362  -1.054  0.00  0.00    -0.274 OA
ATOM     23  H   UNL     1       5.370  -5.495  -0.429  0.00  0.00    +0.149 HD
BRANCH  20  25
ATOM     24  C   UNL     1       7.701  -6.002  -1.391  0.00  0.00    +0.024 C 
ATOM     25  C   UNL     1       7.162  -4.570  -1.378  0.00  0.00    +0.101 C 
ENDBRANCH  20  25
ENDBRANCH  18  21
ENDBRANCH  14  18
ENDBRANCH   1  15
TORSDOF 5
