REMARK  Name = ZINC42016490
REMARK  5 active torsions:
REMARK  status: ('A' for Active; 'I' for Inactive)
REMARK    1  A    between atoms: C_1  and  O_2
REMARK    2  A    between atoms: O_2  and  C_3
REMARK    3  A    between atoms: C_6  and  N_21
REMARK    4  A    between atoms: C_8  and  C_9
REMARK    5  A    between atoms: N_13  and  C_14
REMARK                            x       y       z     vdW  Elec       q    Type
REMARK                         _______ _______ _______ _____ _____    ______ ____
ROOT
ATOM      1  C   UNL     1       0.157  -2.932   0.608  0.00  0.00    +0.190 A 
ATOM      2  N   UNL     1       1.316  -2.420   0.246  0.00  0.00    -0.108 NA
ATOM      3  N   UNL     1       1.972  -3.257  -0.474  0.00  0.00    -0.022 NA
ATOM      4  N   UNL     1       1.302  -4.346  -0.628  0.00  0.00    -0.039 NA
ATOM      5  N   UNL     1       0.094  -4.186   0.074  0.00  0.00    -0.191 N 
ENDROOT
BRANCH   5   6
ATOM      6  C   UNL     1      -0.950  -5.113   0.197  0.00  0.00    +0.088 A 
ATOM      7  C   UNL     1      -2.031  -5.063  -0.673  0.00  0.00    +0.029 A 
ATOM      8  C   UNL     1      -3.058  -5.978  -0.550  0.00  0.00    +0.002 A 
ATOM      9  C   UNL     1      -3.012  -6.944   0.439  0.00  0.00    +0.002 A 
ATOM     10  C   UNL     1      -1.937  -6.997   1.307  0.00  0.00    +0.022 A 
ATOM     11  C   UNL     1      -0.903  -6.088   1.186  0.00  0.00    +0.066 A 
ATOM     12 CL   UNL     1       0.450  -6.160   2.272  0.00  0.00    -0.081 Cl
ENDBRANCH   5   6
BRANCH   1  18
ATOM     13  C   UNL     1      -0.725  -0.936   1.816  0.00  0.00    +0.131 A 
ATOM     14  C   UNL     1      -1.698  -0.324   2.590  0.00  0.00    +0.048 A 
ATOM     15  C   UNL     1      -2.811  -1.034   2.994  0.00  0.00    +0.026 A 
ATOM     16  C   UNL     1      -2.964  -2.366   2.628  0.00  0.00    +0.025 A 
ATOM     17  C   UNL     1      -1.998  -2.990   1.854  0.00  0.00    +0.038 A 
ATOM     18  C   UNL     1      -0.874  -2.275   1.439  0.00  0.00    +0.064 A 
BRANCH  16  19
ATOM     19  N   UNL     1      -4.095  -3.079   3.041  0.00  0.00    -0.358 N 
ATOM     20  H   UNL     1      -4.772  -2.644   3.583  0.00  0.00    +0.142 HD
ATOM     21  H   UNL     1      -4.202  -4.009   2.786  0.00  0.00    +0.142 HD
ENDBRANCH  16  19
BRANCH  13  23
ATOM     22  C   UNL     1       0.456   1.127   1.841  0.00  0.00    +0.277 C 
ATOM     23  O   UNL     1       0.370  -0.235   1.419  0.00  0.00    -0.494 OA
ENDBRANCH  13  23
ENDBRANCH   1  18
TORSDOF 4
