REMARK  Name = ZINC36371017
REMARK  6 active torsions:
REMARK  status: ('A' for Active; 'I' for Inactive)
REMARK    1  A    between atoms: C_1  and  C_2
REMARK    2  A    between atoms: C_2  and  C_4
REMARK    3  A    between atoms: C_6  and  O_31
REMARK    4  A    between atoms: C_11  and  C_30
REMARK    5  A    between atoms: C_22  and  C_29
REMARK    6  A    between atoms: C_25  and  O_28
REMARK                            x       y       z     vdW  Elec       q    Type
REMARK                         _______ _______ _______ _____ _____    ______ ____
ROOT
ATOM      1  C   UNL     1      -0.048  -0.659  -1.354  0.00  0.00    +0.090 C 
ATOM      2  C   UNL     1      -1.511  -0.806  -1.834  0.00  0.00    +0.126 C 
ATOM      3  C   UNL     1      -1.959  -2.228  -1.450  0.00  0.00    +0.036 C 
ATOM      4  C   UNL     1      -0.760  -2.876  -0.706  0.00  0.00    +0.002 C 
ATOM      5  C   UNL     1       0.454  -2.112  -1.274  0.00  0.00    -0.017 C 
ATOM      6  C   UNL     1       1.702  -2.251  -0.436  0.00  0.00    +0.008 C 
ATOM      7  C   UNL     1       1.435  -1.893   1.026  0.00  0.00    +0.005 C 
ATOM      8  C   UNL     1       0.344  -2.829   1.561  0.00  0.00    -0.001 C 
ATOM      9  C   UNL     1      -0.957  -2.578   0.783  0.00  0.00    -0.004 C 
ATOM     10  C   UNL     1      -2.083  -3.462   1.325  0.00  0.00    +0.004 C 
ATOM     11  C   UNL     1      -2.320  -3.146   2.802  0.00  0.00    +0.004 C 
ATOM     12  C   UNL     1      -1.342  -2.060   3.256  0.00  0.00    -0.002 C 
ATOM     13  C   UNL     1       0.134  -2.543   3.050  0.00  0.00    -0.026 C 
ATOM     14  C   UNL     1       1.129  -1.473   3.505  0.00  0.00    +0.010 C 
ATOM     15  C   UNL     1       0.920  -1.179   4.991  0.00  0.00    +0.032 C 
ATOM     16  C   UNL     1      -0.507  -0.673   5.214  0.00  0.00    +0.115 C 
ATOM     17  C   UNL     1      -1.572  -1.757   4.737  0.00  0.00    +0.035 C 
ATOM     18  C   UNL     1       0.359  -3.825   3.854  0.00  0.00    +0.012 C 
ATOM     19  C   UNL     1       0.752  -2.620  -2.686  0.00  0.00    +0.012 C 
ENDROOT
BRANCH   1  21
ATOM     20  C   UNL     1       1.232   0.755   0.427  0.00  0.00    +0.086 C 
ATOM     21  C   UNL     1       0.002  -0.004   0.002  0.00  0.00    +0.136 C 
ATOM     22  O   UNL     1      -0.944  -0.088   0.748  0.00  0.00    -0.297 OA
ENDBRANCH   1  21
BRANCH  16  23
ATOM     23  O   UNL     1      -0.703  -0.394   6.601  0.00  0.00    -0.392 OA
ATOM     24  H   UNL     1      -0.104   0.277   6.956  0.00  0.00    +0.210 HD
ENDBRANCH  16  23
BRANCH   2  25
ATOM     25  O   UNL     1      -2.338   0.162  -1.186  0.00  0.00    -0.391 OA
ATOM     26  H   UNL     1      -3.269   0.121  -1.445  0.00  0.00    +0.210 HD
ENDBRANCH   2  25
TORSDOF 3
