REMARK  Name = ZINC41151546
REMARK  4 active torsions:
REMARK  status: ('A' for Active; 'I' for Inactive)
REMARK    1  A    between atoms: C_7  and  N_20
REMARK    2  A    between atoms: N_11  and  C_12
REMARK    3  A    between atoms: N_20  and  C_21
REMARK    4  A    between atoms: C_21  and  C_22
REMARK                            x       y       z     vdW  Elec       q    Type
REMARK                         _______ _______ _______ _____ _____    ______ ____
ROOT
ATOM      1  C   UNL     1      -0.016   1.360   0.037  0.00  0.00    +0.001 A 
ATOM      2  C   UNL     1       1.169   2.091   0.049  0.00  0.00    +0.002 A 
ATOM      3  C   UNL     1       2.380   1.465   0.033  0.00  0.00    +0.028 A 
ATOM      4  C   UNL     1       2.435   0.065   0.003  0.00  0.00    +0.078 A 
ATOM      5  C   UNL     1       1.229  -0.676  -0.009  0.00  0.00    +0.040 A 
ATOM      6  C   UNL     1       0.002  -0.004   0.009  0.00  0.00    +0.013 A 
ATOM      7  C   UNL     1       1.309  -2.091  -0.037  0.00  0.00    +0.132 A 
ATOM      8  N   UNL     1       2.510  -2.652  -0.051  0.00  0.00    -0.199 NA
ATOM      9  C   UNL     1       3.619  -1.917  -0.039  0.00  0.00    +0.222 A 
ATOM     10  N   UNL     1       3.601  -0.598  -0.013  0.00  0.00    -0.214 NA
ATOM     11  N   UNL     1       4.842  -2.564  -0.055  0.00  0.00    -0.282 N 
ATOM     12  H   UNL     1       4.881  -3.531   0.013  0.00  0.00    +0.155 HD
ENDROOT
BRANCH  11  13
ATOM     13  C   UNL     1       6.023  -1.823  -0.168  0.00  0.00    +0.053 A 
ATOM     14  C   UNL     1       6.005  -0.571  -0.768  0.00  0.00    +0.025 A 
ATOM     15  C   UNL     1       7.172   0.159  -0.878  0.00  0.00    +0.003 A 
ATOM     16  C   UNL     1       8.360  -0.355  -0.391  0.00  0.00    +0.021 A 
ATOM     17  C   UNL     1       8.384  -1.603   0.208  0.00  0.00    +0.061 A 
ATOM     18  C   UNL     1       7.217  -2.336   0.326  0.00  0.00    +0.080 A 
ATOM     19 CL   UNL     1       7.245  -3.898   1.084  0.00  0.00    -0.080 Cl
ATOM     20 CL   UNL     1       9.877  -2.244   0.817  0.00  0.00    -0.082 Cl
ENDBRANCH  11  13
BRANCH   7  21
ATOM     21  N   UNL     1       0.168  -2.864  -0.050  0.00  0.00    -0.326 N 
ATOM     22  H   UNL     1      -0.705  -2.441  -0.039  0.00  0.00    +0.148 HD
BRANCH  21  23
ATOM     23  C   UNL     1       0.273  -4.325  -0.080  0.00  0.00    +0.134 C 
BRANCH  23  24
ATOM     24  C   UNL     1      -1.129  -4.937  -0.088  0.00  0.00    +0.135 C 
ATOM     25  C   UNL     1      -1.041  -6.484  -0.084  0.00  0.00    +0.035 C 
ATOM     26  C   UNL     1      -2.412  -6.856   0.543  0.00  0.00    +0.031 C 
ATOM     27  C   UNL     1      -2.640  -5.700   1.541  0.00  0.00    +0.160 C 
ATOM     28  O   UNL     1      -1.829  -4.596   1.119  0.00  0.00    -0.375 OA
ENDBRANCH  23  24
ENDBRANCH  21  23
ENDBRANCH   7  21
TORSDOF 4
