REMARK  Name = ZINC67487543
REMARK  4 active torsions:
REMARK  status: ('A' for Active; 'I' for Inactive)
REMARK    1  A    between atoms: C_1  and  C_2
REMARK    2  A    between atoms: C_2  and  C_4
REMARK    3  A    between atoms: C_2  and  N_12
REMARK    4  A    between atoms: N_15  and  C_16
REMARK                            x       y       z     vdW  Elec       q    Type
REMARK                         _______ _______ _______ _____ _____    ______ ____
ROOT
ATOM      1  N   UNL     1      -1.487  -0.532   0.063  0.00  0.00    -0.288 N 
ATOM      2  C   UNL     1      -1.968  -0.620   1.319  0.00  0.00    +0.304 C 
ATOM      3  O   UNL     1      -1.254  -0.342   2.264  0.00  0.00    -0.252 OA
ATOM      4  N   UNL     1      -3.239  -1.016   1.528  0.00  0.00    -0.268 N 
ATOM      5  H   UNL     1      -2.056  -0.754  -0.691  0.00  0.00    +0.151 HD
ATOM      6  H   UNL     1      -3.833  -1.157   0.774  0.00  0.00    +0.156 HD
ENDROOT
BRANCH   4   7
ATOM      7  C   UNL     1      -3.703  -1.222   2.834  0.00  0.00    +0.053 A 
ATOM      8  C   UNL     1      -2.808  -1.529   3.849  0.00  0.00    +0.027 A 
ATOM      9  C   UNL     1      -3.267  -1.732   5.136  0.00  0.00    +0.040 A 
ATOM     10  C   UNL     1      -4.620  -1.630   5.414  0.00  0.00    +0.125 A 
ATOM     11  C   UNL     1      -5.515  -1.325   4.403  0.00  0.00    +0.060 A 
ATOM     12  C   UNL     1      -5.059  -1.115   3.115  0.00  0.00    +0.065 A 
ATOM     13 CL   UNL     1      -6.181  -0.723   1.850  0.00  0.00    -0.082 Cl
ATOM     14  F   UNL     1      -5.066  -1.829   6.673  0.00  0.00    -0.205 F 
ENDBRANCH   4   7
BRANCH   1  16
ATOM     15  C   UNL     1      -0.044   1.427  -0.191  0.00  0.00    +0.038 C 
ATOM     16  C   UNL     1      -0.105  -0.102  -0.164  0.00  0.00    +0.157 C 
BRANCH  16  17
ATOM     17  C   UNL     1       0.381  -0.647  -1.482  0.00  0.00    +0.236 C 
ATOM     18  O   UNL     1      -0.416  -0.924  -2.354  0.00  0.00    -0.274 OA
ATOM     19  N   UNL     1       1.700  -0.827  -1.692  0.00  0.00    -0.298 N 
ATOM     20  C   UNL     1       2.644  -0.596  -0.598  0.00  0.00    +0.118 C 
ATOM     21  C   UNL     1       3.309  -1.922  -0.210  0.00  0.00    +0.088 C 
ATOM     22  S   UNL     1       4.117  -2.620  -1.681  0.00  0.00    -0.158 S 
ATOM     23  C   UNL     1       2.779  -2.654  -2.911  0.00  0.00    +0.088 C 
ATOM     24  C   UNL     1       2.170  -1.256  -3.011  0.00  0.00    +0.118 C 
ENDBRANCH  16  17
ENDBRANCH   1  16
TORSDOF 3
