REMARK  Name = ZINC23409039
REMARK  6 active torsions:
REMARK  status: ('A' for Active; 'I' for Inactive)
REMARK    1  A    between atoms: C_3  and  C_6
REMARK    2  A    between atoms: C_6  and  N_7
REMARK    3  A    between atoms: C_11  and  C_29
REMARK    4  A    between atoms: C_12  and  N_20
REMARK    5  A    between atoms: C_16  and  N_18
REMARK    6  A    between atoms: C_23  and  C_26
REMARK                            x       y       z     vdW  Elec       q    Type
REMARK                         _______ _______ _______ _____ _____    ______ ____
ROOT
ATOM      1  N   UNL     1       2.733  -4.093   0.544  0.00  0.00    -0.248 N 
ATOM      2  C   UNL     1       2.808  -2.705   0.576  0.00  0.00    +0.134 A 
ATOM      3  C   UNL     1       1.538  -2.159   0.499  0.00  0.00    +0.011 A 
ATOM      4  C   UNL     1       1.378  -0.778   0.514  0.00  0.00    +0.016 A 
ATOM      5  C   UNL     1       0.076  -0.117   0.436  0.00  0.00    +0.100 A 
ATOM      6  C   UNL     1       0.055   1.286   0.461  0.00  0.00    +0.142 A 
ATOM      7  N   UNL     1       1.178   1.988   0.551  0.00  0.00    -0.216 NA
ATOM      8  C   UNL     1       2.378   1.440   0.624  0.00  0.00    +0.129 A 
ATOM      9  C   UNL     1       2.535   0.041   0.608  0.00  0.00    +0.063 A 
ATOM     10  C   UNL     1       3.790  -0.588   0.683  0.00  0.00    +0.129 A 
ATOM     11  N   UNL     1       3.877  -1.905   0.664  0.00  0.00    -0.216 NA
ATOM     12  N   UNL     1       3.491   2.248   0.714  0.00  0.00    -0.343 N 
ATOM     13  C   UNL     1       0.574  -3.318   0.411  0.00  0.00    +0.135 C 
ATOM     14  C   UNL     1       1.469  -4.538   0.449  0.00  0.00    +0.226 C 
ATOM     15  O   UNL     1       1.113  -5.697   0.403  0.00  0.00    -0.275 OA
ATOM     16  H   UNL     1       4.493   1.799   0.776  0.00  0.00    +0.144 HD
ATOM     17  H   UNL     1       3.376   3.342   0.726  0.00  0.00    +0.144 HD
ENDROOT
BRANCH   6  18
ATOM     18  N   UNL     1      -1.155   1.949   0.384  0.00  0.00    -0.314 N 
ATOM     19  C   UNL     1      -1.230   2.768  -0.833  0.00  0.00    +0.107 C 
ATOM     20  C   UNL     1      -2.632   3.369  -0.959  0.00  0.00    +0.031 C 
ATOM     21  C   UNL     1      -2.926   4.227   0.275  0.00  0.00    +0.078 C 
ATOM     22  C   UNL     1      -2.794   3.362   1.531  0.00  0.00    +0.031 C 
ATOM     23  C   UNL     1      -1.388   2.761   1.585  0.00  0.00    +0.107 C 
BRANCH  21  24
ATOM     24  C   UNL     1      -4.327   4.775   0.186  0.00  0.00    +0.214 C 
ATOM     25  O   UNL     1      -5.141   4.501   1.043  0.00  0.00    -0.276 OA
ATOM     26  N   UNL     1      -4.676   5.569  -0.846  0.00  0.00    -0.329 N 
ATOM     27  H   UNL     1      -5.699   5.969  -0.911  0.00  0.00    +0.145 HD
ATOM     28  H   UNL     1      -3.938   5.817  -1.623  0.00  0.00    +0.145 HD
ENDBRANCH  21  24
ENDBRANCH   6  18
BRANCH  10  29
ATOM     29  N   UNL     1       4.939   0.176   0.777  0.00  0.00    -0.343 N 
ATOM     30  H   UNL     1       5.922  -0.313   0.836  0.00  0.00    +0.144 HD
ATOM     31  H   UNL     1       4.869   1.274   0.792  0.00  0.00    +0.144 HD
ENDBRANCH  10  29
BRANCH   5  32
ATOM     32  C   UNL     1      -1.136  -0.875   0.340  0.00  0.00    +0.103 C 
ATOM     33  N   UNL     1      -2.097  -1.476   0.263  0.00  0.00    -0.191 NA
ENDBRANCH   5  32
BRANCH   1  34
ATOM     34  C   UNL     1       3.903  -4.973   0.608  0.00  0.00    +0.189 C 
BRANCH  34  37
ATOM     35  C   UNL     1       4.256  -6.269   4.040  0.00  0.00    +0.041 A 
ATOM     36  C   UNL     1       3.708  -6.342   2.738  0.00  0.00    +0.046 A 
ATOM     37  C   UNL     1       4.207  -5.301   2.047  0.00  0.00    +0.122 A 
ATOM     38  O   UNL     1       5.016  -4.601   2.858  0.00  0.00    -0.466 OA
ATOM     39  C   UNL     1       5.050  -5.184   4.068  0.00  0.00    +0.195 A 
ENDBRANCH  34  37
ENDBRANCH   1  34
TORSDOF 6
