REMARK  Name = ZINC61963391
REMARK  7 active torsions:
REMARK  status: ('A' for Active; 'I' for Inactive)
REMARK    1  A    between atoms: C_1  and  C_2
REMARK    2  A    between atoms: C_2  and  C_3
REMARK    3  A    between atoms: C_2  and  N_14
REMARK    4  A    between atoms: N_17  and  C_18
REMARK    5  A    between atoms: C_18  and  C_19
REMARK    6  A    between atoms: C_19  and  C_20
REMARK    7  A    between atoms: C_19  and  O_27
REMARK                            x       y       z     vdW  Elec       q    Type
REMARK                         _______ _______ _______ _____ _____    ______ ____
ROOT
ATOM      1  N   UNL     1      -1.372  -0.511   0.012  0.00  0.00    -0.293 N 
ATOM      2  C   UNL     1      -2.029  -0.655   1.181  0.00  0.00    +0.300 C 
ATOM      3  O   UNL     1      -1.480  -0.364   2.226  0.00  0.00    -0.253 OA
ATOM      4  N   UNL     1      -3.293  -1.122   1.190  0.00  0.00    -0.297 N 
ATOM      5  H   UNL     1      -1.810  -0.743  -0.822  0.00  0.00    +0.151 HD
ATOM      6  H   UNL     1      -3.731  -1.354   0.356  0.00  0.00    +0.150 HD
ENDROOT
BRANCH   1   8
ATOM      7  C   UNL     1      -0.019   1.526   0.010  0.00  0.00    +0.033 C 
ATOM      8  C   UNL     1       0.002  -0.004   0.002  0.00  0.00    +0.102 C 
BRANCH   8   9
ATOM      9  C   UNL     1       0.707  -0.490  -1.238  0.00  0.00    -0.024 A 
ATOM     10  C   UNL     1       0.035  -0.521  -2.446  0.00  0.00    +0.009 A 
ATOM     11  C   UNL     1       0.676  -0.965  -3.588  0.00  0.00    +0.050 A 
ATOM     12  C   UNL     1       1.996  -1.379  -3.518  0.00  0.00    +0.162 A 
ATOM     13  C   UNL     1       2.670  -1.349  -2.305  0.00  0.00    +0.162 A 
ATOM     14  C   UNL     1       2.027  -0.899  -1.165  0.00  0.00    +0.055 A 
ATOM     15  O   UNL     1       3.971  -1.758  -2.247  0.00  0.00    -0.488 OA
ATOM     16  C   UNL     1       4.197  -3.154  -2.457  0.00  0.00    +0.232 C 
ATOM     17  C   UNL     1       4.281  -3.469  -3.942  0.00  0.00    +0.082 C 
ATOM     18  C   UNL     1       2.968  -3.210  -4.664  0.00  0.00    +0.232 C 
ATOM     19  O   UNL     1       2.640  -1.819  -4.637  0.00  0.00    -0.488 OA
ENDBRANCH   8   9
ENDBRANCH   1   8
BRANCH   4  20
ATOM     20  C   UNL     1      -4.006  -1.278   2.460  0.00  0.00    +0.142 C 
BRANCH  20  21
ATOM     21  C   UNL     1      -5.412  -1.820   2.192  0.00  0.00    +0.164 C 
BRANCH  21  22
ATOM     22  C   UNL     1      -6.146  -1.981   3.499  0.00  0.00    +0.018 A 
ATOM     23  C   UNL     1      -6.983  -0.978   3.950  0.00  0.00    +0.009 A 
ATOM     24  C   UNL     1      -7.656  -1.126   5.148  0.00  0.00    +0.001 A 
ATOM     25  C   UNL     1      -7.493  -2.277   5.896  0.00  0.00    +0.003 A 
ATOM     26  C   UNL     1      -6.657  -3.281   5.447  0.00  0.00    +0.039 A 
ATOM     27  C   UNL     1      -5.987  -3.137   4.244  0.00  0.00    +0.129 A 
ATOM     28  F   UNL     1      -5.173  -4.120   3.802  0.00  0.00    -0.205 F 
ENDBRANCH  21  22
BRANCH  21  29
ATOM     29  O   UNL     1      -6.123  -0.906   1.356  0.00  0.00    -0.386 OA
ATOM     30  H   UNL     1      -6.226  -0.023   1.736  0.00  0.00    +0.210 HD
ENDBRANCH  21  29
ENDBRANCH  20  21
ENDBRANCH   4  20
TORSDOF 6
