REMARK  Name = ZINC46653067
REMARK  7 active torsions:
REMARK  status: ('A' for Active; 'I' for Inactive)
REMARK    1  A    between atoms: C_1  and  C_2
REMARK    2  A    between atoms: C_2  and  C_4
REMARK    3  A    between atoms: C_2  and  N_15
REMARK    4  A    between atoms: C_16  and  C_18
REMARK    5  A    between atoms: C_18  and  C_19
REMARK    6  A    between atoms: C_19  and  N_20
REMARK    7  A    between atoms: N_23  and  C_24
REMARK                            x       y       z     vdW  Elec       q    Type
REMARK                         _______ _______ _______ _____ _____    ______ ____
ROOT
ATOM      1  N   UNL     1       0.711  -0.489   1.189  0.00  0.00    -0.309 N 
ATOM      2  C   UNL     1       2.054  -0.600   1.174  0.00  0.00    +0.215 C 
ATOM      3  O   UNL     1       2.676  -0.297   0.177  0.00  0.00    -0.276 OA
ATOM      4  H   UNL     1       0.213  -0.731   1.986  0.00  0.00    +0.149 HD
ENDROOT
BRANCH   1   6
ATOM      5  C   UNL     1      -0.019   1.526   0.010  0.00  0.00    +0.033 C 
ATOM      6  C   UNL     1       0.002  -0.004   0.002  0.00  0.00    +0.100 C 
BRANCH   6   7
ATOM      7  C   UNL     1      -1.412  -0.526   0.013  0.00  0.00    -0.026 A 
ATOM      8  C   UNL     1      -2.121  -0.570   1.199  0.00  0.00    +0.009 A 
ATOM      9  C   UNL     1      -3.420  -1.046   1.217  0.00  0.00    +0.048 A 
ATOM     10  C   UNL     1      -4.011  -1.480   0.044  0.00  0.00    +0.142 A 
ATOM     11  C   UNL     1      -3.296  -1.437  -1.152  0.00  0.00    +0.076 A 
ATOM     12  C   UNL     1      -1.998  -0.953  -1.165  0.00  0.00    +0.032 A 
ATOM     13  N   UNL     1      -3.906  -1.883  -2.333  0.00  0.00    -0.280 N 
ATOM     14  C   UNL     1      -5.247  -2.043  -2.357  0.00  0.00    +0.255 C 
ATOM     15  O   UNL     1      -5.793  -2.457  -3.357  0.00  0.00    -0.272 OA
ATOM     16  C   UNL     1      -6.062  -1.706  -1.134  0.00  0.00    +0.325 C 
ATOM     17  O   UNL     1      -5.287  -1.951   0.043  0.00  0.00    -0.481 OA
ATOM     18  H   UNL     1      -3.373  -2.072  -3.121  0.00  0.00    +0.155 HD
ENDBRANCH   6   7
ENDBRANCH   1   6
BRANCH   2  19
ATOM     19  C   UNL     1       2.783  -1.099   2.395  0.00  0.00    +0.114 C 
BRANCH  19  20
ATOM     20  C   UNL     1       4.287  -1.129   2.114  0.00  0.00    +0.115 C 
BRANCH  20  21
ATOM     21  N   UNL     1       4.995  -1.614   3.301  0.00  0.00    -0.299 N 
ATOM     22  C   UNL     1       6.338  -1.724   3.286  0.00  0.00    +0.300 C 
ATOM     23  O   UNL     1       6.962  -1.421   2.287  0.00  0.00    -0.253 OA
ATOM     24  N   UNL     1       6.990  -2.171   4.378  0.00  0.00    -0.294 N 
ATOM     25  H   UNL     1       4.497  -1.856   4.098  0.00  0.00    +0.150 HD
ATOM     26  H   UNL     1       6.492  -2.413   5.175  0.00  0.00    +0.151 HD
BRANCH  24  27
ATOM     27  C   UNL     1       8.450  -2.291   4.361  0.00  0.00    +0.037 C 
ATOM     28  C   UNL     1       8.869  -3.263   3.257  0.00  0.00    +0.029 C 
ATOM     29  C   UNL     1      10.394  -3.389   3.240  0.00  0.00    -0.008 C 
ATOM     30  C   UNL     1      10.878  -3.914   4.593  0.00  0.00    +0.007 C 
ATOM     31  C   UNL     1      10.459  -2.942   5.697  0.00  0.00    -0.008 C 
ATOM     32  C   UNL     1       8.934  -2.816   5.714  0.00  0.00    +0.029 C 
ATOM     33  C   UNL     1      11.080  -1.569   5.431  0.00  0.00    +0.007 C 
ATOM     34  C   UNL     1      10.596  -1.044   4.078  0.00  0.00    -0.008 C 
ATOM     35  C   UNL     1      11.016  -2.016   2.974  0.00  0.00    +0.007 C 
ATOM     36  C   UNL     1       9.072  -0.918   4.095  0.00  0.00    +0.029 C 
ENDBRANCH  24  27
ENDBRANCH  20  21
ENDBRANCH  19  20
ENDBRANCH   2  19
TORSDOF 6
