REMARK  Name = ZINC63236359
REMARK  5 active torsions:
REMARK  status: ('A' for Active; 'I' for Inactive)
REMARK    1  A    between atoms: C_1  and  C_2
REMARK    2  A    between atoms: C_2  and  C_4
REMARK    3  A    between atoms: C_2  and  N_10
REMARK    4  A    between atoms: N_10  and  C_11
REMARK    5  A    between atoms: C_19  and  C_26
REMARK                            x       y       z     vdW  Elec       q    Type
REMARK                         _______ _______ _______ _____ _____    ______ ____
ROOT
ATOM      1  C   UNL     1       0.013   0.128  -2.392  0.00  0.00    -0.044 C 
ATOM      2  C   UNL     1       0.105   1.656  -2.449  0.00  0.00    -0.013 C 
ATOM      3  C   UNL     1       1.559   2.124  -2.413  0.00  0.00    +0.003 C 
ATOM      4  C   UNL     1       2.308   1.623  -3.659  0.00  0.00    +0.033 C 
ATOM      5  C   UNL     1       2.049   0.140  -3.750  0.00  0.00    -0.040 C 
ATOM      6  C   UNL     1       2.872  -0.892  -3.889  0.00  0.00    -0.001 A 
ATOM      7  C   UNL     1       4.323  -0.965  -4.125  0.00  0.00    +0.014 A 
ATOM      8  C   UNL     1       4.857  -2.213  -4.194  0.00  0.00    -0.044 A 
ATOM      9  C   UNL     1       4.103  -3.381  -4.054  0.00  0.00    +0.006 A 
ATOM     10  C   UNL     1       2.762  -3.409  -3.845  0.00  0.00    +0.026 A 
ATOM     11  C   UNL     1       2.086  -2.157  -3.763  0.00  0.00    +0.043 A 
ATOM     12  N   UNL     1       0.823  -1.893  -3.597  0.00  0.00    -0.379 N 
ATOM     13  C   UNL     1       0.640  -0.448  -3.663  0.00  0.00    +0.092 C 
ATOM     14  H   UNL     1       0.120  -2.546  -3.453  0.00  0.00    +0.160 HD
ENDROOT
BRANCH   8  15
ATOM     15  C   UNL     1       6.339  -2.343  -4.435  0.00  0.00    +0.019 C 
ATOM     16  C   UNL     1       6.982  -3.088  -3.263  0.00  0.00    +0.008 C 
ATOM     17  C   UNL     1       8.487  -3.220  -3.507  0.00  0.00    +0.001 C 
ATOM     18  C   UNL     1       8.727  -4.001  -4.801  0.00  0.00    +0.000 C 
ATOM     19  C   UNL     1       8.084  -3.256  -5.973  0.00  0.00    +0.001 C 
ATOM     20  C   UNL     1       6.579  -3.123  -5.729  0.00  0.00    +0.008 C 
ENDBRANCH   8  15
BRANCH   1  21
ATOM     21  N   UNL     1       0.738  -0.368  -1.215  0.00  0.00    +0.387 N 
ATOM     22  H   UNL     1       1.679  -0.004  -1.222  0.00  0.00    -0.085 HD
ATOM     23  H   UNL     1       0.768  -1.376  -1.238  0.00  0.00    -0.085 HD
BRANCH  21  25
ATOM     24  C   UNL     1       0.881  -0.320   1.229  0.00  0.00    -0.009 C 
ATOM     25  C   UNL     1       0.052   0.075   0.006  0.00  0.00    -0.044 C 
BRANCH  25  26
ATOM     26  C   UNL     1      -1.304  -0.579   0.085  0.00  0.00    -0.062 A 
ATOM     27  C   UNL     1      -1.454  -1.904  -0.277  0.00  0.00    +0.002 A 
ATOM     28  C   UNL     1      -2.697  -2.504  -0.205  0.00  0.00    +0.000 A 
ATOM     29  C   UNL     1      -3.790  -1.778   0.231  0.00  0.00    +0.000 A 
ATOM     30  C   UNL     1      -3.640  -0.453   0.595  0.00  0.00    +0.000 A 
ATOM     31  C   UNL     1      -2.396   0.145   0.526  0.00  0.00    +0.002 A 
ENDBRANCH  25  26
ENDBRANCH  21  25
ENDBRANCH   1  21
TORSDOF 4
