REMARK  Name = ZINC06782702
REMARK  6 active torsions:
REMARK  status: ('A' for Active; 'I' for Inactive)
REMARK    1  A    between atoms: C_1  and  C_2
REMARK    2  A    between atoms: C_3  and  C_22
REMARK    3  A    between atoms: C_4  and  C_15
REMARK    4  A    between atoms: C_7  and  N_14
REMARK    5  A    between atoms: C_8  and  C_12
REMARK    6  A    between atoms: C_22  and  C_24
REMARK                            x       y       z     vdW  Elec       q    Type
REMARK                         _______ _______ _______ _____ _____    ______ ____
ROOT
ATOM      1  C   UNL     1      -2.357   8.009   2.538  0.00  0.00    +0.061 C 
ATOM      2  C   UNL     1      -1.889   7.377   1.253  0.00  0.00    +0.013 C 
ATOM      3  C   UNL     1      -0.704   6.739   1.229  0.00  0.00    +0.023 C 
ATOM      4  C   UNL     1      -0.131   6.053   0.025  0.00  0.00    +0.088 C 
ATOM      5  C   UNL     1      -0.915   6.456  -1.218  0.00  0.00    +0.015 A 
ATOM      6  C   UNL     1      -0.507   6.201  -2.516  0.00  0.00    +0.055 A 
ATOM      7  C   UNL     1      -1.313   6.616  -3.575  0.00  0.00    +0.111 A 
ATOM      8  S   UNL     1      -2.679   7.387  -2.720  0.00  0.00    -0.061 S 
ATOM      9  C   UNL     1      -2.114   7.121  -1.065  0.00  0.00    +0.077 A 
ATOM     10  N   UNL     1      -2.681   7.467   0.137  0.00  0.00    -0.312 N 
ATOM     11  H   UNL     1      -3.603   7.763   0.195  0.00  0.00    +0.152 HD
ENDROOT
BRANCH   4  12
ATOM     12  C   UNL     1      -0.219   4.559   0.210  0.00  0.00    -0.035 A 
ATOM     13  C   UNL     1       0.932   3.794   0.204  0.00  0.00    +0.005 A 
ATOM     14  C   UNL     1       0.852   2.424   0.374  0.00  0.00    +0.015 A 
ATOM     15  C   UNL     1      -0.380   1.820   0.549  0.00  0.00    +0.018 A 
ATOM     16  C   UNL     1      -1.532   2.586   0.549  0.00  0.00    +0.015 A 
ATOM     17  C   UNL     1      -1.450   3.956   0.385  0.00  0.00    +0.005 A 
ATOM     18 BR   UNL     1      -0.490  -0.053   0.780  0.00  0.00    -0.050 Br
ENDBRANCH   4  12
BRANCH   6  19
ATOM     19  N   UNL     1       0.694   5.537  -2.761  0.00  0.00    -0.356 N 
ATOM     20  H   UNL     1       0.974   5.361  -3.673  0.00  0.00    +0.142 HD
ATOM     21  H   UNL     1       1.250   5.251  -2.019  0.00  0.00    +0.142 HD
ENDBRANCH   6  19
BRANCH   3  22
ATOM     22  C   UNL     1       0.048   6.715   2.413  0.00  0.00    +0.159 C 
ATOM     23  O   UNL     1      -0.423   7.162   3.440  0.00  0.00    -0.293 OA
ATOM     24  C   UNL     1       1.438   6.134   2.411  0.00  0.00    +0.091 C 
ENDBRANCH   3  22
BRANCH   7  25
ATOM     25  C   UNL     1      -1.101   6.464  -4.983  0.00  0.00    +0.108 C 
ATOM     26  N   UNL     1      -0.932   6.344  -6.100  0.00  0.00    -0.190 NA
ENDBRANCH   7  25
TORSDOF 4
