REMARK  Name = ZINC05408940
REMARK  10 active torsions:
REMARK  status: ('A' for Active; 'I' for Inactive)
REMARK    1  A    between atoms: C_1  and  C_2
REMARK    2  A    between atoms: C_4  and  C_33
REMARK    3  A    between atoms: C_5  and  C_18
REMARK    4  A    between atoms: C_6  and  C_17
REMARK    5  A    between atoms: C_7  and  C_8
REMARK    6  A    between atoms: C_8  and  O_9
REMARK    7  A    between atoms: O_9  and  C_10
REMARK    8  A    between atoms: C_21  and  C_32
REMARK    9  A    between atoms: C_27  and  N_31
REMARK   10  A    between atoms: C_28  and  C_29
REMARK                            x       y       z     vdW  Elec       q    Type
REMARK                         _______ _______ _______ _____ _____    ______ ____
ROOT
ATOM      1  C   UNL     1       1.654  -4.048   2.371  0.00  0.00    +0.044 C 
ATOM      2  C   UNL     1       1.928  -4.826   1.110  0.00  0.00    -0.044 A 
ATOM      3  C   UNL     1       1.786  -6.201   1.101  0.00  0.00    +0.007 A 
ATOM      4  C   UNL     1       2.043  -6.915  -0.054  0.00  0.00    -0.046 A 
ATOM      5  C   UNL     1       2.436  -6.253  -1.203  0.00  0.00    -0.028 A 
ATOM      6  C   UNL     1       2.571  -4.878  -1.196  0.00  0.00    -0.039 A 
ATOM      7  C   UNL     1       2.314  -4.164  -0.040  0.00  0.00    -0.004 A 
ATOM      8  C   UNL     1       2.999  -4.157  -2.448  0.00  0.00    +0.044 C 
ATOM      9  C   UNL     1       1.894  -8.415  -0.061  0.00  0.00    +0.044 C 
ENDROOT
BRANCH   5  10
ATOM     10  C   UNL     1       2.715  -7.032  -2.462  0.00  0.00    +0.102 C 
ATOM     11  C   UNL     1       1.687  -6.691  -3.510  0.00  0.00    +0.049 A 
ATOM     12  C   UNL     1       0.390  -7.031  -3.579  0.00  0.00    +0.041 A 
ATOM     13  N   UNL     1      -0.117  -6.484  -4.708  0.00  0.00    -0.278 N 
ATOM     14  H   UNL     1      -1.061  -6.566  -5.027  0.00  0.00    +0.189 HD
ATOM     15  N   UNL     1       0.913  -5.783  -5.354  0.00  0.00    -0.135 NA
ATOM     16  C   UNL     1       1.995  -5.905  -4.641  0.00  0.00    +0.245 A 
ATOM     17  O   UNL     1       3.243  -5.409  -4.856  0.00  0.00    -0.421 OA
ATOM     18  C   UNL     1       4.247  -5.907  -4.106  0.00  0.00    +0.201 C 
ATOM     19  C   UNL     1       4.074  -6.660  -3.000  0.00  0.00    +0.098 C 
ATOM     20  C   UNL     1      -0.364  -7.869  -2.580  0.00  0.00    +0.065 C 
BRANCH  18  21
ATOM     21  N   UNL     1       5.533  -5.629  -4.496  0.00  0.00    -0.328 N 
ATOM     22  H   UNL     1       5.695  -5.091  -5.286  0.00  0.00    +0.145 HD
ATOM     23  H   UNL     1       6.280  -5.972  -3.980  0.00  0.00    +0.145 HD
ENDBRANCH  18  21
BRANCH  19  24
ATOM     24  C   UNL     1       5.235  -7.126  -2.304  0.00  0.00    +0.101 C 
ATOM     25  N   UNL     1       6.156  -7.496  -1.751  0.00  0.00    -0.191 NA
ENDBRANCH  19  24
ENDBRANCH   5  10
BRANCH   7  26
ATOM     26  C   UNL     1       2.463  -2.664  -0.033  0.00  0.00    +0.265 C 
BRANCH  26  27
ATOM     27  O   UNL     1       1.220  -2.061  -0.397  0.00  0.00    -0.487 OA
BRANCH  27  28
ATOM     28  C   UNL     1       1.181  -0.703  -0.439  0.00  0.00    +0.121 A 
ATOM     29  C   UNL     1       0.007  -0.051  -0.784  0.00  0.00    +0.048 A 
ATOM     30  C   UNL     1      -0.031   1.329  -0.826  0.00  0.00    +0.042 A 
ATOM     31  C   UNL     1       1.104   2.062  -0.523  0.00  0.00    +0.124 A 
ATOM     32  C   UNL     1       2.277   1.414  -0.177  0.00  0.00    +0.042 A 
ATOM     33  C   UNL     1       2.317   0.033  -0.135  0.00  0.00    +0.048 A 
ATOM     34  F   UNL     1       1.066   3.412  -0.564  0.00  0.00    -0.205 F 
ENDBRANCH  27  28
ENDBRANCH  26  27
ENDBRANCH   7  26
TORSDOF 6
