REMARK  Name = ZINC01579817
REMARK  5 active torsions:
REMARK  status: ('A' for Active; 'I' for Inactive)
REMARK    1  A    between atoms: C_2  and  C_7
REMARK    2  A    between atoms: C_7  and  CA_8
REMARK    3  A    between atoms: CA_8  and  C_10
REMARK    4  A    between atoms: CA_8  and  N_12
REMARK    5  A    between atoms: C_13  and  C_15
REMARK                            x       y       z     vdW  Elec       q    Type
REMARK                         _______ _______ _______ _____ _____    ______ ____
ROOT
ATOM      1  CA  UNL     1       1.417   2.032  -0.001  0.00  0.00    +0.191 C 
ENDROOT
BRANCH   1   2
ATOM      2  N   UNL     1       2.065   1.661  -1.261  0.00  0.00    -0.298 N 
ATOM      3  C   UNL     1       3.407   1.552  -1.322  0.00  0.00    +0.265 C 
ATOM      4  O   UNL     1       4.078   1.763  -0.334  0.00  0.00    -0.271 OA
ATOM      5  H   UNL     1       1.528   1.492  -2.051  0.00  0.00    +0.150 HD
BRANCH   3   6
ATOM      6  C   UNL     1       4.074   1.170  -2.618  0.00  0.00    +0.266 C 
ATOM      7 CL   UNL     1       5.860   1.109  -2.380  0.00  0.00    -0.074 Cl
ATOM      8 CL   UNL     1       3.482  -0.450  -3.143  0.00  0.00    -0.074 Cl
ATOM      9 CL   UNL     1       3.678   2.393  -3.882  0.00  0.00    -0.074 Cl
ENDBRANCH   3   6
ENDBRANCH   1   2
BRANCH   1  10
ATOM     10  C   UNL     1       1.400   3.534   0.132  0.00  0.00    +0.376 C 
ATOM     11  O   UNL     1       1.879   4.222  -0.738  0.00  0.00    -0.244 OA
ATOM     12  OXT UNL     1       0.851   4.106   1.215  0.00  0.00    -0.244 OA
ENDBRANCH   1  10
BRANCH   1  13
ATOM     13  C   UNL     1      -0.018   1.503   0.010  0.00  0.00    +0.075 C 
BRANCH  13  15
ATOM     14  C   UNL     1      -0.162  -0.846   1.050  0.00  0.00    +0.235 A 
ATOM     15  C   UNL     1       0.002  -0.004   0.002  0.00  0.00    +0.028 A 
ATOM     16  C   UNL     1       0.191  -0.867  -1.103  0.00  0.00    +0.152 A 
ATOM     17  N   UNL     1       0.134  -2.081  -0.635  0.00  0.00    -0.071 NA
ATOM     18  O   UNL     1      -0.065  -2.089   0.557  0.00  0.00    -0.362 OA
ATOM     19 BR   UNL     1       0.474  -0.358  -2.902  0.00  0.00    -0.025 Br
ENDBRANCH  13  15
ENDBRANCH   1  13
TORSDOF 5
