REMARK  Name = ZINC01710736
REMARK  4 active torsions:
REMARK  status: ('A' for Active; 'I' for Inactive)
REMARK    1  A    between atoms: C_10  and  N_16
REMARK    2  A    between atoms: C_13  and  O_15
REMARK    3  A    between atoms: N_16  and  C_17
REMARK    4  A    between atoms: C_17  and  C_18
REMARK                            x       y       z     vdW  Elec       q    Type
REMARK                         _______ _______ _______ _____ _____    ______ ____
ROOT
ATOM      1  C   UNL     1      -8.520  -5.033  -2.726  0.00  0.00    +0.001 A 
ATOM      2  C   UNL     1      -8.485  -4.996  -4.109  0.00  0.00    +0.000 A 
ATOM      3  C   UNL     1      -7.438  -4.368  -4.759  0.00  0.00    +0.007 A 
ATOM      4  C   UNL     1      -6.428  -3.776  -4.031  0.00  0.00    -0.007 A 
ATOM      5  C   UNL     1      -6.455  -3.808  -2.639  0.00  0.00    -0.012 A 
ATOM      6  C   UNL     1      -7.514  -4.444  -1.989  0.00  0.00    +0.009 A 
ATOM      7  C   UNL     1      -5.262  -3.106  -2.106  0.00  0.00    -0.011 A 
ATOM      8  C   UNL     1      -4.844  -2.873  -0.793  0.00  0.00    +0.011 A 
ATOM      9  C   UNL     1      -3.676  -2.182  -0.553  0.00  0.00    +0.023 A 
ATOM     10  C   UNL     1      -2.909  -1.715  -1.614  0.00  0.00    +0.028 A 
ATOM     11  C   UNL     1      -3.325  -1.940  -2.922  0.00  0.00    +0.030 A 
ATOM     12  C   UNL     1      -4.489  -2.635  -3.165  0.00  0.00    -0.005 A 
ATOM     13  C   UNL     1      -5.182  -3.032  -4.445  0.00  0.00    +0.176 C 
ENDROOT
BRANCH  13  14
ATOM     14  O   UNL     1      -5.532  -1.869  -5.198  0.00  0.00    -0.382 OA
ATOM     15  H   UNL     1      -6.007  -2.060  -6.019  0.00  0.00    +0.211 HD
ENDBRANCH  13  14
BRANCH  10  16
ATOM     16  N   UNL     1      -1.727  -1.016  -1.367  0.00  0.00    -0.340 N 
ATOM     17  H   UNL     1      -1.193  -0.690  -2.108  0.00  0.00    +0.146 HD
BRANCH  16  18
ATOM     18  C   UNL     1      -1.294  -0.774   0.011  0.00  0.00    +0.137 C 
BRANCH  18  19
ATOM     19  C   UNL     1       0.002  -0.004   0.002  0.00  0.00    -0.027 A 
ATOM     20  C   UNL     1       1.207  -0.682  -0.013  0.00  0.00    +0.009 A 
ATOM     21  C   UNL     1       2.398   0.019  -0.021  0.00  0.00    +0.050 A 
ATOM     22  C   UNL     1       2.387   1.405  -0.013  0.00  0.00    +0.166 A 
ATOM     23  C   UNL     1       1.173   2.088   0.002  0.00  0.00    +0.167 A 
ATOM     24  C   UNL     1      -0.017   1.378   0.010  0.00  0.00    +0.054 A 
ATOM     25  O   UNL     1       1.427   3.429   0.007  0.00  0.00    -0.453 OA
ATOM     26  C   UNL     1       2.797   3.562  -0.418  0.00  0.00    +0.466 C 
ATOM     27  O   UNL     1       3.401   2.318  -0.017  0.00  0.00    -0.453 OA
ENDBRANCH  18  19
ENDBRANCH  16  18
ENDBRANCH  10  16
TORSDOF 4
