REMARK  Name = ZINC39707878
REMARK  8 active torsions:
REMARK  status: ('A' for Active; 'I' for Inactive)
REMARK    1  A    between atoms: C_6  and  C_10
REMARK    2  A    between atoms: C_10  and  C_30
REMARK    3  A    between atoms: C_11  and  C_12
REMARK    4  A    between atoms: C_15  and  C_17
REMARK    5  A    between atoms: C_21  and  C_23
REMARK    6  A    between atoms: C_23  and  O_25
REMARK    7  A    between atoms: O_25  and  C_26
REMARK    8  A    between atoms: C_26  and  C_27
REMARK                            x       y       z     vdW  Elec       q    Type
REMARK                         _______ _______ _______ _____ _____    ______ ____
ROOT
ATOM      1  C   UNL     1       4.723  -4.287   0.112  0.00  0.00    +0.130 A 
ATOM      2  C   UNL     1       5.657  -5.275   0.360  0.00  0.00    +0.050 A 
ATOM      3  C   UNL     1       5.709  -5.441   1.747  0.00  0.00    +0.050 A 
ATOM      4  C   UNL     1       4.818  -4.561   2.291  0.00  0.00    +0.136 A 
ATOM      5  O   UNL     1       4.234  -3.867   1.298  0.00  0.00    -0.455 OA
ENDROOT
BRANCH   4   6
ATOM      6  C   UNL     1       4.545  -4.394   3.732  0.00  0.00    +0.018 A 
ATOM      7  C   UNL     1       5.231  -5.173   4.670  0.00  0.00    +0.013 A 
ATOM      8  C   UNL     1       4.978  -5.019   6.017  0.00  0.00    +0.021 A 
ATOM      9  C   UNL     1       4.045  -4.094   6.451  0.00  0.00    +0.055 A 
ATOM     10  C   UNL     1       3.351  -3.309   5.524  0.00  0.00    +0.078 A 
ATOM     11  C   UNL     1       3.607  -3.457   4.162  0.00  0.00    +0.028 A 
ATOM     12 CL   UNL     1       3.734  -3.908   8.149  0.00  0.00    -0.083 Cl
BRANCH  10  13
ATOM     13  C   UNL     1       2.355  -2.323   5.988  0.00  0.00    +0.342 C 
ATOM     14  O   UNL     1       2.137  -2.193   7.176  0.00  0.00    -0.245 OA
BRANCH  13  15
ATOM     15  O   UNL     1       1.688  -1.568   5.094  0.00  0.00    -0.446 OA
BRANCH  15  16
ATOM     16  C   UNL     1       0.738  -0.635   5.613  0.00  0.00    +0.350 C 
BRANCH  16  17
ATOM     17  C   UNL     1       0.111   0.097   4.500  0.00  0.00    +0.104 C 
ATOM     18  N   UNL     1      -0.374   0.661   3.642  0.00  0.00    -0.193 NA
ENDBRANCH  16  17
ENDBRANCH  15  16
ENDBRANCH  13  15
ENDBRANCH  10  13
ENDBRANCH   4   6
BRANCH   1  20
ATOM     19  C   UNL     1       3.333  -2.904  -1.274  0.00  0.00    +0.075 C 
ATOM     20  C   UNL     1       4.349  -3.796  -1.162  0.00  0.00    +0.064 C 
BRANCH  19  26
ATOM     21  C   UNL     1      -0.373   1.027   0.158  0.00  0.00    +0.002 A 
ATOM     22  C   UNL     1       0.752   1.618   0.759  0.00  0.00    +0.002 A 
ATOM     23  C   UNL     1       1.912   0.956   0.938  0.00  0.00    +0.027 A 
ATOM     24  C   UNL     1       2.026  -0.441   0.495  0.00  0.00    +0.060 A 
ATOM     25  N   UNL     1       2.997  -1.307   0.537  0.00  0.00    -0.359 N 
ATOM     26  C   UNL     1       2.503  -2.551  -0.066  0.00  0.00    +0.216 C 
ATOM     27  N   UNL     1       1.114  -2.295  -0.467  0.00  0.00    -0.359 N 
ATOM     28  C   UNL     1       0.834  -1.067  -0.140  0.00  0.00    +0.060 A 
ATOM     29  C   UNL     1      -0.377  -0.246  -0.283  0.00  0.00    +0.027 A 
ATOM     30  H   UNL     1       3.883  -1.157   0.901  0.00  0.00    +0.162 HD
ATOM     31  H   UNL     1       0.515  -2.926  -0.896  0.00  0.00    +0.162 HD
ENDBRANCH  19  26
BRANCH  19  32
ATOM     32  C   UNL     1       3.049  -2.298  -2.540  0.00  0.00    +0.099 C 
ATOM     33  N   UNL     1       2.823  -1.818  -3.544  0.00  0.00    -0.191 NA
ENDBRANCH  19  32
ENDBRANCH   1  20
TORSDOF 8
