REMARK  Name = ZINC44924432
REMARK  3 active torsions:
REMARK  status: ('A' for Active; 'I' for Inactive)
REMARK    1  A    between atoms: C_1  and  C_2
REMARK    2  A    between atoms: C_2  and  N_9
REMARK    3  A    between atoms: C_11  and  N_17
REMARK                            x       y       z     vdW  Elec       q    Type
REMARK                         _______ _______ _______ _____ _____    ______ ____
ROOT
ATOM      1  N   UNL     1       0.731  -0.456  -1.186  0.00  0.00    -0.321 N 
ATOM      2  C   UNL     1       0.286  -0.093  -2.456  0.00  0.00    +0.140 A 
ATOM      3  C   UNL     1       0.982  -0.532  -3.585  0.00  0.00    +0.066 A 
ATOM      4  C   UNL     1       0.525  -0.162  -4.843  0.00  0.00    +0.043 A 
ATOM      5  C   UNL     1      -0.612   0.633  -4.926  0.00  0.00    +0.038 A 
ATOM      6  C   UNL     1      -1.248   1.029  -3.766  0.00  0.00    +0.128 A 
ATOM      7  N   UNL     1      -0.795   0.658  -2.582  0.00  0.00    -0.238 NA
ATOM      8 BR   UNL     1      -1.280   1.169  -6.612  0.00  0.00    -0.049 Br
ATOM      9  H   UNL     1       1.523  -1.007  -1.089  0.00  0.00    +0.148 HD
ENDROOT
BRANCH   1  11
ATOM     10  C   UNL     1      -0.019   1.526   0.010  0.00  0.00    +0.033 C 
ATOM     11  C   UNL     1       0.002  -0.004   0.002  0.00  0.00    +0.051 C 
ATOM     12  C   UNL     1      -1.436  -0.513  -0.087  0.00  0.00    +0.049 C 
ATOM     13  C   UNL     1      -1.556  -1.909   0.586  0.00  0.00    +0.168 C 
ATOM     14  S   UNL     1      -0.454  -1.644   2.043  0.00  0.00    -0.029 S 
ATOM     15  O   UNL     1      -1.172  -0.949   3.053  0.00  0.00    -0.174 OA
ATOM     16  O   UNL     1       0.202  -2.864   2.361  0.00  0.00    -0.174 OA
ATOM     17  C   UNL     1       0.751  -0.495   1.257  0.00  0.00    +0.191 C 
ENDBRANCH   1  11
BRANCH   3  18
ATOM     18  N   UNL     1       2.123  -1.332  -3.451  0.00  0.00    -0.355 N 
ATOM     19  H   UNL     1       2.436  -1.586  -2.569  0.00  0.00    +0.142 HD
ATOM     20  H   UNL     1       2.600  -1.633  -4.240  0.00  0.00    +0.142 HD
ENDBRANCH   3  18
TORSDOF 2
