REMARK  Name = ZINC45060029
REMARK  6 active torsions:
REMARK  status: ('A' for Active; 'I' for Inactive)
REMARK    1  A    between atoms: C_1  and  C_2
REMARK    2  A    between atoms: C_5  and  C_7
REMARK    3  A    between atoms: N_9  and  C_10
REMARK    4  A    between atoms: N_9  and  C_11
REMARK    5  A    between atoms: C_11  and  C_12
REMARK    6  A    between atoms: C_12  and  N_14
REMARK                            x       y       z     vdW  Elec       q    Type
REMARK                         _______ _______ _______ _____ _____    ______ ____
ROOT
ATOM      1  C   UNL     1       1.314   0.159   2.237  0.00  0.00    +0.219 C 
ATOM      2  O   UNL     1       1.244   1.367   2.152  0.00  0.00    -0.275 OA
ATOM      3  N   UNL     1       1.940  -0.407   3.287  0.00  0.00    -0.298 N 
ATOM      4  C   UNL     1       2.025  -1.866   3.389  0.00  0.00    +0.132 C 
ENDROOT
BRANCH   1   8
ATOM      5  C   UNL     1      -0.019   1.526   0.010  0.00  0.00    +0.008 C 
ATOM      6  C   UNL     1       0.002  -0.004   0.002  0.00  0.00    -0.002 C 
ATOM      7  C   UNL     1      -0.828  -0.728   1.065  0.00  0.00    +0.017 C 
ATOM      8  C   UNL     1       0.700  -0.708   1.168  0.00  0.00    +0.078 C 
ENDBRANCH   1   8
BRANCH   3   9
ATOM      9  C   UNL     1       2.537   0.435   4.326  0.00  0.00    +0.165 C 
BRANCH   9  10
ATOM     10  C   UNL     1       1.517   0.704   5.402  0.00  0.00    +0.064 C 
ATOM     11  S   UNL     1       0.046   0.088   5.281  0.00  0.00    -0.039 S 
BRANCH  10  12
ATOM     12  N   UNL     1       1.845   1.462   6.467  0.00  0.00    -0.354 N 
ATOM     13  H   UNL     1       2.737   1.836   6.540  0.00  0.00    +0.143 HD
ATOM     14  H   UNL     1       1.188   1.635   7.160  0.00  0.00    +0.143 HD
ENDBRANCH  10  12
ENDBRANCH   9  10
ENDBRANCH   3   9
TORSDOF 4
