REMARK  Name = ZINC37001939
REMARK  6 active torsions:
REMARK  status: ('A' for Active; 'I' for Inactive)
REMARK    1  A    between atoms: C_2  and  C_16
REMARK    2  A    between atoms: C_6  and  N_7
REMARK    3  A    between atoms: C_8  and  C_10
REMARK    4  A    between atoms: C_10  and  C_11
REMARK    5  A    between atoms: C_11  and  C_12
REMARK    6  A    between atoms: C_12  and  N_13
REMARK                            x       y       z     vdW  Elec       q    Type
REMARK                         _______ _______ _______ _____ _____    ______ ____
ROOT
ATOM      1  C   UNL     1       0.069   1.233   0.625  0.00  0.00    +0.044 A 
ATOM      2  C   UNL     1       1.273   1.944   0.627  0.00  0.00    +0.100 A 
ATOM      3  C   UNL     1       2.404   1.397   0.008  0.00  0.00    +0.140 A 
ATOM      4  C   UNL     1       2.326   0.159  -0.601  0.00  0.00    +0.079 A 
ATOM      5  C   UNL     1       1.133  -0.542  -0.601  0.00  0.00    +0.147 A 
ATOM      6  C   UNL     1       0.003  -0.005   0.013  0.00  0.00    +0.070 A 
ATOM      7  F   UNL     1       1.063  -1.752  -1.198  0.00  0.00    -0.203 F 
ATOM      8  F   UNL     1       3.570   2.079   0.006  0.00  0.00    -0.205 F 
ENDROOT
BRANCH   6   9
ATOM      9  N   UNL     1      -1.203  -0.721   0.010  0.00  0.00    -0.283 N 
ATOM     10  C   UNL     1      -2.375  -0.066   0.126  0.00  0.00    +0.217 C 
ATOM     11  O   UNL     1      -2.395   1.147   0.133  0.00  0.00    -0.275 OA
ATOM     12  H   UNL     1      -1.193  -1.687  -0.077  0.00  0.00    +0.155 HD
BRANCH  10  13
ATOM     13  C   UNL     1      -3.662  -0.841   0.248  0.00  0.00    +0.094 C 
BRANCH  13  14
ATOM     14  C   UNL     1      -4.835   0.133   0.366  0.00  0.00    -0.010 C 
BRANCH  14  15
ATOM     15  C   UNL     1      -6.141  -0.654   0.489  0.00  0.00    -0.086 C 
BRANCH  15  16
ATOM     16  N   UNL     1      -7.268   0.282   0.602  0.00  0.00    +0.378 N 
ATOM     17  H   UNL     1      -8.130  -0.237   0.684  0.00  0.00    -0.090 HD
ATOM     18  H   UNL     1      -7.145   0.860   1.420  0.00  0.00    -0.090 HD
ATOM     19  H   UNL     1      -7.304   0.867  -0.220  0.00  0.00    -0.090 HD
ENDBRANCH  15  16
ENDBRANCH  14  15
ENDBRANCH  13  14
ENDBRANCH  10  13
ENDBRANCH   6   9
BRANCH   2  20
ATOM     20  C   UNL     1       1.352   3.263   1.276  0.00  0.00    +0.389 C 
ATOM     21  O   UNL     1       0.362   3.739   1.816  0.00  0.00    -0.240 OA
ATOM     22  O   UNL     1       2.406   3.883   1.276  0.00  0.00    -0.240 OA
ENDBRANCH   2  20
TORSDOF 6
