REMARK  Name = ZINC40760218
REMARK  6 active torsions:
REMARK  status: ('A' for Active; 'I' for Inactive)
REMARK    1  A    between atoms: C_1  and  C_2
REMARK    2  A    between atoms: C_2  and  C_4
REMARK    3  A    between atoms: C_2  and  N_10
REMARK    4  A    between atoms: C_12  and  N_26
REMARK    5  A    between atoms: C_13  and  N_17
REMARK    6  A    between atoms: N_17  and  C_18
REMARK                            x       y       z     vdW  Elec       q    Type
REMARK                         _______ _______ _______ _____ _____    ______ ____
ROOT
ATOM      1  N   UNL     1       0.867   0.379   1.558  0.00  0.00    -0.321 N 
ATOM      2  C   UNL     1       2.210   0.039   1.446  0.00  0.00    +0.145 A 
ATOM      3  C   UNL     1       2.860  -0.635   2.482  0.00  0.00    +0.105 A 
ATOM      4  C   UNL     1       4.209  -0.953   2.317  0.00  0.00    +0.149 A 
ATOM      5  N   UNL     1       4.820  -0.603   1.187  0.00  0.00    -0.219 NA
ATOM      6  C   UNL     1       4.170   0.033   0.234  0.00  0.00    +0.225 A 
ATOM      7  N   UNL     1       2.895   0.347   0.348  0.00  0.00    -0.219 NA
ATOM      8  H   UNL     1       0.375   0.151   2.362  0.00  0.00    +0.148 HD
ENDROOT
BRANCH   3   9
ATOM      9  N   UNL     1       2.175  -0.985   3.656  0.00  0.00    -0.353 N 
ATOM     10  H   UNL     1       1.237  -0.757   3.757  0.00  0.00    +0.143 HD
ATOM     11  H   UNL     1       2.639  -1.453   4.367  0.00  0.00    +0.143 HD
ENDBRANCH   3   9
BRANCH   1  13
ATOM     12  C   UNL     1       0.436   2.586   0.598  0.00  0.00    +0.033 C 
ATOM     13  C   UNL     1       0.195   1.081   0.463  0.00  0.00    +0.099 C 
BRANCH  13  14
ATOM     14  C   UNL     1      -1.285   0.802   0.520  0.00  0.00    -0.028 A 
ATOM     15  C   UNL     1      -1.935   0.767   1.739  0.00  0.00    +0.005 A 
ATOM     16  C   UNL     1      -3.292   0.511   1.792  0.00  0.00    +0.000 A 
ATOM     17  C   UNL     1      -4.000   0.290   0.625  0.00  0.00    +0.000 A 
ATOM     18  C   UNL     1      -3.350   0.327  -0.595  0.00  0.00    +0.000 A 
ATOM     19  C   UNL     1      -1.993   0.587  -0.648  0.00  0.00    +0.005 A 
ENDBRANCH  13  14
ENDBRANCH   1  13
BRANCH   4  20
ATOM     20  N   UNL     1       4.904  -1.624   3.317  0.00  0.00    -0.297 N 
ATOM     21  H   UNL     1       4.431  -1.960   4.094  0.00  0.00    +0.154 HD
BRANCH  20  22
ATOM     22  C   UNL     1       6.284  -1.814   3.202  0.00  0.00    +0.052 A 
ATOM     23  C   UNL     1       7.041  -0.961   2.409  0.00  0.00    +0.025 A 
ATOM     24  C   UNL     1       8.404  -1.152   2.297  0.00  0.00    +0.003 A 
ATOM     25  C   UNL     1       9.017  -2.190   2.973  0.00  0.00    +0.021 A 
ATOM     26  C   UNL     1       8.268  -3.043   3.765  0.00  0.00    +0.061 A 
ATOM     27  C   UNL     1       6.903  -2.854   3.886  0.00  0.00    +0.080 A 
ATOM     28 CL   UNL     1       5.963  -3.919   4.884  0.00  0.00    -0.080 Cl
ATOM     29 CL   UNL     1       9.042  -4.346   4.612  0.00  0.00    -0.082 Cl
ENDBRANCH  20  22
ENDBRANCH   4  20
TORSDOF 5
