REMARK  Name = ZINC44924267
REMARK  5 active torsions:
REMARK  status: ('A' for Active; 'I' for Inactive)
REMARK    1  A    between atoms: C_1  and  C_2
REMARK    2  A    between atoms: C_6  and  N_12
REMARK    3  A    between atoms: C_7  and  N_11
REMARK    4  A    between atoms: N_12  and  C_13
REMARK    5  A    between atoms: C_13  and  C_20
REMARK                            x       y       z     vdW  Elec       q    Type
REMARK                         _______ _______ _______ _____ _____    ______ ____
ROOT
ATOM      1  C   UNL     1      -0.350   1.687  -0.007  0.00  0.00    +0.073 C 
ATOM      2  C   UNL     1      -0.255   0.183   0.025  0.00  0.00    +0.076 A 
ATOM      3  N   UNL     1      -1.229  -0.678  -0.007  0.00  0.00    -0.244 NA
ATOM      4  C   UNL     1      -1.013  -2.010   0.028  0.00  0.00    +0.080 A 
ATOM      5  C   UNL     1      -1.939  -3.075   0.002  0.00  0.00    +0.053 A 
ATOM      6  C   UNL     1      -1.505  -4.379   0.048  0.00  0.00    +0.051 A 
ATOM      7  C   UNL     1      -0.141  -4.687   0.121  0.00  0.00    +0.047 A 
ATOM      8  C   UNL     1       0.787  -3.658   0.147  0.00  0.00    +0.041 A 
ATOM      9  C   UNL     1       0.355  -2.354   0.101  0.00  0.00    +0.041 A 
ATOM     10  S   UNL     1       1.136  -0.761   0.103  0.00  0.00    -0.072 S 
ENDROOT
BRANCH   7  11
ATOM     11  N   UNL     1       0.281  -6.022   0.167  0.00  0.00    -0.357 N 
ATOM     12  H   UNL     1      -0.373  -6.738   0.149  0.00  0.00    +0.142 HD
ATOM     13  H   UNL     1       1.227  -6.230   0.217  0.00  0.00    +0.142 HD
ENDBRANCH   7  11
BRANCH   6  14
ATOM     14  N   UNL     1      -2.444  -5.419   0.022  0.00  0.00    -0.335 N 
ATOM     15  H   UNL     1      -2.147  -6.339  -0.050  0.00  0.00    +0.147 HD
BRANCH  14  16
ATOM     16  C   UNL     1      -3.875  -5.115   0.105  0.00  0.00    +0.050 C 
ATOM     17  C   UNL     1      -4.116  -4.216   1.317  0.00  0.00    +0.049 C 
ATOM     18  C   UNL     1      -5.553  -4.429   1.869  0.00  0.00    +0.168 C 
ATOM     19  S   UNL     1      -5.689  -6.260   1.675  0.00  0.00    -0.029 S 
ATOM     20  O   UNL     1      -7.034  -6.599   1.369  0.00  0.00    -0.174 OA
ATOM     21  O   UNL     1      -5.034  -6.896   2.764  0.00  0.00    -0.174 OA
ATOM     22  C   UNL     1      -4.659  -6.441   0.159  0.00  0.00    +0.191 C 
ATOM     23  C   UNL     1      -4.287  -4.353  -1.156  0.00  0.00    +0.033 C 
ENDBRANCH  14  16
ENDBRANCH   6  14
TORSDOF 3
