REMARK  Name = ZINC10464522
REMARK  6 active torsions:
REMARK  status: ('A' for Active; 'I' for Inactive)
REMARK    1  A    between atoms: C_1  and  C_2
REMARK    2  A    between atoms: N_4  and  C_5
REMARK    3  A    between atoms: C_8  and  N_12
REMARK    4  A    between atoms: N_15  and  C_16
REMARK    5  A    between atoms: C_21  and  O_22
REMARK    6  A    between atoms: O_22  and  C_23
REMARK                            x       y       z     vdW  Elec       q    Type
REMARK                         _______ _______ _______ _____ _____    ______ ____
ROOT
ATOM      1  N   UNL     1      -6.155  -0.660  -0.161  0.00  0.00    -0.269 N 
ATOM      2  C   UNL     1      -7.274   0.068  -0.345  0.00  0.00    +0.308 C 
ATOM      3  O   UNL     1      -7.209   1.282  -0.388  0.00  0.00    -0.252 OA
ATOM      4  N   UNL     1      -8.465  -0.548  -0.483  0.00  0.00    -0.266 N 
ATOM      5  H   UNL     1      -6.215  -1.623  -0.060  0.00  0.00    +0.156 HD
ATOM      6  H   UNL     1      -8.525  -1.512  -0.390  0.00  0.00    +0.156 HD
ENDROOT
BRANCH   1  10
ATOM      7  C   UNL     1      -2.437   1.224  -0.021  0.00  0.00    +0.052 A 
ATOM      8  C   UNL     1      -2.556  -0.036  -0.593  0.00  0.00    +0.026 A 
ATOM      9  C   UNL     1      -3.787  -0.660  -0.639  0.00  0.00    +0.025 A 
ATOM     10  C   UNL     1      -4.907  -0.027  -0.114  0.00  0.00    +0.036 A 
ATOM     11  C   UNL     1      -4.788   1.233   0.457  0.00  0.00    +0.045 A 
ATOM     12  C   UNL     1      -3.556   1.855   0.508  0.00  0.00    +0.064 A 
ATOM     13 CL   UNL     1      -3.406   3.427   1.229  0.00  0.00    -0.082 Cl
BRANCH   7  17
ATOM     14  C   UNL     1       0.992   2.450  -0.983  0.00  0.00    +0.109 C 
ATOM     15  C   UNL     1      -0.306   1.685  -0.980  0.00  0.00    +0.214 C 
ATOM     16  O   UNL     1      -0.561   0.919  -1.885  0.00  0.00    -0.276 OA
ATOM     17  N   UNL     1      -1.187   1.856   0.026  0.00  0.00    -0.285 N 
ATOM     18  H   UNL     1      -0.956   2.417   0.783  0.00  0.00    +0.155 HD
ENDBRANCH   7  17
ENDBRANCH   1  10
BRANCH   4  19
ATOM     19  C   UNL     1      -9.615   0.203  -0.759  0.00  0.00    +0.077 A 
ATOM     20  C   UNL     1      -9.680   1.538  -0.386  0.00  0.00    +0.027 A 
ATOM     21  C   UNL     1     -10.814   2.278  -0.664  0.00  0.00    +0.002 A 
ATOM     22  C   UNL     1     -11.888   1.689  -1.304  0.00  0.00    +0.004 A 
ATOM     23  C   UNL     1     -11.833   0.358  -1.674  0.00  0.00    +0.047 A 
ATOM     24  C   UNL     1     -10.698  -0.390  -1.403  0.00  0.00    +0.141 A 
BRANCH  24  25
ATOM     25  O   UNL     1     -10.643  -1.699  -1.766  0.00  0.00    -0.493 OA
ATOM     26  C   UNL     1     -11.790  -2.240  -2.423  0.00  0.00    +0.277 C 
ENDBRANCH  24  25
ENDBRANCH   4  19
TORSDOF 4
