REMARK  Name = ZINC11859193
REMARK  7 active torsions:
REMARK  status: ('A' for Active; 'I' for Inactive)
REMARK    1  A    between atoms: C_1  and  C_2
REMARK    2  A    between atoms: C_2  and  O_3
REMARK    3  A    between atoms: O_3  and  C_4
REMARK    4  A    between atoms: C_4  and  C_6
REMARK    5  A    between atoms: C_8  and  C_20
REMARK    6  A    between atoms: C_14  and  C_15
REMARK    7  A    between atoms: C_14  and  O_19
REMARK                            x       y       z     vdW  Elec       q    Type
REMARK                         _______ _______ _______ _____ _____    ______ ____
ROOT
ATOM      1  C   UNL     1      -0.757   3.420   1.277  0.00  0.00    +0.181 C 
ATOM      2  C   UNL     1      -1.601   3.900   0.088  0.00  0.00    +0.125 C 
ATOM      3  N   UNL     1      -2.928   3.287   0.163  0.00  0.00    -0.292 N 
ATOM      4  C   UNL     1      -3.112   2.088   0.735  0.00  0.00    +0.302 C 
ATOM      5  O   UNL     1      -4.234   1.619   0.761  0.00  0.00    -0.253 OA
ATOM      6  N   UNL     1      -2.107   1.385   1.278  0.00  0.00    -0.264 N 
ATOM      7  C   UNL     1      -0.733   1.888   1.268  0.00  0.00    +0.246 C 
ATOM      8  H   UNL     1      -3.690   3.758  -0.209  0.00  0.00    +0.151 HD
ATOM      9  H   UNL     1      -2.296   0.525   1.687  0.00  0.00    +0.153 HD
ENDROOT
BRANCH   2  10
ATOM     10  C   UNL     1      -1.735   5.400   0.137  0.00  0.00    -0.007 A 
ATOM     11  C   UNL     1      -2.843   5.976   0.730  0.00  0.00    +0.007 A 
ATOM     12  C   UNL     1      -2.964   7.352   0.780  0.00  0.00    +0.002 A 
ATOM     13  C   UNL     1      -1.982   8.153   0.228  0.00  0.00    +0.021 A 
ATOM     14  C   UNL     1      -0.876   7.579  -0.371  0.00  0.00    +0.060 A 
ATOM     15  C   UNL     1      -0.752   6.200  -0.416  0.00  0.00    +0.064 A 
ATOM     16 CL   UNL     1       0.636   5.477  -1.167  0.00  0.00    -0.082 Cl
ATOM     17 CL   UNL     1       0.357   8.585  -1.065  0.00  0.00    -0.082 Cl
ENDBRANCH   2  10
BRANCH   7  18
ATOM     18  C   UNL     1      -0.017   1.395   0.010  0.00  0.00    +0.436 C 
ATOM     19  F   UNL     1       0.002  -0.004   0.002  0.00  0.00    -0.166 F 
ATOM     20  F   UNL     1       1.296   1.879  -0.000  0.00  0.00    -0.166 F 
ATOM     21  F   UNL     1      -0.694   1.858  -1.124  0.00  0.00    -0.166 F 
ENDBRANCH   7  18
BRANCH   1  22
ATOM     22  C   UNL     1      -1.371   3.910   2.563  0.00  0.00    +0.317 C 
ATOM     23  O   UNL     1      -2.369   4.590   2.535  0.00  0.00    -0.250 OA
BRANCH  22  24
ATOM     24  O   UNL     1      -0.809   3.591   3.739  0.00  0.00    -0.465 OA
BRANCH  24  26
ATOM     25  C   UNL     1      -0.676   3.633   6.170  0.00  0.00    +0.048 C 
ATOM     26  C   UNL     1      -1.454   4.097   4.937  0.00  0.00    +0.229 C 
ENDBRANCH  24  26
ENDBRANCH  22  24
ENDBRANCH   1  22
BRANCH   7  27
ATOM     27  O   UNL     1      -0.043   1.415   2.427  0.00  0.00    -0.364 OA
ATOM     28  H   UNL     1       0.009   0.452   2.488  0.00  0.00    +0.212 HD
ENDBRANCH   7  27
TORSDOF 6
