REMARK  Name = ZINC50651545
REMARK  4 active torsions:
REMARK  status: ('A' for Active; 'I' for Inactive)
REMARK    1  A    between atoms: C_1  and  C_2
REMARK    2  A    between atoms: C_2  and  C_3
REMARK    3  A    between atoms: N_9  and  S_10
REMARK    4  A    between atoms: S_10  and  C_13
REMARK                            x       y       z     vdW  Elec       q    Type
REMARK                         _______ _______ _______ _____ _____    ______ ____
ROOT
ATOM      1  S   UNL     1       2.606   1.107   0.038  0.00  0.00    +0.063 S 
ATOM      2  O   UNL     1       3.997   0.899  -0.165  0.00  0.00    -0.153 OA
ATOM      3  O   UNL     1       1.649   0.921  -0.996  0.00  0.00    -0.153 OA
ENDROOT
BRANCH   1   4
ATOM      4  C   UNL     1       2.421   2.765   0.603  0.00  0.00    +0.124 A 
ATOM      5  C   UNL     1       1.271   3.484   0.304  0.00  0.00    +0.033 A 
ATOM      6  C   UNL     1       1.166   4.783   0.767  0.00  0.00    +0.045 A 
ATOM      7  C   UNL     1       2.210   5.323   1.512  0.00  0.00    +0.116 A 
ATOM      8  N   UNL     1       3.291   4.605   1.776  0.00  0.00    -0.239 NA
ATOM      9  C   UNL     1       3.416   3.361   1.352  0.00  0.00    +0.141 A 
ATOM     10  N   UNL     1       2.118   6.627   1.983  0.00  0.00    -0.343 N 
ATOM     11  H   UNL     1       1.328   7.157   1.792  0.00  0.00    +0.144 HD
ATOM     12  H   UNL     1       2.843   7.008   2.503  0.00  0.00    +0.144 HD
ENDBRANCH   1   4
BRANCH   1  18
ATOM     13  C   UNL     1       0.736  -0.165   1.545  0.00  0.00    +0.080 C 
ATOM     14  C   UNL     1       0.524  -1.681   1.578  0.00  0.00    +0.021 C 
ATOM     15  C   UNL     1       1.484  -2.304   2.595  0.00  0.00    +0.003 C 
ATOM     16  C   UNL     1       2.928  -2.027   2.172  0.00  0.00    +0.017 C 
ATOM     17  C   UNL     1       3.167  -0.514   2.146  0.00  0.00    +0.110 C 
ATOM     18  N   UNL     1       2.155   0.112   1.283  0.00  0.00    -0.174 NA
BRANCH  13  20
ATOM     19  C   UNL     1      -1.600   0.269   0.772  0.00  0.00    +0.005 C 
ATOM     20  C   UNL     1      -0.119   0.448   0.434  0.00  0.00    +0.017 C 
ENDBRANCH  13  20
ENDBRANCH   1  18
TORSDOF 3
