REMARK  Name = ZINC35288878
REMARK  8 active torsions:
REMARK  status: ('A' for Active; 'I' for Inactive)
REMARK    1  A    between atoms: C_1  and  C_2
REMARK    2  A    between atoms: C_7  and  N_8
REMARK    3  A    between atoms: C_9  and  C_11
REMARK    4  A    between atoms: C_12  and  N_28
REMARK    5  A    between atoms: C_17  and  O_26
REMARK    6  A    between atoms: C_18  and  O_24
REMARK    7  A    between atoms: O_24  and  C_25
REMARK    8  A    between atoms: O_26  and  C_27
REMARK                            x       y       z     vdW  Elec       q    Type
REMARK                         _______ _______ _______ _____ _____    ______ ____
ROOT
ATOM      1  C   UNL     1      -0.162   0.006   4.803  0.00  0.00    +0.097 A 
ATOM      2  C   UNL     1      -0.249  -0.510   6.075  0.00  0.00    +0.053 A 
ATOM      3  C   UNL     1      -0.349   0.417   7.195  0.00  0.00    +0.028 A 
ATOM      4  C   UNL     1      -0.446   0.105   8.566  0.00  0.00    +0.022 A 
ATOM      5  C   UNL     1      -0.534   1.147   9.490  0.00  0.00    +0.003 A 
ATOM      6  C   UNL     1      -0.632   0.903  10.874  0.00  0.00    +0.059 A 
ATOM      7  C   UNL     1      -0.715   1.953  11.737  0.00  0.00    +0.162 A 
ATOM      8  C   UNL     1      -0.704   3.279  11.279  0.00  0.00    +0.163 A 
ATOM      9  C   UNL     1      -0.610   3.574   9.950  0.00  0.00    +0.075 A 
ATOM     10  C   UNL     1      -0.522   2.532   9.013  0.00  0.00    +0.051 A 
ATOM     11  N   UNL     1      -0.428   2.771   7.704  0.00  0.00    -0.349 N 
ATOM     12  C   UNL     1      -0.346   1.791   6.836  0.00  0.00    +0.088 A 
ATOM     13  S   UNL     1      -0.205   1.768   5.064  0.00  0.00    -0.064 S 
ATOM     14  H   UNL     1      -0.420   3.688   7.387  0.00  0.00    +0.166 HD
ENDROOT
BRANCH   1  16
ATOM     15  N   UNL     1       0.025  -0.015   2.416  0.00  0.00    -0.281 N 
ATOM     16  C   UNL     1      -0.057  -0.695   3.577  0.00  0.00    +0.257 C 
ATOM     17  O   UNL     1      -0.040  -1.913   3.572  0.00  0.00    -0.269 OA
ATOM     18  H   UNL     1       0.077   0.953   2.424  0.00  0.00    +0.155 HD
BRANCH  15  25
ATOM     19  C   UNL     1      -1.266   1.182   0.181  0.00  0.00    +0.045 C 
ATOM     20  C   UNL     1      -0.585  -0.158   0.085  0.00  0.00    -0.029 A 
ATOM     21  C   UNL     1      -0.570  -0.841  -1.116  0.00  0.00    +0.005 A 
ATOM     22  C   UNL     1       0.055  -2.071  -1.206  0.00  0.00    +0.000 A 
ATOM     23  C   UNL     1       0.667  -2.622  -0.095  0.00  0.00    +0.002 A 
ATOM     24  C   UNL     1       0.656  -1.945   1.108  0.00  0.00    +0.023 A 
ATOM     25  C   UNL     1       0.033  -0.706   1.201  0.00  0.00    +0.037 A 
ENDBRANCH  15  25
ENDBRANCH   1  16
BRANCH   2  26
ATOM     26  N   UNL     1      -0.241  -1.881   6.286  0.00  0.00    -0.356 N 
ATOM     27  H   UNL     1      -0.174  -2.488   5.532  0.00  0.00    +0.142 HD
ATOM     28  H   UNL     1      -0.303  -2.233   7.188  0.00  0.00    +0.142 HD
ENDBRANCH   2  26
BRANCH   8  29
ATOM     29  O   UNL     1      -0.790   4.293  12.180  0.00  0.00    -0.491 OA
ATOM     30  C   UNL     1      -0.775   5.624  11.661  0.00  0.00    +0.277 C 
ENDBRANCH   8  29
BRANCH   7  31
ATOM     31  O   UNL     1      -0.810   1.711  13.072  0.00  0.00    -0.491 OA
ATOM     32  C   UNL     1      -0.817   0.343  13.484  0.00  0.00    +0.277 C 
ENDBRANCH   7  31
TORSDOF 5
