REMARK  Name = ZINC05812650
REMARK  3 active torsions:
REMARK  status: ('A' for Active; 'I' for Inactive)
REMARK    1  A    between atoms: C_3  and  O_20
REMARK    2  A    between atoms: C_6  and  O_7
REMARK    3  A    between atoms: C_11  and  C_14
REMARK                            x       y       z     vdW  Elec       q    Type
REMARK                         _______ _______ _______ _____ _____    ______ ____
ROOT
ATOM      1  C   UNL     1       3.744  -2.043  -0.044  0.00  0.00    +0.050 A 
ATOM      2  C   UNL     1       2.574  -2.765  -0.037  0.00  0.00    +0.050 A 
ATOM      3  C   UNL     1       1.338  -2.112  -0.021  0.00  0.00    +0.129 A 
ATOM      4  C   UNL     1       1.291  -0.718  -0.014  0.00  0.00    +0.078 A 
ATOM      5  C   UNL     1       2.490   0.023  -0.022  0.00  0.00    +0.077 A 
ATOM      6  C   UNL     1       3.716  -0.645  -0.036  0.00  0.00    +0.129 A 
ATOM      7  C   UNL     1       2.431   1.495  -0.013  0.00  0.00    +0.191 C 
ATOM      8  O   UNL     1       3.457   2.147  -0.020  0.00  0.00    -0.287 OA
ATOM      9  C   UNL     1       1.123   2.174   0.003  0.00  0.00    +0.061 C 
ATOM     10  C   UNL     1      -0.018   1.470   0.010  0.00  0.00    +0.032 C 
ATOM     11  C   UNL     1       0.002  -0.004   0.002  0.00  0.00    +0.196 C 
ATOM     12  O   UNL     1      -1.041  -0.629   0.008  0.00  0.00    -0.287 OA
ENDROOT
BRANCH  10  13
ATOM     13  C   UNL     1      -1.339   2.195   0.020  0.00  0.00    +0.152 C 
ATOM     14  C   UNL     1      -2.099   1.918  -1.291  0.00  0.00    +0.039 C 
ATOM     15  C   UNL     1      -3.433   1.281  -0.829  0.00  0.00    +0.031 C 
ATOM     16  C   UNL     1      -3.525   1.754   0.644  0.00  0.00    +0.161 C 
ATOM     17  O   UNL     1      -2.155   1.709   1.099  0.00  0.00    -0.372 OA
ENDBRANCH  10  13
BRANCH   6  18
ATOM     18  O   UNL     1       4.874   0.059  -0.044  0.00  0.00    -0.506 OA
ATOM     19  H   UNL     1       5.218   0.259   0.837  0.00  0.00    +0.292 HD
ENDBRANCH   6  18
BRANCH   3  20
ATOM     20  O   UNL     1       0.190  -2.832  -0.014  0.00  0.00    -0.506 OA
ATOM     21  H   UNL     1      -0.152  -3.036  -0.895  0.00  0.00    +0.292 HD
ENDBRANCH   3  20
TORSDOF 3
