REMARK  Name = ZINC63271409
REMARK  8 active torsions:
REMARK  status: ('A' for Active; 'I' for Inactive)
REMARK    1  A    between atoms: C_1  and  C_2
REMARK    2  A    between atoms: C_2  and  C_3
REMARK    3  A    between atoms: C_2  and  N_4
REMARK    4  A    between atoms: N_7  and  N_8
REMARK    5  A    between atoms: C_9  and  C_11
REMARK    6  A    between atoms: N_14  and  S_17
REMARK    7  A    between atoms: S_17  and  C_20
REMARK    8  A    between atoms: C_21  and  C_22
REMARK                            x       y       z     vdW  Elec       q    Type
REMARK                         _______ _______ _______ _____ _____    ______ ____
ROOT
ATOM      1  C   UNL     1      -6.316  -1.035   0.628  0.00  0.00    +0.079 C 
ATOM      2  C   UNL     1      -6.410   0.276  -0.157  0.00  0.00    +0.030 C 
ATOM      3  C   UNL     1      -7.517   1.148   0.444  0.00  0.00    +0.110 C 
ATOM      4  N   UNL     1      -8.765   0.372   0.475  0.00  0.00    -0.177 NA
ATOM      5  C   UNL     1      -8.762  -0.945   1.127  0.00  0.00    +0.110 C 
ATOM      6  C   UNL     1      -7.641  -1.793   0.518  0.00  0.00    +0.030 C 
ENDROOT
BRANCH   1   8
ATOM      7  N   UNL     1      -3.940  -1.414   0.052  0.00  0.00    -0.233 N 
ATOM      8  C   UNL     1      -5.205  -1.881   0.061  0.00  0.00    +0.232 C 
ATOM      9  O   UNL     1      -5.449  -2.981  -0.386  0.00  0.00    -0.274 OA
ATOM     10  H   UNL     1      -3.745  -0.534   0.409  0.00  0.00    +0.173 HD
BRANCH   7  14
ATOM     11  N   UNL     1      -1.372  -0.511   0.012  0.00  0.00    -0.296 N 
ATOM     12  C   UNL     1      -1.643  -1.734  -0.485  0.00  0.00    +0.316 C 
ATOM     13  O   UNL     1      -0.747  -2.417  -0.942  0.00  0.00    -0.251 OA
ATOM     14  N   UNL     1      -2.908  -2.201  -0.475  0.00  0.00    -0.218 N 
ATOM     15  H   UNL     1      -2.087   0.033   0.377  0.00  0.00    +0.151 HD
ATOM     16  H   UNL     1      -3.103  -3.081  -0.833  0.00  0.00    +0.174 HD
BRANCH  11  18
ATOM     17  C   UNL     1      -0.019   1.526   0.010  0.00  0.00    +0.027 C 
ATOM     18  C   UNL     1       0.002  -0.004   0.002  0.00  0.00    +0.068 C 
ATOM     19  C   UNL     1       0.742  -0.511   1.242  0.00  0.00    +0.027 C 
ENDBRANCH  11  18
ENDBRANCH   7  14
ENDBRANCH   1   8
BRANCH   4  20
ATOM     20  S   UNL     1     -10.148   0.972  -0.210  0.00  0.00    +0.054 S 
ATOM     21  O   UNL     1     -11.235   0.325   0.437  0.00  0.00    -0.153 OA
ATOM     22  O   UNL     1     -10.009   2.386  -0.235  0.00  0.00    -0.153 OA
BRANCH  20  23
ATOM     23  C   UNL     1     -10.171   0.439  -1.889  0.00  0.00    +0.153 C 
ATOM     24  C   UNL     1     -11.114  -0.394  -2.307  0.00  0.00    +0.028 C 
BRANCH  24  25
ATOM     25  C   UNL     1     -11.134  -0.841  -3.716  0.00  0.00    -0.024 A 
ATOM     26  C   UNL     1     -10.158  -0.394  -4.606  0.00  0.00    +0.008 A 
ATOM     27  C   UNL     1     -10.182  -0.815  -5.920  0.00  0.00    +0.001 A 
ATOM     28  C   UNL     1     -11.171  -1.679  -6.354  0.00  0.00    +0.000 A 
ATOM     29  C   UNL     1     -12.142  -2.126  -5.476  0.00  0.00    +0.001 A 
ATOM     30  C   UNL     1     -12.126  -1.717  -4.159  0.00  0.00    +0.008 A 
ENDBRANCH  24  25
ENDBRANCH  20  23
ENDBRANCH   4  20
TORSDOF 6
