REMARK  Name = ZINC32952233
REMARK  7 active torsions:
REMARK  status: ('A' for Active; 'I' for Inactive)
REMARK    1  A    between atoms: C_1  and  C_2
REMARK    2  A    between atoms: C_2  and  O_3
REMARK    3  A    between atoms: O_3  and  C_4
REMARK    4  A    between atoms: C_9  and  N_10
REMARK    5  A    between atoms: C_11  and  C_13
REMARK    6  A    between atoms: C_14  and  N_26
REMARK    7  A    between atoms: N_15  and  C_19
REMARK                            x       y       z     vdW  Elec       q    Type
REMARK                         _______ _______ _______ _____ _____    ______ ____
ROOT
ATOM      1  C   UNL     1       3.268  -1.095  -5.383  0.00  0.00    +0.115 A 
ATOM      2  C   UNL     1       4.019  -1.393  -6.493  0.00  0.00    +0.121 A 
ATOM      3  N   UNL     1       4.511  -0.363  -7.214  0.00  0.00    -0.285 N 
ATOM      4  C   UNL     1       4.255   0.907  -6.831  0.00  0.00    +0.132 A 
ATOM      5  S   UNL     1       4.759   2.367  -7.569  0.00  0.00    -0.024 S 
ATOM      6  S   UNL     1       3.283   0.690  -5.411  0.00  0.00    -0.055 S 
ENDROOT
BRANCH   3   7
ATOM      7  C   UNL     1       5.285  -0.611  -8.356  0.00  0.00    +0.049 A 
ATOM      8  C   UNL     1       6.522  -1.231  -8.237  0.00  0.00    +0.027 A 
ATOM      9  C   UNL     1       7.280  -1.478  -9.365  0.00  0.00    +0.022 A 
ATOM     10  C   UNL     1       6.813  -1.099 -10.611  0.00  0.00    +0.041 A 
ATOM     11  C   UNL     1       5.584  -0.476 -10.732  0.00  0.00    +0.022 A 
ATOM     12  C   UNL     1       4.819  -0.231  -9.608  0.00  0.00    +0.027 A 
ATOM     13 CL   UNL     1       7.772  -1.406 -12.026  0.00  0.00    -0.084 Cl
ENDBRANCH   3   7
BRANCH   1  15
ATOM     14  N   UNL     1       1.942  -1.468  -3.430  0.00  0.00    -0.278 N 
ATOM     15  C   UNL     1       2.644  -1.968  -4.466  0.00  0.00    +0.258 C 
ATOM     16  O   UNL     1       2.739  -3.174  -4.612  0.00  0.00    -0.269 OA
ATOM     17  H   UNL     1       1.780  -0.383  -3.348  0.00  0.00    +0.155 HD
BRANCH  14  23
ATOM     18  C   UNL     1       0.315  -1.944  -1.702  0.00  0.00    +0.142 A 
ATOM     19  C   UNL     1      -0.200  -2.802  -0.745  0.00  0.00    +0.047 A 
ATOM     20  C   UNL     1       0.387  -4.036  -0.535  0.00  0.00    +0.004 A 
ATOM     21  C   UNL     1       1.488  -4.418  -1.279  0.00  0.00    +0.002 A 
ATOM     22  C   UNL     1       2.008  -3.567  -2.237  0.00  0.00    +0.027 A 
ATOM     23  C   UNL     1       1.421  -2.329  -2.456  0.00  0.00    +0.076 A 
BRANCH  18  24
ATOM     24  O   UNL     1      -0.261  -0.730  -1.909  0.00  0.00    -0.490 OA
BRANCH  24  26
ATOM     25  C   UNL     1      -1.903   0.990  -1.477  0.00  0.00    +0.048 C 
ATOM     26  C   UNL     1      -1.395  -0.404  -1.104  0.00  0.00    +0.226 C 
ENDBRANCH  24  26
ENDBRANCH  18  24
ENDBRANCH  14  23
ENDBRANCH   1  15
BRANCH   2  27
ATOM     27  N   UNL     1       4.263  -2.699  -6.859  0.00  0.00    -0.343 N 
ATOM     28  H   UNL     1       4.867  -2.917  -7.752  0.00  0.00    +0.144 HD
ATOM     29  H   UNL     1       3.852  -3.524  -6.258  0.00  0.00    +0.144 HD
ENDBRANCH   2  27
TORSDOF 6
