REMARK  Name = ZINC13567655
REMARK  7 active torsions:
REMARK  status: ('A' for Active; 'I' for Inactive)
REMARK    1  A    between atoms: C_1  and  C_2
REMARK    2  A    between atoms: C_2  and  C_35
REMARK    3  A    between atoms: N_16  and  C_19
REMARK    4  A    between atoms: C_19  and  C_20
REMARK    5  A    between atoms: C_22  and  C_33
REMARK    6  A    between atoms: C_23  and  N_32
REMARK    7  A    between atoms: N_24  and  C_25
REMARK                            x       y       z     vdW  Elec       q    Type
REMARK                         _______ _______ _______ _____ _____    ______ ____
ROOT
ATOM      1  C   UNL     1       3.815  -3.500  -2.595  0.00  0.00    +0.011 C 
ATOM      2  C   UNL     1       4.556  -2.897  -1.399  0.00  0.00    -0.023 C 
ATOM      3  C   UNL     1       3.622  -1.952  -0.639  0.00  0.00    +0.058 C 
ATOM      4  C   UNL     1       2.435  -2.724  -0.119  0.00  0.00    +0.026 C 
ATOM      5  C   UNL     1       2.549  -4.025   0.225  0.00  0.00    +0.037 C 
ATOM      6  C   UNL     1       3.772  -4.705   0.094  0.00  0.00    +0.163 C 
ATOM      7  O   UNL     1       3.844  -5.872   0.423  0.00  0.00    -0.292 OA
ATOM      8  C   UNL     1       4.994  -4.015  -0.448  0.00  0.00    +0.086 C 
ATOM      9  C   UNL     1       1.366  -4.787   0.763  0.00  0.00    +0.141 C 
ATOM     10  C   UNL     1       1.510  -5.013   2.236  0.00  0.00    -0.001 A 
ATOM     11  C   UNL     1       1.586  -4.129   3.291  0.00  0.00    +0.007 A 
ATOM     12  C   UNL     1       1.718  -4.675   4.564  0.00  0.00    +0.000 A 
ATOM     13  C   UNL     1       1.770  -6.041   4.758  0.00  0.00    +0.002 A 
ATOM     14  C   UNL     1       1.694  -6.935   3.702  0.00  0.00    +0.024 A 
ATOM     15  C   UNL     1       1.562  -6.400   2.419  0.00  0.00    +0.042 A 
ATOM     16  N   UNL     1       1.468  -7.049   1.202  0.00  0.00    -0.258 N 
ATOM     17  C   UNL     1       1.351  -6.184   0.174  0.00  0.00    +0.241 C 
ATOM     18  O   UNL     1       1.253  -6.469  -1.001  0.00  0.00    -0.273 OA
ATOM     19  C   UNL     1       0.075  -4.090   0.453  0.00  0.00    +0.089 C 
ATOM     20  C   UNL     1       0.059  -2.780   0.097  0.00  0.00    +0.108 C 
ATOM     21  N   UNL     1       1.236  -2.073   0.001  0.00  0.00    -0.260 N 
ATOM     22  C   UNL     1       5.784  -2.125  -1.886  0.00  0.00    +0.011 C 
ENDROOT
BRANCH  21  23
ATOM     23  C   UNL     1       1.208  -0.674   0.030  0.00  0.00    +0.042 A 
ATOM     24  C   UNL     1       1.368  -0.000   1.235  0.00  0.00    +0.024 A 
ATOM     25  C   UNL     1       1.339   1.380   1.262  0.00  0.00    +0.005 A 
ATOM     26  C   UNL     1       1.152   2.093   0.092  0.00  0.00    +0.038 A 
ATOM     27  C   UNL     1       0.992   1.425  -1.111  0.00  0.00    +0.125 A 
ATOM     28  C   UNL     1       1.020   0.043  -1.144  0.00  0.00    +0.062 A 
ATOM     29  F   UNL     1       0.815   2.125  -2.253  0.00  0.00    -0.205 F 
ENDBRANCH  21  23
BRANCH  20  30
ATOM     30  N   UNL     1      -1.138  -2.159  -0.171  0.00  0.00    -0.345 N 
ATOM     31  H   UNL     1      -1.147  -1.251  -0.513  0.00  0.00    +0.144 HD
ATOM     32  H   UNL     1      -1.973  -2.629  -0.019  0.00  0.00    +0.144 HD
ENDBRANCH  20  30
BRANCH  19  33
ATOM     33  C   UNL     1      -1.157  -4.814   0.538  0.00  0.00    +0.100 C 
ATOM     34  N   UNL     1      -2.135  -5.389   0.606  0.00  0.00    -0.191 NA
ENDBRANCH  19  33
BRANCH  16  35
ATOM     35  C   UNL     1       1.492  -8.506   1.046  0.00  0.00    +0.202 C 
BRANCH  35  36
ATOM     36  C   UNL     1       0.119  -9.030   1.120  0.00  0.00    -0.086 C 
ATOM     37  C   UNL     1      -0.976  -9.448   1.179  0.00  0.00    +0.005 C 
ENDBRANCH  35  36
ENDBRANCH  16  35
TORSDOF 5
