REMARK  Name = ZINC37839827
REMARK  5 active torsions:
REMARK  status: ('A' for Active; 'I' for Inactive)
REMARK    1  A    between atoms: C_1  and  C_2
REMARK    2  A    between atoms: C_7  and  C_9
REMARK    3  A    between atoms: C_7  and  C_10
REMARK    4  A    between atoms: C_13  and  C_15
REMARK    5  A    between atoms: C_20  and  N_21
REMARK                            x       y       z     vdW  Elec       q    Type
REMARK                         _______ _______ _______ _____ _____    ______ ____
ROOT
ATOM      1  C   UNL     1      -0.519   1.878  -1.354  0.00  0.00    +0.013 C 
ATOM      2  C   UNL     1      -0.313   0.411  -0.948  0.00  0.00    -0.014 C 
ATOM      3  C   UNL     1       0.388  -0.417  -2.060  0.00  0.00    +0.030 C 
ATOM      4  C   UNL     1       0.012  -1.846  -1.594  0.00  0.00    +0.077 C 
ATOM      5  C   UNL     1       0.895  -2.178  -0.394  0.00  0.00    +0.029 C 
ATOM      6  C   UNL     1       0.798  -1.170   0.738  0.00  0.00    -0.033 C 
ATOM      7  C   UNL     1       0.519   0.263   0.324  0.00  0.00    +0.014 C 
ATOM      8  C   UNL     1       2.163  -1.177   1.472  0.00  0.00    +0.011 C 
ATOM      9  C   UNL     1      -0.246  -1.637   1.762  0.00  0.00    +0.011 C 
ATOM     10  N   UNL     1      -1.392  -1.742  -1.149  0.00  0.00    -0.294 N 
ATOM     11  C   UNL     1      -1.651  -0.343  -0.773  0.00  0.00    +0.115 C 
ATOM     12  C   UNL     1      -2.287  -2.749  -1.105  0.00  0.00    +0.249 C 
ATOM     13  O   UNL     1      -1.989  -3.846  -1.536  0.00  0.00    -0.270 OA
ENDROOT
BRANCH  12  14
ATOM     14  C   UNL     1      -3.627  -2.520  -0.535  0.00  0.00    +0.057 A 
ATOM     15  C   UNL     1      -4.372  -1.402  -0.917  0.00  0.00    +0.015 A 
ATOM     16  C   UNL     1      -5.624  -1.194  -0.380  0.00  0.00    +0.001 A 
ATOM     17  C   UNL     1      -6.149  -2.088   0.539  0.00  0.00    +0.002 A 
ATOM     18  C   UNL     1      -5.426  -3.197   0.927  0.00  0.00    +0.023 A 
ATOM     19  C   UNL     1      -4.165  -3.427   0.392  0.00  0.00    +0.037 A 
BRANCH  19  20
ATOM     20  N   UNL     1      -3.437  -4.546   0.776  0.00  0.00    -0.357 N 
ATOM     21  H   UNL     1      -2.526  -4.662   0.465  0.00  0.00    +0.142 HD
ATOM     22  H   UNL     1      -3.840  -5.211   1.355  0.00  0.00    +0.142 HD
ENDBRANCH  19  20
ENDBRANCH  12  14
TORSDOF 2
