REMARK  Name = ZINC39112607
REMARK  1 active torsions:
REMARK  status: ('A' for Active; 'I' for Inactive)
REMARK    1  A    between atoms: C_3  and  N_15
REMARK                            x       y       z     vdW  Elec       q    Type
REMARK                         _______ _______ _______ _____ _____    ______ ____
ROOT
ATOM      1  C   UNL     1      -0.052   1.432   0.011  0.00  0.00    -0.000 C 
ATOM      2  C   UNL     1       1.444   1.833   0.051  0.00  0.00    -0.015 C 
ATOM      3  C   UNL     1       2.126   0.851  -0.926  0.00  0.00    -0.051 C 
ATOM      4  C   UNL     1       1.214  -0.376  -1.011  0.00  0.00    +0.113 C 
ATOM      5  C   UNL     1       0.008  -0.114  -0.096  0.00  0.00    +0.024 C 
ATOM      6  C   UNL     1       1.967  -1.559  -0.455  0.00  0.00    +0.254 C 
ATOM      7  O   UNL     1       2.457  -1.550   0.795  0.00  0.00    -0.272 OA
ATOM      8  N   UNL     1       2.124  -2.597  -1.241  0.00  0.00    -0.127 NA
ATOM      9  C   UNL     1       1.644  -2.628  -2.489  0.00  0.00    +0.332 C 
ATOM     10  O   UNL     1       1.841  -3.638  -3.138  0.00  0.00    -0.250 OA
ATOM     11  N   UNL     1       0.965  -1.638  -3.082  0.00  0.00    -0.238 N 
ATOM     12  C   UNL     1       0.703  -0.481  -2.428  0.00  0.00    +0.234 C 
ATOM     13  O   UNL     1       0.089   0.423  -2.953  0.00  0.00    -0.274 OA
ATOM     14  H   UNL     1       0.657  -1.751  -3.995  0.00  0.00    +0.159 HD
ENDROOT
BRANCH   3  15
ATOM     15  N   UNL     1       3.447   0.465  -0.413  0.00  0.00    +0.381 N 
ATOM     16  H   UNL     1       3.359   0.156   0.544  0.00  0.00    -0.090 HD
ATOM     17  H   UNL     1       3.820  -0.285  -0.975  0.00  0.00    -0.090 HD
ATOM     18  H   UNL     1       4.069   1.258  -0.454  0.00  0.00    -0.090 HD
ENDBRANCH   3  15
TORSDOF 1
