REMARK  Name = ZINC00263849
REMARK  2 active torsions:
REMARK  status: ('A' for Active; 'I' for Inactive)
REMARK    1  A    between atoms: C_11  and  C_12
REMARK    2  A    between atoms: C_17  and  C_20
REMARK                            x       y       z     vdW  Elec       q    Type
REMARK                         _______ _______ _______ _____ _____    ______ ____
ROOT
ATOM      1  C   UNL     1      10.402   5.250  -5.240  0.00  0.00    +0.002 A 
ATOM      2  C   UNL     1      10.667   4.214  -4.362  0.00  0.00    +0.001 A 
ATOM      3  C   UNL     1       9.647   3.375  -3.961  0.00  0.00    +0.017 A 
ATOM      4  C   UNL     1       8.355   3.569  -4.436  0.00  0.00    +0.034 A 
ATOM      5  C   UNL     1       8.080   4.614  -5.317  0.00  0.00    +0.048 A 
ATOM      6  C   UNL     1       9.124   5.452  -5.715  0.00  0.00    +0.024 A 
ATOM      7  N   UNL     1       6.813   4.866  -5.821  0.00  0.00    -0.280 N 
ATOM      8  C   UNL     1       5.668   4.473  -5.250  0.00  0.00    +0.255 C 
ATOM      9  O   UNL     1       4.602   4.837  -5.708  0.00  0.00    -0.269 OA
ATOM     10  C   UNL     1       5.702   3.588  -4.055  0.00  0.00    +0.080 C 
ATOM     11  C   UNL     1       4.723   3.633  -3.110  0.00  0.00    +0.087 C 
ATOM     12  S   UNL     1       7.075   2.481  -3.912  0.00  0.00    -0.082 S 
ATOM     13  H   UNL     1       6.750   5.381  -6.676  0.00  0.00    +0.155 HD
ENDROOT
BRANCH  11  14
ATOM     14  C   UNL     1       4.787   2.777  -1.984  0.00  0.00    +0.241 C 
ATOM     15  O   UNL     1       5.762   2.067  -1.813  0.00  0.00    -0.271 OA
ATOM     16  N   UNL     1       3.769   2.747  -1.102  0.00  0.00    -0.298 N 
ATOM     17  C   UNL     1       2.640   3.678  -1.230  0.00  0.00    +0.109 C 
ATOM     18  C   UNL     1       2.458   4.418   0.099  0.00  0.00    +0.032 C 
ATOM     19  C   UNL     1       2.306   3.398   1.230  0.00  0.00    +0.078 C 
ATOM     20  C   UNL     1       3.573   2.544   1.322  0.00  0.00    +0.032 C 
ATOM     21  C   UNL     1       3.767   1.782   0.007  0.00  0.00    +0.109 C 
BRANCH  19  22
ATOM     22  C   UNL     1       2.093   4.122   2.534  0.00  0.00    +0.214 C 
ATOM     23  O   UNL     1       2.065   5.334   2.557  0.00  0.00    -0.276 OA
ATOM     24  N   UNL     1       1.938   3.422   3.676  0.00  0.00    -0.329 N 
ATOM     25  H   UNL     1       1.805   3.888   4.516  0.00  0.00    +0.145 HD
ATOM     26  H   UNL     1       1.960   2.453   3.657  0.00  0.00    +0.145 HD
ENDBRANCH  19  22
ENDBRANCH  11  14
TORSDOF 2
