REMARK  Name = ZINC05883978
REMARK  7 active torsions:
REMARK  status: ('A' for Active; 'I' for Inactive)
REMARK    1  A    between atoms: C_1  and  C_2
REMARK    2  A    between atoms: N_4  and  C_6
REMARK    3  A    between atoms: C_8  and  O_21
REMARK    4  A    between atoms: C_10  and  O_20
REMARK    5  A    between atoms: C_12  and  C_18
REMARK    6  A    between atoms: C_15  and  O_17
REMARK    7  A    between atoms: C_18  and  O_19
REMARK                            x       y       z     vdW  Elec       q    Type
REMARK                         _______ _______ _______ _____ _____    ______ ____
ROOT
ATOM      1  C   UNL     1      -0.752   1.593  -1.233  0.00  0.00    +0.160 C 
ATOM      2  C   UNL     1      -0.716   3.124  -1.248  0.00  0.00    +0.171 C 
ATOM      3  C   UNL     1       0.743   3.591  -1.209  0.00  0.00    +0.176 C 
ATOM      4  C   UNL     1       1.424   3.006   0.031  0.00  0.00    +0.178 C 
ATOM      5  O   UNL     1       1.328   1.581  -0.002  0.00  0.00    -0.341 OA
ATOM      6  C   UNL     1      -0.013   1.086   0.008  0.00  0.00    +0.270 C 
ENDROOT
BRANCH   1  10
ATOM      7  C   UNL     1       0.254  -0.678  -4.146  0.00  0.00    +0.109 C 
ATOM      8  C   UNL     1      -0.419  -0.146  -2.906  0.00  0.00    +0.210 C 
ATOM      9  O   UNL     1      -1.248  -0.818  -2.330  0.00  0.00    -0.276 OA
ATOM     10  N   UNL     1      -0.098   1.076  -2.438  0.00  0.00    -0.305 N 
ATOM     11  H   UNL     1       0.565   1.613  -2.898  0.00  0.00    +0.149 HD
ENDBRANCH   1  10
BRANCH   6  12
ATOM     12  O   UNL     1      -0.682   1.547   1.183  0.00  0.00    -0.365 OA
ATOM     13  H   UNL     1      -0.267   1.263   2.009  0.00  0.00    +0.213 HD
ENDBRANCH   6  12
BRANCH   3  14
ATOM     14  O   UNL     1       0.786   5.018  -1.150  0.00  0.00    -0.387 OA
ATOM     15  H   UNL     1       1.681   5.383  -1.118  0.00  0.00    +0.210 HD
ENDBRANCH   3  14
BRANCH   2  16
ATOM     16  O   UNL     1      -1.410   3.630  -0.106  0.00  0.00    -0.387 OA
ATOM     17  H   UNL     1      -1.421   4.596  -0.049  0.00  0.00    +0.210 HD
ENDBRANCH   2  16
BRANCH   4  18
ATOM     18  C   UNL     1       2.897   3.418   0.045  0.00  0.00    +0.190 C 
BRANCH  18  19
ATOM     19  O   UNL     1       3.505   2.970   1.258  0.00  0.00    -0.392 OA
ATOM     20  H   UNL     1       4.442   3.197   1.336  0.00  0.00    +0.210 HD
ENDBRANCH  18  19
ENDBRANCH   4  18
TORSDOF 6
