REMARK  Name = ZINC39159080
REMARK  10 active torsions:
REMARK  status: ('A' for Active; 'I' for Inactive)
REMARK    1  A    between atoms: C_1  and  C_2
REMARK    2  A    between atoms: C_2  and  C_4
REMARK    3  A    between atoms: C_2  and  N_21
REMARK    4  A    between atoms: C_4  and  C_5
REMARK    5  A    between atoms: C_4  and  C_6
REMARK    6  A    between atoms: C_4  and  C_7
REMARK    7  A    between atoms: C_7  and  C_20
REMARK    8  A    between atoms: C_12  and  C_14
REMARK    9  A    between atoms: N_21  and  C_22
REMARK   10  A    between atoms: C_25  and  C_28
REMARK                            x       y       z     vdW  Elec       q    Type
REMARK                         _______ _______ _______ _____ _____    ______ ____
ROOT
ATOM      1  C   UNL     1       0.712  -0.018   1.041  0.00  0.00    -0.011 C 
ATOM      2  C   UNL     1       1.344  -1.399   0.858  0.00  0.00    +0.015 C 
ATOM      3  C   UNL     1       1.698   0.903   1.763  0.00  0.00    +0.015 C 
ENDROOT
BRANCH   1   4
ATOM      4  C   UNL     1      -0.547  -0.146   1.859  0.00  0.00    -0.004 C 
ATOM      5  N   UNL     1      -1.639  -0.575   1.305  0.00  0.00    -0.349 N 
ATOM      6  C   UNL     1      -1.585  -1.244   0.135  0.00  0.00    +0.135 C 
ATOM      7  N   UNL     1      -0.516  -1.647  -0.505  0.00  0.00    -0.136 NA
ATOM      8  N   UNL     1      -0.758  -2.261  -1.597  0.00  0.00    -0.152 NA
ATOM      9  C   UNL     1      -2.028  -2.377  -1.881  0.00  0.00    +0.078 C 
ATOM     10  C   UNL     1      -2.750  -1.700  -0.728  0.00  0.00    +0.134 C 
ATOM     11  C   UNL     1      -0.538   0.224   3.319  0.00  0.00    +0.059 C 
ATOM     12  H   UNL     1      -2.495  -0.416   1.733  0.00  0.00    +0.166 HD
BRANCH   9  13
ATOM     13  C   UNL     1      -2.627  -3.024  -3.057  0.00  0.00    -0.002 A 
ATOM     14  C   UNL     1      -4.018  -3.054  -3.212  0.00  0.00    +0.010 A 
ATOM     15  C   UNL     1      -4.572  -3.664  -4.317  0.00  0.00    +0.001 A 
ATOM     16  C   UNL     1      -3.757  -4.245  -5.273  0.00  0.00    +0.000 A 
ATOM     17  C   UNL     1      -2.381  -4.220  -5.128  0.00  0.00    +0.001 A 
ATOM     18  C   UNL     1      -1.810  -3.609  -4.031  0.00  0.00    +0.010 A 
ENDBRANCH   9  13
ENDBRANCH   1   4
BRANCH   1  20
ATOM     19  C   UNL     1       0.138   2.079  -0.191  0.00  0.00    -0.013 C 
ATOM     20  C   UNL     1       0.372   0.573  -0.329  0.00  0.00    -0.060 C 
BRANCH  20  21
ATOM     21  N   UNL     1       1.487   0.333  -1.256  0.00  0.00    +0.400 N 
ATOM     22  H   UNL     1       2.301   0.840  -0.941  0.00  0.00    -0.082 HD
ATOM     23  H   UNL     1       1.695  -0.654  -1.283  0.00  0.00    -0.082 HD
BRANCH  21  24
ATOM     24  C   UNL     1       1.113   0.793  -2.600  0.00  0.00    +0.098 C 
ATOM     25  C   UNL     1       2.271   0.618  -3.567  0.00  0.00    +0.012 C 
ATOM     26  C   UNL     1       1.794  -0.240  -4.489  0.00  0.00    +0.089 C 
ATOM     27  N   UNL     1       0.515  -0.592  -4.193  0.00  0.00    -0.156 NA
ATOM     28  N   UNL     1       0.062  -0.066  -3.170  0.00  0.00    -0.199 NA
BRANCH  26  29
ATOM     29  C   UNL     1       2.558  -0.732  -5.662  0.00  0.00    +0.002 A 
ATOM     30  C   UNL     1       3.869  -0.311  -5.870  0.00  0.00    +0.010 A 
ATOM     31  C   UNL     1       4.575  -0.772  -6.963  0.00  0.00    +0.001 A 
ATOM     32  C   UNL     1       3.982  -1.651  -7.851  0.00  0.00    +0.000 A 
ATOM     33  C   UNL     1       2.680  -2.072  -7.651  0.00  0.00    +0.001 A 
ATOM     34  C   UNL     1       1.967  -1.622  -6.558  0.00  0.00    +0.010 A 
ENDBRANCH  26  29
ENDBRANCH  21  24
ENDBRANCH  20  21
ENDBRANCH   1  20
TORSDOF 6
