REMARK  Name = ZINC52909233
REMARK  4 active torsions:
REMARK  status: ('A' for Active; 'I' for Inactive)
REMARK    1  A    between atoms: C_3  and  S_10
REMARK    2  A    between atoms: C_4  and  C_8
REMARK    3  A    between atoms: S_10  and  C_11
REMARK    4  A    between atoms: C_15  and  N_17
REMARK                            x       y       z     vdW  Elec       q    Type
REMARK                         _______ _______ _______ _____ _____    ______ ____
ROOT
ATOM      1  C   UNL     1       3.372   4.021  -0.160  0.00  0.00    +0.196 A 
ATOM      2  N   UNL     1       2.078   4.302  -0.118  0.00  0.00    -0.207 NA
ATOM      3  C   UNL     1       1.650   5.558  -0.217  0.00  0.00    +0.122 A 
ATOM      4  C   UNL     1       2.582   6.582  -0.365  0.00  0.00    +0.086 A 
ATOM      5  C   UNL     1       3.932   6.247  -0.405  0.00  0.00    +0.122 A 
ATOM      6  N   UNL     1       4.287   4.969  -0.295  0.00  0.00    -0.207 NA
ATOM      7  N   UNL     1       0.294   5.844  -0.173  0.00  0.00    -0.343 N 
ATOM      8  H   UNL     1      -0.350   5.126  -0.070  0.00  0.00    +0.144 HD
ATOM      9  H   UNL     1      -0.011   6.762  -0.245  0.00  0.00    +0.144 HD
ENDROOT
BRANCH   5  10
ATOM     10  N   UNL     1       4.896   7.233  -0.551  0.00  0.00    -0.343 N 
ATOM     11  H   UNL     1       4.631   8.163  -0.628  0.00  0.00    +0.144 HD
ATOM     12  H   UNL     1       5.835   6.993  -0.578  0.00  0.00    +0.144 HD
ENDBRANCH   5  10
BRANCH   1  13
ATOM     13  S   UNL     1       3.890   2.342  -0.024  0.00  0.00    -0.049 S 
BRANCH  13  16
ATOM     14  C   UNL     1       0.630   0.029  -0.480  0.00  0.00    +0.003 A 
ATOM     15  C   UNL     1       1.799   0.721  -0.725  0.00  0.00    +0.016 A 
ATOM     16  C   UNL     1       2.397   1.459   0.287  0.00  0.00    +0.034 A 
ATOM     17  C   UNL     1       1.806   1.499   1.561  0.00  0.00    +0.084 A 
ATOM     18  C   UNL     1       0.622   0.793   1.794  0.00  0.00    +0.059 A 
ATOM     19  C   UNL     1       0.044   0.064   0.774  0.00  0.00    +0.021 A 
ATOM     20 CL   UNL     1      -0.119   0.832   3.363  0.00  0.00    -0.082 Cl
BRANCH  17  21
ATOM     21  C   UNL     1       2.413   2.256   2.614  0.00  0.00    +0.102 C 
ATOM     22  N   UNL     1       2.894   2.857   3.449  0.00  0.00    -0.191 NA
ENDBRANCH  17  21
ENDBRANCH  13  16
ENDBRANCH   1  13
TORSDOF 4
