REMARK  Name = ZINC67272089
REMARK  8 active torsions:
REMARK  status: ('A' for Active; 'I' for Inactive)
REMARK    1  A    between atoms: C_1  and  C_2
REMARK    2  A    between atoms: C_2  and  C_3
REMARK    3  A    between atoms: C_3  and  C_5
REMARK    4  A    between atoms: C_3  and  S_6
REMARK    5  A    between atoms: S_6  and  C_7
REMARK    6  A    between atoms: C_10  and  N_14
REMARK    7  A    between atoms: C_11  and  C_13
REMARK    8  A    between atoms: C_15  and  C_17
REMARK                            x       y       z     vdW  Elec       q    Type
REMARK                         _______ _______ _______ _____ _____    ______ ____
ROOT
ATOM      1  N   UNL     1       4.752  -1.160  -6.507  0.00  0.00    -0.285 N 
ATOM      2  C   UNL     1       3.981  -1.703  -7.470  0.00  0.00    +0.220 C 
ATOM      3  O   UNL     1       2.795  -1.865  -7.277  0.00  0.00    -0.275 OA
ATOM      4  H   UNL     1       5.688  -0.972  -6.683  0.00  0.00    +0.155 HD
ENDROOT
BRANCH   2   5
ATOM      5  C   UNL     1       4.593  -2.107  -8.786  0.00  0.00    +0.075 C 
ATOM      6  C   UNL     1       5.216  -0.881  -9.458  0.00  0.00    +0.015 C 
ATOM      7  C   UNL     1       5.848  -1.296 -10.789  0.00  0.00    +0.036 C 
ATOM      8  C   UNL     1       4.782  -1.905 -11.693  0.00  0.00    +0.112 C 
ATOM      9  C   UNL     1       4.134  -3.114 -11.026  0.00  0.00    +0.036 C 
ATOM     10  C   UNL     1       3.509  -2.692  -9.694  0.00  0.00    +0.015 C 
ATOM     11  C   UNL     1       3.736  -0.873 -12.046  0.00  0.00    +0.244 C 
ATOM     12  O   UNL     1       3.002  -0.281 -11.283  0.00  0.00    -0.273 OA
ATOM     13  N   UNL     1       3.790  -0.749 -13.388  0.00  0.00    -0.238 N 
ATOM     14  C   UNL     1       4.717  -1.554 -13.920  0.00  0.00    +0.307 C 
ATOM     15  O   UNL     1       4.952  -1.619 -15.111  0.00  0.00    -0.252 OA
ATOM     16  N   UNL     1       5.361  -2.283 -12.989  0.00  0.00    -0.285 N 
ATOM     17  H   UNL     1       3.226  -0.151 -13.903  0.00  0.00    +0.159 HD
ATOM     18  H   UNL     1       6.068  -2.928 -13.143  0.00  0.00    +0.151 HD
ENDBRANCH   2   5
BRANCH   1  22
ATOM     19  C   UNL     1       3.116  -0.287  -2.771  0.00  0.00    +0.009 A 
ATOM     20  C   UNL     1       2.344  -0.148  -3.918  0.00  0.00    +0.016 A 
ATOM     21  C   UNL     1       2.886  -0.436  -5.154  0.00  0.00    +0.024 A 
ATOM     22  C   UNL     1       4.203  -0.866  -5.252  0.00  0.00    +0.036 A 
ATOM     23  C   UNL     1       4.975  -1.006  -4.106  0.00  0.00    -0.028 A 
ATOM     24  C   UNL     1       4.435  -0.712  -2.870  0.00  0.00    +0.020 A 
ATOM     25  C   UNL     1       6.404  -1.472  -4.213  0.00  0.00    +0.046 C 
BRANCH  19  26
ATOM     26  S   UNL     1       2.425   0.080  -1.192  0.00  0.00    -0.122 S 
BRANCH  26  27
ATOM     27  C   UNL     1       0.677   0.415  -1.546  0.00  0.00    +0.048 C 
ATOM     28  C   UNL     1      -0.022  -0.888  -1.940  0.00  0.00    +0.019 C 
BRANCH  27  30
ATOM     29  C   UNL     1       0.623   2.359   0.022  0.00  0.00    +0.005 C 
ATOM     30  C   UNL     1       0.007   0.996  -0.299  0.00  0.00    +0.011 C 
ENDBRANCH  27  30
ENDBRANCH  26  27
ENDBRANCH  19  26
ENDBRANCH   1  22
TORSDOF 5
