REMARK  Name = ZINC35409247
REMARK  7 active torsions:
REMARK  status: ('A' for Active; 'I' for Inactive)
REMARK    1  A    between atoms: C_1  and  C_2
REMARK    2  A    between atoms: C_2  and  CA_3
REMARK    3  A    between atoms: CA_3  and  C_5
REMARK    4  A    between atoms: CA_3  and  N_8
REMARK    5  A    between atoms: C_9  and  C_11
REMARK    6  A    between atoms: N_16  and  S_18
REMARK    7  A    between atoms: S_18  and  C_21
REMARK                            x       y       z     vdW  Elec       q    Type
REMARK                         _______ _______ _______ _____ _____    ______ ____
ROOT
ATOM      1  N   UNL     1      -2.082  -0.162   1.273  0.00  0.00    -0.302 N 
ATOM      2  C   UNL     1      -3.424  -0.053   1.334  0.00  0.00    +0.218 C 
ATOM      3  O   UNL     1      -4.095  -0.264   0.346  0.00  0.00    -0.275 OA
ATOM      4  H   UNL     1      -1.545   0.006   2.063  0.00  0.00    +0.150 HD
ENDROOT
BRANCH   2   5
ATOM      5  C   UNL     1      -4.090   0.329   2.630  0.00  0.00    +0.091 C 
ATOM      6  C   UNL     1      -3.756  -0.710   3.703  0.00  0.00    +0.015 C 
ATOM      7  C   UNL     1      -4.405  -0.305   5.028  0.00  0.00    +0.018 C 
ATOM      8  C   UNL     1      -5.927  -0.262   4.854  0.00  0.00    +0.109 C 
ATOM      9  N   UNL     1      -6.249   0.625   3.728  0.00  0.00    -0.181 NA
ATOM     10  C   UNL     1      -5.608   0.380   2.429  0.00  0.00    +0.121 C 
BRANCH   9  11
ATOM     11  S   UNL     1      -7.316   1.877   3.919  0.00  0.00    +0.029 S 
ATOM     12  O   UNL     1      -7.849   2.101   2.621  0.00  0.00    -0.158 OA
ATOM     13  O   UNL     1      -8.160   1.474   4.989  0.00  0.00    -0.158 OA
ATOM     14  C   UNL     1      -6.293   3.287   4.427  0.00  0.00    +0.215 C 
ENDBRANCH   9  11
ENDBRANCH   2   5
BRANCH   1  15
ATOM     15  CA  UNL     1      -1.433  -0.534   0.013  0.00  0.00    +0.186 C 
BRANCH  15  16
ATOM     16  C   UNL     1      -1.416  -2.035  -0.119  0.00  0.00    +0.376 C 
ATOM     17  O   UNL     1      -1.367  -2.734   0.878  0.00  0.00    -0.244 OA
ATOM     18  OXT UNL     1      -1.451  -2.550  -1.224  0.00  0.00    -0.244 OA
ENDBRANCH  15  16
BRANCH  15  20
ATOM     19  C   UNL     1      -0.019   1.526   0.010  0.00  0.00    +0.006 C 
ATOM     20  C   UNL     1       0.002  -0.004   0.002  0.00  0.00    +0.030 C 
ENDBRANCH  15  20
ENDBRANCH   1  15
TORSDOF 5
