REMARK  Name = ZINC39674348
REMARK  8 active torsions:
REMARK  status: ('A' for Active; 'I' for Inactive)
REMARK    1  A    between atoms: C_1  and  C_2
REMARK    2  A    between atoms: C_4  and  C_9
REMARK    3  A    between atoms: C_13  and  C_22
REMARK    4  A    between atoms: N_24  and  C_25
REMARK    5  A    between atoms: C_25  and  C_27
REMARK    6  A    between atoms: C_25  and  C_28
REMARK    7  A    between atoms: C_29  and  C_35
REMARK    8  A    between atoms: C_32  and  C_34
REMARK                            x       y       z     vdW  Elec       q    Type
REMARK                         _______ _______ _______ _____ _____    ______ ____
ROOT
ATOM      1  C   UNL     1       0.155  -2.700  -1.984  0.00  0.00    +0.247 C 
ATOM      2  O   UNL     1       0.187  -2.089  -3.034  0.00  0.00    -0.270 OA
ATOM      3  N   UNL     1       0.456  -4.014  -1.959  0.00  0.00    -0.296 N 
ATOM      4  C   UNL     1       0.361  -4.946  -0.810  0.00  0.00    +0.121 C 
ATOM      5  C   UNL     1      -0.172  -6.263  -1.419  0.00  0.00    +0.100 C 
ATOM      6  C   UNL     1       0.224  -6.196  -2.904  0.00  0.00    -0.004 C 
ATOM      7  C   UNL     1       0.950  -4.854  -3.076  0.00  0.00    +0.115 C 
ATOM      8  C   UNL     1      -1.022  -6.231  -3.785  0.00  0.00    -0.010 C 
ATOM      9  C   UNL     1      -0.601  -6.222  -5.257  0.00  0.00    -0.082 C 
ATOM     10  N   UNL     1       0.250  -7.386  -5.531  0.00  0.00    +0.379 N 
ATOM     11  C   UNL     1       1.489  -7.297  -4.749  0.00  0.00    -0.082 C 
ATOM     12  C   UNL     1       1.156  -7.352  -3.255  0.00  0.00    -0.010 C 
ATOM     13  H   UNL     1      -0.244  -8.229  -5.281  0.00  0.00    -0.086 HD
ATOM     14  H   UNL     1       0.476  -7.412  -6.514  0.00  0.00    -0.086 HD
ENDROOT
BRANCH   1  18
ATOM     15  C   UNL     1      -2.093   1.102   0.336  0.00  0.00    +0.045 C 
ATOM     16  C   UNL     1      -1.294  -0.174   0.387  0.00  0.00    -0.036 A 
ATOM     17  C   UNL     1      -0.953  -0.820  -0.783  0.00  0.00    +0.017 A 
ATOM     18  C   UNL     1      -0.212  -2.003  -0.734  0.00  0.00    +0.037 A 
ATOM     19  C   UNL     1       0.179  -2.524   0.501  0.00  0.00    +0.014 A 
ATOM     20  C   UNL     1      -0.168  -1.868   1.664  0.00  0.00    +0.016 A 
ATOM     21  C   UNL     1      -0.898  -0.693   1.608  0.00  0.00    +0.021 A 
ATOM     22 BR   UNL     1      -1.362   0.204   3.207  0.00  0.00    -0.050 Br
ENDBRANCH   1  18
BRANCH   5  23
ATOM     23  C   UNL     1       0.477  -7.449  -0.753  0.00  0.00    +0.219 C 
ATOM     24  O   UNL     1       1.583  -7.341  -0.267  0.00  0.00    -0.275 OA
ATOM     25  N   UNL     1      -0.172  -8.629  -0.699  0.00  0.00    -0.309 N 
ATOM     26  H   UNL     1      -1.056  -8.715  -1.088  0.00  0.00    +0.149 HD
BRANCH  25  27
ATOM     27  C   UNL     1       0.459  -9.782  -0.051  0.00  0.00    +0.100 C 
ATOM     28  C   UNL     1       1.368 -10.495  -1.054  0.00  0.00    +0.033 C 
BRANCH  27  29
ATOM     29  C   UNL     1      -0.607 -10.735   0.426  0.00  0.00    -0.001 C 
ATOM     30  C   UNL     1      -0.787 -11.216   1.658  0.00  0.00    +0.063 C 
ATOM     31  N   UNL     1      -1.852 -12.046   1.698  0.00  0.00    -0.159 NA
ATOM     32  N   UNL     1      -2.430 -12.191   0.618  0.00  0.00    -0.180 NA
ATOM     33  C   UNL     1      -1.728 -11.365  -0.380  0.00  0.00    +0.154 C 
ATOM     34  C   UNL     1      -1.163 -12.239  -1.501  0.00  0.00    +0.039 C 
ATOM     35  C   UNL     1       0.080 -10.878   2.844  0.00  0.00    +0.067 C 
ENDBRANCH  27  29
ENDBRANCH  25  27
ENDBRANCH   5  23
TORSDOF 4
