REMARK  Name = ZINC48911991
REMARK  8 active torsions:
REMARK  status: ('A' for Active; 'I' for Inactive)
REMARK    1  A    between atoms: C_1  and  C_2
REMARK    2  A    between atoms: C_3  and  C_7
REMARK    3  A    between atoms: C_7  and  N_8
REMARK    4  A    between atoms: N_8  and  C_9
REMARK    5  A    between atoms: N_8  and  C_10
REMARK    6  A    between atoms: C_10  and  C_11
REMARK    7  A    between atoms: N_13  and  C_14
REMARK    8  A    between atoms: C_16  and  N_21
REMARK                            x       y       z     vdW  Elec       q    Type
REMARK                         _______ _______ _______ _____ _____    ______ ____
ROOT
ATOM      1  C   UNL     1      -4.663   1.056  -2.688  0.00  0.00    +0.201 C 
ATOM      2  O   UNL     1      -3.869   0.969  -3.601  0.00  0.00    -0.278 OA
ATOM      3  N   UNL     1      -5.880   1.594  -2.902  0.00  0.00    -0.285 N 
ATOM      4  H   UNL     1      -6.543   1.591  -2.194  0.00  0.00    +0.155 HD
ENDROOT
BRANCH   3   5
ATOM      5  C   UNL     1      -6.188   2.156  -4.147  0.00  0.00    +0.071 A 
ATOM      6  C   UNL     1      -5.173   2.633  -4.964  0.00  0.00    +0.049 A 
ATOM      7  C   UNL     1      -5.481   3.189  -6.198  0.00  0.00    +0.026 A 
ATOM      8  C   UNL     1      -6.805   3.267  -6.612  0.00  0.00    +0.025 A 
ATOM      9  C   UNL     1      -7.815   2.792  -5.797  0.00  0.00    +0.042 A 
ATOM     10  C   UNL     1      -7.511   2.232  -4.569  0.00  0.00    +0.145 A 
ATOM     11  F   UNL     1      -8.500   1.764  -3.777  0.00  0.00    -0.204 F 
BRANCH   7  12
ATOM     12  N   UNL     1      -4.461   3.670  -7.023  0.00  0.00    -0.358 N 
ATOM     13  H   UNL     1      -3.537   3.615  -6.734  0.00  0.00    +0.142 HD
ATOM     14  H   UNL     1      -4.677   4.059  -7.885  0.00  0.00    +0.142 HD
ENDBRANCH   7  12
ENDBRANCH   3   5
BRANCH   1  15
ATOM     15  C   UNL     1      -4.287   0.564  -1.314  0.00  0.00    +0.019 C 
BRANCH  15  16
ATOM     16  N   UNL     1      -2.920   0.028  -1.342  0.00  0.00    +0.386 N 
ATOM     17  C   UNL     1      -2.878  -1.160  -2.205  0.00  0.00    -0.095 C 
ATOM     18  H   UNL     1      -2.291   0.729  -1.704  0.00  0.00    -0.081 HD
BRANCH  16  19
ATOM     19  C   UNL     1      -2.511  -0.342   0.019  0.00  0.00    -0.039 C 
BRANCH  19  22
ATOM     20  C   UNL     1      -0.011   1.533  -0.003  0.00  0.00    +0.086 C 
ATOM     21  C   UNL     1       0.011   0.026  -0.000  0.00  0.00    +0.103 A 
ATOM     22  C   UNL     1      -1.068  -0.776   0.009  0.00  0.00    -0.023 A 
ATOM     23  C   UNL     1      -0.589  -2.107   0.009  0.00  0.00    +0.043 A 
ATOM     24  C   UNL     1       0.754  -2.037  -0.001  0.00  0.00    +0.195 A 
ATOM     25  O   UNL     1       1.112  -0.743  -0.012  0.00  0.00    -0.468 OA
ENDBRANCH  19  22
ENDBRANCH  16  19
ENDBRANCH  15  16
ENDBRANCH   1  15
TORSDOF 6
