REMARK  Name = ZINC36244911
REMARK  5 active torsions:
REMARK  status: ('A' for Active; 'I' for Inactive)
REMARK    1  A    between atoms: C_1  and  C_2
REMARK    2  A    between atoms: N_4  and  C_5
REMARK    3  A    between atoms: C_5  and  C_6
REMARK    4  A    between atoms: C_6  and  N_7
REMARK    5  A    between atoms: C_11  and  N_14
REMARK                            x       y       z     vdW  Elec       q    Type
REMARK                         _______ _______ _______ _____ _____    ______ ____
ROOT
ATOM      1  N   UNL     1      -2.551  -4.153   0.004  0.00  0.00    -0.327 N 
ATOM      2  C   UNL     1      -3.749  -4.866   0.012  0.00  0.00    +0.133 A 
ATOM      3  C   UNL     1      -3.721  -6.258   0.010  0.00  0.00    +0.059 A 
ATOM      4  C   UNL     1      -4.915  -6.956   0.018  0.00  0.00    +0.043 A 
ATOM      5  C   UNL     1      -6.107  -6.232   0.028  0.00  0.00    +0.044 A 
ATOM      6  C   UNL     1      -6.057  -4.847   0.029  0.00  0.00    +0.135 A 
ATOM      7  N   UNL     1      -4.899  -4.213   0.026  0.00  0.00    -0.238 NA
ATOM      8 BR   UNL     1      -2.071  -7.182  -0.004  0.00  0.00    -0.047 Br
ATOM      9  H   UNL     1      -1.705  -4.627  -0.006  0.00  0.00    +0.148 HD
ENDROOT
BRANCH   5  10
ATOM     10  N   UNL     1      -7.340  -6.897   0.036  0.00  0.00    -0.357 N 
ATOM     11  H   UNL     1      -7.368  -7.867   0.034  0.00  0.00    +0.142 HD
ATOM     12  H   UNL     1      -8.165  -6.388   0.042  0.00  0.00    +0.142 HD
ENDBRANCH   5  10
BRANCH   1  13
ATOM     13  C   UNL     1      -2.571  -2.688   0.012  0.00  0.00    +0.121 C 
BRANCH  13  14
ATOM     14  C   UNL     1      -1.136  -2.159   0.001  0.00  0.00    +0.123 C 
BRANCH  14  18
ATOM     15  C   UNL     1      -0.018   1.503   0.010  0.00  0.00    +0.109 C 
ATOM     16  C   UNL     1       0.002  -0.004   0.002  0.00  0.00    +0.210 C 
ATOM     17  O   UNL     1       1.060  -0.596  -0.011  0.00  0.00    -0.276 OA
ATOM     18  N   UNL     1      -1.156  -0.694   0.009  0.00  0.00    -0.314 N 
ATOM     19  H   UNL     1      -2.002  -0.220   0.020  0.00  0.00    +0.149 HD
ENDBRANCH  14  18
ENDBRANCH  13  14
ENDBRANCH   1  13
TORSDOF 4
