REMARK  Name = ZINC08659103
REMARK  4 active torsions:
REMARK  status: ('A' for Active; 'I' for Inactive)
REMARK    1  A    between atoms: N_10  and  N_11
REMARK    2  A    between atoms: C_12  and  C_14
REMARK    3  A    between atoms: C_14  and  O_15
REMARK    4  A    between atoms: O_15  and  C_16
REMARK                            x       y       z     vdW  Elec       q    Type
REMARK                         _______ _______ _______ _____ _____    ______ ____
ROOT
ATOM      1  C   UNL     1      -0.017   1.376   0.010  0.00  0.00    +0.001 A 
ATOM      2  C   UNL     1       1.167   2.098   0.002  0.00  0.00    +0.001 A 
ATOM      3  C   UNL     1       2.386   1.447  -0.013  0.00  0.00    +0.012 A 
ATOM      4  C   UNL     1       2.424   0.061  -0.021  0.00  0.00    +0.029 A 
ATOM      5  C   UNL     1       1.220  -0.677  -0.013  0.00  0.00    +0.023 A 
ATOM      6  C   UNL     1       0.002  -0.004   0.002  0.00  0.00    +0.012 A 
ATOM      7  C   UNL     1       1.613  -2.093  -0.025  0.00  0.00    +0.103 C 
ATOM      8  N   UNL     1       2.922  -2.180  -0.038  0.00  0.00    -0.326 N 
ATOM      9  C   UNL     1       3.502  -0.950  -0.036  0.00  0.00    +0.158 C 
ATOM     10  N   UNL     1       4.790  -0.704  -0.048  0.00  0.00    -0.162 NA
ATOM     11  N   UNL     1       0.742  -3.164  -0.022  0.00  0.00    -0.344 N 
ATOM     12  H   UNL     1      -0.216  -3.010  -0.011  0.00  0.00    +0.144 HD
ATOM     13  H   UNL     1       1.087  -4.070  -0.030  0.00  0.00    +0.144 HD
ATOM     14  H   UNL     1       3.414  -3.016  -0.047  0.00  0.00    +0.169 HD
ENDROOT
BRANCH  10  15
ATOM     15  N   UNL     1       5.705  -1.764  -0.062  0.00  0.00    -0.202 N 
ATOM     16  C   UNL     1       7.029  -1.511  -0.074  0.00  0.00    +0.270 C 
ATOM     17  O   UNL     1       7.427  -0.365  -0.072  0.00  0.00    -0.270 OA
ATOM     18  H   UNL     1       5.386  -2.680  -0.064  0.00  0.00    +0.177 HD
BRANCH  16  19
ATOM     19  C   UNL     1       8.014  -2.651  -0.089  0.00  0.00    +0.326 C 
BRANCH  19  20
ATOM     20  O   UNL     1       9.345  -2.131  -0.100  0.00  0.00    -0.482 OA
BRANCH  20  21
ATOM     21  C   UNL     1      10.360  -3.035  -0.115  0.00  0.00    +0.135 A 
ATOM     22  C   UNL     1      10.081  -4.393  -0.124  0.00  0.00    +0.048 A 
ATOM     23  C   UNL     1      11.114  -5.310  -0.140  0.00  0.00    +0.019 A 
ATOM     24  C   UNL     1      12.428  -4.874  -0.145  0.00  0.00    +0.019 A 
ATOM     25  C   UNL     1      12.709  -3.520  -0.135  0.00  0.00    +0.034 A 
ATOM     26  C   UNL     1      11.678  -2.599  -0.125  0.00  0.00    +0.061 A 
ATOM     27 BR   UNL     1      12.063  -0.748  -0.119  0.00  0.00    -0.046 Br
ATOM     28 BR   UNL     1      13.840  -6.131  -0.166  0.00  0.00    -0.050 Br
ENDBRANCH  20  21
ENDBRANCH  19  20
ENDBRANCH  16  19
ENDBRANCH  10  15
TORSDOF 4
