REMARK  Name = ZINC50359907
REMARK  4 active torsions:
REMARK  status: ('A' for Active; 'I' for Inactive)
REMARK    1  A    between atoms: C_4  and  N_12
REMARK    2  A    between atoms: C_6  and  N_7
REMARK    3  A    between atoms: N_12  and  C_13
REMARK    4  A    between atoms: C_13  and  C_14
REMARK                            x       y       z     vdW  Elec       q    Type
REMARK                         _______ _______ _______ _____ _____    ______ ____
ROOT
ATOM      1  C   UNL     1      -0.017   1.384   0.010  0.00  0.00    +0.029 A 
ATOM      2  C   UNL     1       1.169   2.093   0.002  0.00  0.00    +0.024 A 
ATOM      3  C   UNL     1       2.378   1.423  -0.013  0.00  0.00    +0.062 A 
ATOM      4  C   UNL     1       2.403   0.033  -0.021  0.00  0.00    +0.048 A 
ATOM      5  C   UNL     1       1.213  -0.681  -0.013  0.00  0.00    +0.052 A 
ATOM      6  C   UNL     1       0.002  -0.004   0.002  0.00  0.00    +0.071 A 
ATOM      7 CL   UNL     1       3.866   2.318  -0.023  0.00  0.00    -0.082 Cl
ENDROOT
BRANCH   6   8
ATOM      8  N   UNL     1      -1.203  -0.722   0.010  0.00  0.00    -0.200 N 
ATOM      9  C   UNL     1      -2.455  -0.224  -0.074  0.00  0.00    +0.250 A 
ATOM     10  N   UNL     1      -3.280  -1.237  -0.030  0.00  0.00    -0.116 NA
ATOM     11  N   UNL     1      -2.635  -2.342   0.075  0.00  0.00    -0.023 NA
ATOM     12  N   UNL     1      -1.365  -2.116   0.101  0.00  0.00    -0.039 NA
ENDBRANCH   6   8
BRANCH   4  13
ATOM     13  N   UNL     1       3.625  -0.645  -0.038  0.00  0.00    -0.336 N 
ATOM     14  H   UNL     1       4.457  -0.146  -0.044  0.00  0.00    +0.147 HD
BRANCH  13  15
ATOM     15  C   UNL     1       3.650  -2.110  -0.047  0.00  0.00    +0.176 C 
BRANCH  15  16
ATOM     16  C   UNL     1       5.079  -2.588  -0.064  0.00  0.00    +0.124 A 
ATOM     17  C   UNL     1       5.835  -2.848   1.018  0.00  0.00    +0.062 A 
ATOM     18  C   UNL     1       7.099  -3.268   0.543  0.00  0.00    +0.070 A 
ATOM     19  C   UNL     1       7.040  -3.239  -0.802  0.00  0.00    +0.184 A 
ATOM     20  O   UNL     1       5.813  -2.831  -1.164  0.00  0.00    -0.450 OA
ATOM     21 BR   UNL     1       8.445  -3.701  -1.981  0.00  0.00    -0.007 Br
ATOM     22 BR   UNL     1       8.587  -3.773   1.596  0.00  0.00    -0.046 Br
ENDBRANCH  15  16
ENDBRANCH  13  15
ENDBRANCH   4  13
TORSDOF 4
