REMARK  Name = ZINC29616535
REMARK  5 active torsions:
REMARK  status: ('A' for Active; 'I' for Inactive)
REMARK    1  A    between atoms: C_3  and  N_11
REMARK    2  A    between atoms: C_5  and  N_7
REMARK    3  A    between atoms: C_12  and  C_14
REMARK    4  A    between atoms: C_15  and  C_16
REMARK    5  A    between atoms: C_20  and  C_22
REMARK                            x       y       z     vdW  Elec       q    Type
REMARK                         _______ _______ _______ _____ _____    ______ ____
ROOT
ATOM      1  N   UNL     1       2.442   1.120  -0.087  0.00  0.00    -0.282 N 
ATOM      2  C   UNL     1       3.554   1.878  -0.165  0.00  0.00    +0.241 C 
ATOM      3  O   UNL     1       3.467   3.092  -0.123  0.00  0.00    -0.270 OA
ATOM      4  H   UNL     1       2.526   0.025  -0.041  0.00  0.00    +0.155 HD
ENDROOT
BRANCH   1   7
ATOM      5  C   UNL     1      -1.097   1.756   0.685  0.00  0.00    +0.004 A 
ATOM      6  C   UNL     1       0.148   1.156   0.664  0.00  0.00    +0.023 A 
ATOM      7  C   UNL     1       1.183   1.727  -0.067  0.00  0.00    +0.035 A 
ATOM      8  C   UNL     1       0.965   2.900  -0.775  0.00  0.00    +0.046 A 
ATOM      9  C   UNL     1      -0.285   3.502  -0.747  0.00  0.00    +0.037 A 
ATOM     10  C   UNL     1      -1.317   2.923  -0.019  0.00  0.00    +0.023 A 
BRANCH   9  11
ATOM     11  N   UNL     1      -0.507   4.688  -1.456  0.00  0.00    -0.270 N 
ATOM     12  C   UNL     1      -1.333   5.628  -0.955  0.00  0.00    +0.301 C 
ATOM     13  O   UNL     1      -1.950   5.411   0.070  0.00  0.00    -0.253 OA
ATOM     14  N   UNL     1      -1.475   6.808  -1.590  0.00  0.00    -0.313 N 
ATOM     15  H   UNL     1      -0.007   4.854  -2.421  0.00  0.00    +0.156 HD
ATOM     16  H   UNL     1      -2.150   7.575  -1.181  0.00  0.00    +0.146 HD
ATOM     17  H   UNL     1      -0.917   7.005  -2.517  0.00  0.00    +0.146 HD
ENDBRANCH   9  11
ENDBRANCH   1   7
BRANCH   2  18
ATOM     18  C   UNL     1       4.865   1.242  -0.299  0.00  0.00    +0.068 C 
ATOM     19  C   UNL     1       5.978   2.001  -0.376  0.00  0.00    +0.013 C 
BRANCH  19  20
ATOM     20  C   UNL     1       7.296   1.361  -0.511  0.00  0.00    -0.024 A 
ATOM     21  C   UNL     1       7.399  -0.033  -0.560  0.00  0.00    +0.009 A 
ATOM     22  C   UNL     1       8.637  -0.625  -0.687  0.00  0.00    +0.021 A 
ATOM     23  C   UNL     1       9.778   0.157  -0.766  0.00  0.00    +0.053 A 
ATOM     24  C   UNL     1       9.684   1.539  -0.718  0.00  0.00    +0.074 A 
ATOM     25  C   UNL     1       8.451   2.145  -0.598  0.00  0.00    +0.021 A 
ATOM     26 CL   UNL     1      11.334  -0.597  -0.925  0.00  0.00    -0.083 Cl
BRANCH  24  27
ATOM     27  C   UNL     1      10.930   2.381  -0.805  0.00  0.00    +0.419 C 
ATOM     28  F   UNL     1      10.584   3.735  -0.735  0.00  0.00    -0.166 F 
ATOM     29  F   UNL     1      11.783   2.062   0.258  0.00  0.00    -0.166 F 
ATOM     30  F   UNL     1      11.581   2.127  -2.017  0.00  0.00    -0.166 F 
ENDBRANCH  24  27
ENDBRANCH  19  20
ENDBRANCH   2  18
TORSDOF 5
