REMARK  Name = ZINC54978281
REMARK  6 active torsions:
REMARK  status: ('A' for Active; 'I' for Inactive)
REMARK    1  A    between atoms: C_1  and  C_2
REMARK    2  A    between atoms: C_7  and  C_23
REMARK    3  A    between atoms: C_10  and  C_12
REMARK    4  A    between atoms: C_12  and  N_13
REMARK    5  A    between atoms: N_16  and  C_19
REMARK    6  A    between atoms: C_19  and  C_20
REMARK                            x       y       z     vdW  Elec       q    Type
REMARK                         _______ _______ _______ _____ _____    ______ ____
ROOT
ATOM      1  N   UNL     1       2.372   1.033   4.302  0.00  0.00    -0.292 NA
ATOM      2  C   UNL     1       3.142   2.005   3.514  0.00  0.00    +0.100 C 
ATOM      3  C   UNL     1       3.531   3.187   4.405  0.00  0.00    +0.100 C 
ATOM      4  N   UNL     1       4.318   2.697   5.546  0.00  0.00    -0.292 NA
ATOM      5  C   UNL     1       3.548   1.725   6.335  0.00  0.00    +0.100 C 
ATOM      6  C   UNL     1       3.158   0.543   5.443  0.00  0.00    +0.100 C 
ENDROOT
BRANCH   1   7
ATOM      7  C   UNL     1       1.914  -0.082   3.462  0.00  0.00    +0.180 C 
BRANCH   7  15
ATOM      8  C   UNL     1      -0.340   1.748   0.478  0.00  0.00    +0.028 C 
ATOM      9  C   UNL     1      -0.021   0.278   0.196  0.00  0.00    +0.073 C 
ATOM     10  C   UNL     1      -1.315  -0.474  -0.133  0.00  0.00    +0.022 C 
ATOM     11  C   UNL     1      -1.009  -1.967  -0.276  0.00  0.00    +0.004 C 
ATOM     12  C   UNL     1      -0.460  -2.507   1.047  0.00  0.00    +0.022 C 
ATOM     13  C   UNL     1       0.843  -1.777   1.389  0.00  0.00    +0.073 C 
ATOM     14  N   UNL     1       0.593  -0.329   1.385  0.00  0.00    -0.295 N 
ATOM     15  C   UNL     1       0.917   0.427   2.453  0.00  0.00    +0.230 C 
ATOM     16  O   UNL     1       0.406   1.517   2.601  0.00  0.00    -0.274 OA
ATOM     17  C   UNL     1       1.326  -2.214   2.774  0.00  0.00    +0.028 C 
ENDBRANCH   7  15
ENDBRANCH   1   7
BRANCH   4  18
ATOM     18  C   UNL     1       4.776   3.812   6.387  0.00  0.00    +0.180 C 
BRANCH  18  19
ATOM     19  C   UNL     1       5.773   3.303   7.396  0.00  0.00    +0.225 C 
ATOM     20  O   UNL     1       6.073   2.128   7.413  0.00  0.00    -0.275 OA
ATOM     21  N   UNL     1       6.332   4.154   8.279  0.00  0.00    -0.328 N 
ATOM     22  H   UNL     1       6.092   5.094   8.265  0.00  0.00    +0.145 HD
ATOM     23  H   UNL     1       6.974   3.827   8.928  0.00  0.00    +0.145 HD
ENDBRANCH  18  19
ENDBRANCH   4  18
TORSDOF 4
