REMARK  Name = ZINC60164733
REMARK  12 active torsions:
REMARK  status: ('A' for Active; 'I' for Inactive)
REMARK    1  A    between atoms: C_1  and  C_2
REMARK    2  A    between atoms: C_2  and  C_3
REMARK    3  A    between atoms: C_3  and  C_5
REMARK    4  A    between atoms: C_3  and  N_6
REMARK    5  A    between atoms: C_7  and  C_9
REMARK    6  A    between atoms: C_9  and  C_11
REMARK    7  A    between atoms: C_9  and  N_12
REMARK    8  A    between atoms: C_13  and  C_15
REMARK    9  A    between atoms: C_15  and  N_16
REMARK   10  A    between atoms: C_21  and  C_28
REMARK   11  A    between atoms: C_24  and  C_26
REMARK   12  A    between atoms: C_24  and  C_27
REMARK                            x       y       z     vdW  Elec       q    Type
REMARK                         _______ _______ _______ _____ _____    ______ ____
ROOT
ATOM      1  N   UNL     1       7.715   2.554   4.680  0.00  0.00    -0.215 N 
ATOM      2  C   UNL     1       9.003   2.176   4.540  0.00  0.00    +0.247 C 
ATOM      3  O   UNL     1       9.416   1.080   4.227  0.00  0.00    -0.273 OA
ATOM      4  C   UNL     1       9.822   3.406   4.856  0.00  0.00    +0.113 C 
ATOM      5  C   UNL     1      10.651   3.818   3.646  0.00  0.00    +0.038 C 
ATOM      6  C   UNL     1      11.449   5.082   3.977  0.00  0.00    -0.011 C 
ATOM      7  C   UNL     1      12.363   4.808   5.173  0.00  0.00    +0.009 C 
ATOM      8  C   UNL     1      11.515   4.419   6.386  0.00  0.00    -0.032 C 
ATOM      9  C   UNL     1      10.718   3.152   6.064  0.00  0.00    +0.041 C 
ATOM     10  C   UNL     1      12.430   4.156   7.584  0.00  0.00    +0.011 C 
ATOM     11  C   UNL     1      10.550   5.558   6.720  0.00  0.00    +0.011 C 
ATOM     12  C   UNL     1      12.297   5.482   2.767  0.00  0.00    +0.007 C 
ATOM     13  N   UNL     1       8.819   4.432   5.167  0.00  0.00    -0.285 N 
ATOM     14  C   UNL     1       7.616   3.842   5.032  0.00  0.00    +0.310 C 
ATOM     15  O   UNL     1       6.558   4.413   5.213  0.00  0.00    -0.252 OA
ATOM     16  H   UNL     1       8.989   5.354   5.416  0.00  0.00    +0.151 HD
ENDROOT
BRANCH   1  17
ATOM     17  C   UNL     1       6.569   1.667   4.467  0.00  0.00    +0.213 C 
BRANCH  17  19
ATOM     18  N   UNL     1       5.099   0.998   2.593  0.00  0.00    -0.303 N 
ATOM     19  C   UNL     1       6.142   1.736   3.023  0.00  0.00    +0.232 C 
ATOM     20  O   UNL     1       6.737   2.454   2.249  0.00  0.00    -0.274 OA
ATOM     21  H   UNL     1       4.623   0.424   3.213  0.00  0.00    +0.149 HD
BRANCH  18  22
ATOM     22  C   UNL     1       4.685   1.065   1.190  0.00  0.00    +0.156 C 
ATOM     23  C   UNL     1       5.526   0.090   0.363  0.00  0.00    +0.038 C 
BRANCH  22  25
ATOM     24  N   UNL     1       2.626   0.683  -0.128  0.00  0.00    -0.311 N 
ATOM     25  C   UNL     1       3.229   0.692   1.078  0.00  0.00    +0.233 C 
ATOM     26  O   UNL     1       2.600   0.399   2.073  0.00  0.00    -0.274 OA
ATOM     27  H   UNL     1       3.129   0.917  -0.923  0.00  0.00    +0.149 HD
BRANCH  24  28
ATOM     28  C   UNL     1       1.211   0.320  -0.236  0.00  0.00    +0.070 C 
ATOM     29  C   UNL     1       1.080  -1.202  -0.323  0.00  0.00    +0.028 C 
BRANCH  28  31
ATOM     30  C   UNL     1       0.634   2.480  -1.353  0.00  0.00    +0.005 C 
ATOM     31  C   UNL     1       0.617   0.956  -1.495  0.00  0.00    +0.018 C 
ENDBRANCH  28  31
ENDBRANCH  24  28
ENDBRANCH  22  25
ENDBRANCH  18  22
ENDBRANCH  17  19
ENDBRANCH   1  17
TORSDOF 6
