REMARK  Name = ZINC53168562
REMARK  4 active torsions:
REMARK  status: ('A' for Active; 'I' for Inactive)
REMARK    1  A    between atoms: C_1  and  N_2
REMARK    2  A    between atoms: C_4  and  S_7
REMARK    3  A    between atoms: S_7  and  C_8
REMARK    4  A    between atoms: C_9  and  N_16
REMARK                            x       y       z     vdW  Elec       q    Type
REMARK                         _______ _______ _______ _____ _____    ______ ____
ROOT
ATOM      1  C   UNL     1       0.066  -4.862  -0.566  0.00  0.00    +0.071 A 
ATOM      2  C   UNL     1       1.281  -5.376  -0.115  0.00  0.00    +0.041 A 
ATOM      3  C   UNL     1       1.294  -6.433   0.781  0.00  0.00    +0.027 A 
ATOM      4  C   UNL     1       0.104  -6.978   1.228  0.00  0.00    +0.043 A 
ATOM      5  C   UNL     1      -1.104  -6.470   0.782  0.00  0.00    +0.160 A 
ATOM      6  C   UNL     1      -1.127  -5.410  -0.111  0.00  0.00    +0.174 A 
ATOM      7  F   UNL     1      -2.307  -4.913  -0.541  0.00  0.00    -0.201 F 
ATOM      8  F   UNL     1      -2.264  -7.006   1.221  0.00  0.00    -0.202 F 
ENDROOT
BRANCH   2   9
ATOM      9  N   UNL     1       2.487  -4.824  -0.568  0.00  0.00    -0.357 N 
ATOM     10  H   UNL     1       2.477  -4.085  -1.196  0.00  0.00    +0.142 HD
ATOM     11  H   UNL     1       3.333  -5.182  -0.253  0.00  0.00    +0.142 HD
ENDBRANCH   2   9
BRANCH   1  12
ATOM     12  S   UNL     1       0.042  -3.518  -1.706  0.00  0.00    -0.082 S 
BRANCH  12  16
ATOM     13  C   UNL     1      -0.018   1.461   0.010  0.00  0.00    +0.172 C 
ATOM     14  N   UNL     1       0.002  -0.004   0.002  0.00  0.00    -0.273 N 
ATOM     15  C   UNL     1       0.008  -0.798  -1.101  0.00  0.00    +0.123 A 
ATOM     16  C   UNL     1       0.027  -2.088  -0.677  0.00  0.00    +0.050 A 
ATOM     17  C   UNL     1       0.034  -2.079   0.726  0.00  0.00    +0.149 A 
ATOM     18  N   UNL     1       0.025  -0.835   1.130  0.00  0.00    -0.179 NA
ENDBRANCH  12  16
ENDBRANCH   1  12
TORSDOF 3
