REMARK  Name = ZINC07976652
REMARK  5 active torsions:
REMARK  status: ('A' for Active; 'I' for Inactive)
REMARK    1  A    between atoms: C_1  and  C_2
REMARK    2  A    between atoms: C_2  and  C_4
REMARK    3  A    between atoms: C_2  and  S_15
REMARK    4  A    between atoms: N_6  and  C_7
REMARK    5  A    between atoms: S_15  and  C_16
REMARK                            x       y       z     vdW  Elec       q    Type
REMARK                         _______ _______ _______ _____ _____    ______ ____
ROOT
ATOM      1  C   UNL     1      -0.028   1.508   0.025  0.00  0.00    +0.029 C 
ATOM      2  C   UNL     1      -0.002  -0.021   0.006  0.00  0.00    +0.137 C 
ENDROOT
BRANCH   2   3
ATOM      3  C   UNL     1       0.706  -0.496  -1.237  0.00  0.00    +0.230 C 
ATOM      4  O   UNL     1       1.864  -0.852  -1.176  0.00  0.00    -0.274 OA
ATOM      5  N   UNL     1       0.053  -0.526  -2.415  0.00  0.00    -0.283 N 
ATOM      6  H   UNL     1      -0.891  -0.304  -2.453  0.00  0.00    +0.155 HD
BRANCH   5   7
ATOM      7  C   UNL     1       0.736  -0.877  -3.586  0.00  0.00    +0.053 A 
ATOM      8  C   UNL     1       1.748  -1.827  -3.542  0.00  0.00    +0.025 A 
ATOM      9  C   UNL     1       2.421  -2.172  -4.698  0.00  0.00    +0.003 A 
ATOM     10  C   UNL     1       2.087  -1.573  -5.899  0.00  0.00    +0.021 A 
ATOM     11  C   UNL     1       1.079  -0.627  -5.947  0.00  0.00    +0.061 A 
ATOM     12  C   UNL     1       0.398  -0.281  -4.794  0.00  0.00    +0.080 A 
ATOM     13 CL   UNL     1      -0.871   0.901  -4.856  0.00  0.00    -0.080 Cl
ATOM     14 CL   UNL     1       0.665   0.123  -7.457  0.00  0.00    -0.082 Cl
ENDBRANCH   5   7
ENDBRANCH   2   3
BRANCH   2  15
ATOM     15  S   UNL     1       0.875  -0.629   1.472  0.00  0.00    -0.072 S 
BRANCH  15  16
ATOM     16  C   UNL     1      -0.143  -0.124   2.818  0.00  0.00    +0.211 A 
ATOM     17  N   UNL     1       0.110  -0.351   4.112  0.00  0.00    -0.188 NA
ATOM     18  C   UNL     1      -0.853   0.161   4.848  0.00  0.00    +0.209 A 
ATOM     19  N   UNL     1      -1.752   0.732   4.019  0.00  0.00    -0.246 N 
ATOM     20  H   UNL     1      -2.569   1.190   4.274  0.00  0.00    +0.192 HD
ATOM     21  N   UNL     1      -1.269   0.540   2.715  0.00  0.00    -0.144 NA
ATOM     22  N   UNL     1      -0.932   0.120   6.228  0.00  0.00    -0.328 N 
ATOM     23  H   UNL     1      -0.233  -0.316   6.741  0.00  0.00    +0.145 HD
ATOM     24  H   UNL     1      -1.685   0.528   6.684  0.00  0.00    +0.145 HD
ENDBRANCH  15  16
ENDBRANCH   2  15
TORSDOF 4
