REMARK  Name = ZINC62312897
REMARK  6 active torsions:
REMARK  status: ('A' for Active; 'I' for Inactive)
REMARK    1  A    between atoms: C_6  and  N_7
REMARK    2  A    between atoms: C_8  and  C_10
REMARK    3  A    between atoms: C_10  and  N_11
REMARK    4  A    between atoms: C_12  and  C_14
REMARK    5  A    between atoms: C_14  and  C_15
REMARK    6  A    between atoms: C_15  and  C_16
REMARK                            x       y       z     vdW  Elec       q    Type
REMARK                         _______ _______ _______ _____ _____    ______ ____
ROOT
ATOM      1  C   UNL     1      -3.660  -0.844   0.249  0.00  0.00    +0.200 C 
ENDROOT
BRANCH   1   3
ATOM      2  N   UNL     1      -1.202  -0.721   0.010  0.00  0.00    -0.284 N 
ATOM      3  C   UNL     1      -2.374  -0.068   0.127  0.00  0.00    +0.234 C 
ATOM      4  O   UNL     1      -2.395   1.145   0.134  0.00  0.00    -0.274 OA
ATOM      5  H   UNL     1      -1.191  -1.688  -0.072  0.00  0.00    +0.155 HD
BRANCH   2  11
ATOM      6  C   UNL     1       0.122   1.154   0.763  0.00  0.00    +0.027 A 
ATOM      7  C   UNL     1       1.309   1.862   0.762  0.00  0.00    +0.051 A 
ATOM      8  C   UNL     1       2.383   1.417   0.008  0.00  0.00    +0.166 A 
ATOM      9  C   UNL     1       2.266   0.255  -0.751  0.00  0.00    +0.168 A 
ATOM     10  C   UNL     1       1.076  -0.454  -0.750  0.00  0.00    +0.072 A 
ATOM     11  C   UNL     1       0.002  -0.004   0.008  0.00  0.00    +0.037 A 
ATOM     12  O   UNL     1       3.448   0.034  -1.396  0.00  0.00    -0.453 OA
ATOM     13  C   UNL     1       4.153   1.288  -1.348  0.00  0.00    +0.466 C 
ATOM     14  O   UNL     1       3.640   1.924  -0.162  0.00  0.00    -0.453 OA
ENDBRANCH   2  11
ENDBRANCH   1   3
BRANCH   1  15
ATOM     15  N   UNL     1      -4.785   0.089   0.363  0.00  0.00    -0.307 N 
ATOM     16  C   UNL     1      -6.042  -0.382   0.483  0.00  0.00    +0.213 C 
ATOM     17  O   UNL     1      -6.242  -1.578   0.498  0.00  0.00    -0.276 OA
ATOM     18  H   UNL     1      -4.624   1.046   0.351  0.00  0.00    +0.149 HD
BRANCH  16  19
ATOM     19  C   UNL     1      -7.198   0.577   0.600  0.00  0.00    +0.096 C 
BRANCH  19  20
ATOM     20  C   UNL     1      -8.504  -0.211   0.724  0.00  0.00    +0.014 C 
BRANCH  20  21
ATOM     21  C   UNL     1      -9.678   0.763   0.842  0.00  0.00    +0.012 C 
ATOM     22  C   UNL     1      -9.816   1.557  -0.467  0.00  0.00    +0.028 C 
ATOM     23  C   UNL     1     -11.183   2.299  -0.442  0.00  0.00    +0.166 C 
ATOM     24  S   UNL     1     -12.260   0.995   0.290  0.00  0.00    -0.031 S 
ATOM     25  O   UNL     1     -12.850   0.240  -0.759  0.00  0.00    -0.174 OA
ATOM     26  O   UNL     1     -13.092   1.585   1.280  0.00  0.00    -0.174 OA
ATOM     27  C   UNL     1     -10.978  -0.030   1.117  0.00  0.00    +0.169 C 
ENDBRANCH  20  21
ENDBRANCH  19  20
ENDBRANCH  16  19
ENDBRANCH   1  15
TORSDOF 6
