REMARK  Name = ZINC36378051
REMARK  4 active torsions:
REMARK  status: ('A' for Active; 'I' for Inactive)
REMARK    1  A    between atoms: C_1  and  C_2
REMARK    2  A    between atoms: C_2  and  C_5
REMARK    3  A    between atoms: N_3  and  N_4
REMARK    4  A    between atoms: C_7  and  C_18
REMARK                            x       y       z     vdW  Elec       q    Type
REMARK                         _______ _______ _______ _____ _____    ______ ____
ROOT
ATOM      1  C   UNL     1       0.028  -0.758  -1.360  0.00  0.00    +0.152 C 
ATOM      2  C   UNL     1       0.244  -2.217  -1.007  0.00  0.00    -0.014 C 
ATOM      3  C   UNL     1      -0.757  -3.116  -1.387  0.00  0.00    +0.002 A 
ATOM      4  C   UNL     1      -0.637  -4.492  -1.098  0.00  0.00    +0.025 A 
ATOM      5  C   UNL     1      -1.626  -5.346  -1.479  0.00  0.00    +0.019 A 
ATOM      6  C   UNL     1      -2.759  -4.889  -2.151  0.00  0.00    +0.017 A 
ATOM      7  C   UNL     1      -2.930  -3.573  -2.457  0.00  0.00    +0.025 A 
ATOM      8  C   UNL     1      -1.948  -2.634  -2.094  0.00  0.00    +0.041 A 
ATOM      9  N   UNL     1      -2.118  -1.342  -2.397  0.00  0.00    -0.284 N 
ATOM     10  C   UNL     1      -1.247  -0.402  -2.090  0.00  0.00    +0.230 C 
ATOM     11  O   UNL     1      -1.469   0.755  -2.397  0.00  0.00    -0.274 OA
ATOM     12 BR   UNL     1      -1.460  -7.189  -1.089  0.00  0.00    -0.050 Br
ATOM     13  H   UNL     1      -2.927  -1.083  -2.866  0.00  0.00    +0.155 HD
ENDROOT
BRANCH   2  14
ATOM     14  C   UNL     1       1.408  -2.650  -0.323  0.00  0.00    -0.020 A 
ATOM     15  C   UNL     1       1.302  -3.248   0.943  0.00  0.00    +0.008 A 
ATOM     16  C   UNL     1       2.439  -3.665   1.599  0.00  0.00    +0.001 A 
ATOM     17  C   UNL     1       3.683  -3.496   1.014  0.00  0.00    +0.000 A 
ATOM     18  C   UNL     1       3.798  -2.907  -0.235  0.00  0.00    +0.001 A 
ATOM     19  C   UNL     1       2.674  -2.489  -0.910  0.00  0.00    +0.008 A 
ENDBRANCH   2  14
BRANCH   1  21
ATOM     20  C   UNL     1       0.080   1.544  -0.131  0.00  0.00    +0.063 C 
ATOM     21  C   UNL     1       0.067   0.038  -0.081  0.00  0.00    +0.049 C 
ATOM     22  N   UNL     1       0.088  -0.565   1.048  0.00  0.00    -0.198 NA
BRANCH  22  23
ATOM     23  N   UNL     1       0.123   0.174   2.237  0.00  0.00    -0.283 N 
ATOM     24  H   UNL     1       0.139  -0.283   3.092  0.00  0.00    +0.164 HD
ATOM     25  H   UNL     1       0.132   1.144   2.205  0.00  0.00    +0.164 HD
ENDBRANCH  22  23
ENDBRANCH   1  21
TORSDOF 3
