REMARK  Name = ZINC62951524
REMARK  6 active torsions:
REMARK  status: ('A' for Active; 'I' for Inactive)
REMARK    1  A    between atoms: C_1  and  C_2
REMARK    2  A    between atoms: C_2  and  C_3
REMARK    3  A    between atoms: C_3  and  C_20
REMARK    4  A    between atoms: C_9  and  C_11
REMARK    5  A    between atoms: C_11  and  N_12
REMARK    6  A    between atoms: C_14  and  N_19
REMARK                            x       y       z     vdW  Elec       q    Type
REMARK                         _______ _______ _______ _____ _____    ______ ____
ROOT
ATOM      1  C   UNL     1      -1.433  -0.534   0.013  0.00  0.00    -0.029 C 
ATOM      2  C   UNL     1      -2.174  -0.025  -1.226  0.00  0.00    +0.025 C 
ATOM      3  C   UNL     1      -3.620  -0.529  -1.194  0.00  0.00    +0.108 C 
ATOM      4  N   UNL     1      -3.609  -1.992  -1.056  0.00  0.00    -0.300 N 
ATOM      5  C   UNL     1      -2.850  -2.591   0.050  0.00  0.00    +0.108 C 
ATOM      6  C   UNL     1      -1.412  -2.064   0.004  0.00  0.00    +0.025 C 
ATOM      7  C   UNL     1      -4.282  -2.769  -1.927  0.00  0.00    +0.235 C 
ATOM      8  O   UNL     1      -4.904  -2.262  -2.837  0.00  0.00    -0.274 OA
ATOM      9  C   UNL     1      -2.149  -0.041   1.272  0.00  0.00    +0.011 C 
ENDROOT
BRANCH   1  11
ATOM     10  C   UNL     1      -0.019   1.526   0.010  0.00  0.00    +0.004 C 
ATOM     11  C   UNL     1       0.002  -0.004   0.002  0.00  0.00    +0.003 C 
ENDBRANCH   1  11
BRANCH   7  12
ATOM     12  C   UNL     1      -4.260  -4.268  -1.772  0.00  0.00    +0.220 C 
BRANCH  12  13
ATOM     13  N   UNL     1      -5.061  -4.880  -2.835  0.00  0.00    -0.305 N 
ATOM     14  C   UNL     1      -6.389  -5.098  -2.636  0.00  0.00    +0.112 A 
ATOM     15  C   UNL     1      -7.150  -5.665  -3.608  0.00  0.00    +0.041 A 
ATOM     16  C   UNL     1      -6.563  -6.030  -4.833  0.00  0.00    +0.029 A 
ATOM     17  C   UNL     1      -5.231  -5.808  -5.025  0.00  0.00    +0.072 A 
ATOM     18  C   UNL     1      -4.475  -5.215  -4.000  0.00  0.00    +0.252 A 
ATOM     19  O   UNL     1      -3.283  -5.007  -4.165  0.00  0.00    -0.268 OA
BRANCH  15  20
ATOM     20  N   UNL     1      -8.518  -5.886  -3.391  0.00  0.00    -0.357 N 
ATOM     21  H   UNL     1      -8.922  -5.634  -2.546  0.00  0.00    +0.142 HD
ATOM     22  H   UNL     1      -9.061  -6.291  -4.086  0.00  0.00    +0.142 HD
ENDBRANCH  15  20
ENDBRANCH  12  13
ENDBRANCH   7  12
TORSDOF 4
