REMARK  Name = ZINC63913472
REMARK  7 active torsions:
REMARK  status: ('A' for Active; 'I' for Inactive)
REMARK    1  A    between atoms: C_1  and  C_2
REMARK    2  A    between atoms: N_4  and  C_5
REMARK    3  A    between atoms: C_5  and  C_7
REMARK    4  A    between atoms: C_5  and  C_17
REMARK    5  A    between atoms: C_7  and  C_8
REMARK    6  A    between atoms: N_19  and  C_20
REMARK    7  A    between atoms: N_29  and  C_30
REMARK                            x       y       z     vdW  Elec       q    Type
REMARK                         _______ _______ _______ _____ _____    ______ ____
ROOT
ATOM      1  C   UNL     1      -1.136  -2.159   0.001  0.00  0.00    +0.163 C 
ENDROOT
BRANCH   1   5
ATOM      2  C   UNL     1      -0.018   1.503   0.010  0.00  0.00    +0.109 C 
ATOM      3  C   UNL     1       0.002  -0.004   0.002  0.00  0.00    +0.211 C 
ATOM      4  O   UNL     1       1.060  -0.596  -0.011  0.00  0.00    -0.276 OA
ATOM      5  N   UNL     1      -1.156  -0.694   0.009  0.00  0.00    -0.304 N 
ATOM      6  H   UNL     1      -2.002  -0.220   0.020  0.00  0.00    +0.149 HD
ENDBRANCH   1   5
BRANCH   1   7
ATOM      7  C   UNL     1      -0.431  -2.645  -1.239  0.00  0.00    +0.234 C 
ATOM      8  O   UNL     1       0.315  -1.903  -1.842  0.00  0.00    -0.274 OA
ATOM      9  N   UNL     1      -0.628  -3.904  -1.677  0.00  0.00    -0.307 N 
ATOM     10  H   UNL     1      -1.225  -4.497  -1.194  0.00  0.00    +0.149 HD
BRANCH   9  11
ATOM     11  C   UNL     1       0.057  -4.376  -2.882  0.00  0.00    +0.107 C 
ATOM     12  C   UNL     1       0.180  -5.904  -2.841  0.00  0.00    +0.027 C 
ATOM     13  C   UNL     1       0.658  -6.416  -4.203  0.00  0.00    +0.008 C 
ATOM     14  C   UNL     1      -0.462  -6.243  -5.237  0.00  0.00    +0.055 C 
ATOM     15  C   UNL     1      -0.974  -4.827  -5.151  0.00  0.00    +0.044 A 
ATOM     16  C   UNL     1      -0.742  -3.995  -4.103  0.00  0.00    +0.013 A 
ATOM     17  C   UNL     1      -1.362  -2.777  -4.374  0.00  0.00    +0.140 A 
ATOM     18  N   UNL     1      -1.949  -2.871  -5.543  0.00  0.00    -0.179 NA
ATOM     19  N   UNL     1      -1.717  -4.160  -6.049  0.00  0.00    -0.271 N 
ATOM     20  C   UNL     1      -2.199  -4.684  -7.330  0.00  0.00    +0.172 C 
ENDBRANCH   9  11
ENDBRANCH   1   7
BRANCH   1  21
ATOM     21  C   UNL     1      -0.396  -2.665   1.241  0.00  0.00    +0.065 C 
BRANCH  21  22
ATOM     22  C   UNL     1      -1.168  -2.284   2.478  0.00  0.00    -0.039 C 
ATOM     23  C   UNL     1      -2.060  -3.049   3.148  0.00  0.00    -0.001 A 
ATOM     24  C   UNL     1      -2.559  -4.412   2.933  0.00  0.00    +0.010 A 
ATOM     25  C   UNL     1      -3.473  -4.919   3.793  0.00  0.00    +0.001 A 
ATOM     26  C   UNL     1      -3.953  -4.176   4.880  0.00  0.00    +0.002 A 
ATOM     27  C   UNL     1      -3.541  -2.917   5.143  0.00  0.00    +0.026 A 
ATOM     28  C   UNL     1      -2.582  -2.286   4.304  0.00  0.00    +0.043 A 
ATOM     29  N   UNL     1      -2.034  -1.095   4.346  0.00  0.00    -0.380 N 
ATOM     30  C   UNL     1      -1.097  -0.971   3.225  0.00  0.00    +0.144 C 
ATOM     31  H   UNL     1      -2.216  -0.412   5.011  0.00  0.00    +0.160 HD
ENDBRANCH  21  22
ENDBRANCH   1  21
TORSDOF 5
