REMARK  Name = ZINC21983617
REMARK  7 active torsions:
REMARK  status: ('A' for Active; 'I' for Inactive)
REMARK    1  A    between atoms: C_1  and  C_2
REMARK    2  A    between atoms: C_17  and  C_31
REMARK    3  A    between atoms: C_23  and  C_30
REMARK    4  A    between atoms: C_24  and  C_25
REMARK    5  A    between atoms: C_24  and  O_29
REMARK    6  A    between atoms: C_25  and  C_27
REMARK    7  A    between atoms: C_27  and  O_28
REMARK                            x       y       z     vdW  Elec       q    Type
REMARK                         _______ _______ _______ _____ _____    ______ ____
ROOT
ATOM      1  C   UNL     1      -1.595   3.315   4.016  0.00  0.00    +0.011 C 
ATOM      2  C   UNL     1      -2.095   3.160   2.579  0.00  0.00    +0.026 C 
ATOM      3  C   UNL     1      -0.896   3.055   1.606  0.00  0.00    +0.011 C 
ATOM      4  C   UNL     1      -0.740   1.546   1.374  0.00  0.00    +0.003 C 
ATOM      5  C   UNL     1       0.088   1.160   0.185  0.00  0.00    +0.004 C 
ATOM      6  C   UNL     1       1.537   1.625   0.272  0.00  0.00    +0.009 C 
ATOM      7  C   UNL     1       1.642   3.139   0.212  0.00  0.00    +0.032 C 
ATOM      8  C   UNL     1       0.641   3.755  -0.723  0.00  0.00    -0.056 C 
ATOM      9  C   UNL     1       0.655   5.104  -0.818  0.00  0.00    +0.051 C 
ATOM     10  C   UNL     1      -0.322   5.719  -1.749  0.00  0.00    +0.179 C 
ATOM     11  O   UNL     1      -0.060   6.718  -2.401  0.00  0.00    -0.288 OA
ATOM     12  C   UNL     1      -1.641   5.042  -1.836  0.00  0.00    +0.047 C 
ATOM     13  C   UNL     1      -1.636   3.699  -1.743  0.00  0.00    -0.012 C 
ATOM     14  C   UNL     1      -0.339   2.980  -1.530  0.00  0.00    +0.017 C 
ATOM     15  C   UNL     1      -0.511   1.534  -1.157  0.00  0.00    +0.072 C 
ATOM     16  C   UNL     1      -1.961   1.111  -1.177  0.00  0.00    +0.138 C 
ATOM     17  O   UNL     1      -2.409   0.487  -2.115  0.00  0.00    -0.297 OA
ATOM     18  C   UNL     1      -2.844   1.472  -0.011  0.00  0.00    +0.084 C 
ATOM     19  C   UNL     1      -2.195   1.042   1.309  0.00  0.00    +0.014 C 
ATOM     20  C   UNL     1      -2.896   1.853   2.432  0.00  0.00    +0.134 C 
ATOM     21  C   UNL     1      -2.297  -0.466   1.540  0.00  0.00    +0.015 C 
ATOM     22  C   UNL     1       0.288   2.916  -2.929  0.00  0.00    +0.021 C 
ENDROOT
BRANCH  20  23
ATOM     23  C   UNL     1      -2.872   1.081   3.726  0.00  0.00    +0.190 C 
ATOM     24  O   UNL     1      -1.926   0.379   3.992  0.00  0.00    -0.292 OA
BRANCH  23  25
ATOM     25  C   UNL     1      -4.027   1.185   4.687  0.00  0.00    +0.233 C 
BRANCH  25  26
ATOM     26  O   UNL     1      -3.771   0.367   5.831  0.00  0.00    -0.387 OA
ATOM     27  H   UNL     1      -4.507   0.315   6.646  0.00  0.00    +0.210 HD
ENDBRANCH  25  26
ENDBRANCH  23  25
ENDBRANCH  20  23
BRANCH  20  28
ATOM     28  O   UNL     1      -4.247   2.144   2.066  0.00  0.00    -0.380 OA
ATOM     29  H   UNL     1      -4.965   1.324   1.917  0.00  0.00    +0.211 HD
ENDBRANCH  20  28
TORSDOF 4
