REMARK  Name = ZINC67257353
REMARK  11 active torsions:
REMARK  status: ('A' for Active; 'I' for Inactive)
REMARK    1  A    between atoms: C_1  and  C_2
REMARK    2  A    between atoms: C_4  and  C_27
REMARK    3  A    between atoms: C_6  and  O_25
REMARK    4  A    between atoms: C_7  and  C_8
REMARK    5  A    between atoms: C_8  and  N_9
REMARK    6  A    between atoms: N_12  and  C_13
REMARK    7  A    between atoms: C_16  and  O_23
REMARK    8  A    between atoms: C_17  and  N_19
REMARK    9  A    between atoms: C_20  and  C_22
REMARK   10  A    between atoms: O_23  and  C_24
REMARK   11  A    between atoms: O_25  and  C_26
REMARK                            x       y       z     vdW  Elec       q    Type
REMARK                         _______ _______ _______ _____ _____    ______ ____
ROOT
ATOM      1  N   UNL     1      -1.385   0.225   2.927  0.00  0.00    -0.295 N 
ATOM      2  C   UNL     1      -1.623   0.847   4.099  0.00  0.00    +0.304 C 
ATOM      3  O   UNL     1      -0.694   1.231   4.783  0.00  0.00    -0.252 OA
ATOM      4  N   UNL     1      -2.891   1.042   4.512  0.00  0.00    -0.269 N 
ATOM      5  H   UNL     1      -2.126  -0.082   2.381  0.00  0.00    +0.151 HD
ATOM      6  H   UNL     1      -3.632   0.795   3.937  0.00  0.00    +0.156 HD
ENDROOT
BRANCH   4   7
ATOM      7  C   UNL     1      -3.138   1.602   5.773  0.00  0.00    +0.037 A 
ATOM      8  C   UNL     1      -2.289   2.578   6.277  0.00  0.00    +0.027 A 
ATOM      9  C   UNL     1      -2.531   3.132   7.520  0.00  0.00    +0.049 A 
ATOM     10  C   UNL     1      -3.622   2.715   8.266  0.00  0.00    +0.141 A 
ATOM     11  C   UNL     1      -4.475   1.736   7.763  0.00  0.00    +0.077 A 
ATOM     12  C   UNL     1      -4.235   1.185   6.514  0.00  0.00    +0.050 A 
BRANCH  11  13
ATOM     13  N   UNL     1      -5.579   1.313   8.516  0.00  0.00    -0.283 N 
ATOM     14  C   UNL     1      -5.982   0.029   8.458  0.00  0.00    +0.214 C 
ATOM     15  O   UNL     1      -5.442  -0.742   7.693  0.00  0.00    -0.276 OA
ATOM     16  C   UNL     1      -7.103  -0.451   9.344  0.00  0.00    +0.109 C 
ATOM     17  H   UNL     1      -6.053   1.945   9.079  0.00  0.00    +0.155 HD
ENDBRANCH  11  13
BRANCH  10  18
ATOM     18  O   UNL     1      -3.858   3.261   9.490  0.00  0.00    -0.493 OA
ATOM     19  C   UNL     1      -2.941   4.259   9.943  0.00  0.00    +0.277 C 
ENDBRANCH  10  18
ENDBRANCH   4   7
BRANCH   1  20
ATOM     20  C   UNL     1      -0.007   0.012   2.478  0.00  0.00    +0.146 C 
BRANCH  20  27
ATOM     21  C   UNL     1      -0.060   1.529  -0.014  0.00  0.00    +0.044 C 
ATOM     22  C   UNL     1      -0.041   0.023  -0.032  0.00  0.00    -0.039 A 
ATOM     23  C   UNL     1      -0.042  -0.674  -1.233  0.00  0.00    +0.027 A 
ATOM     24  C   UNL     1      -0.024  -2.054  -1.214  0.00  0.00    +0.042 A 
ATOM     25  N   UNL     1      -0.005  -2.714  -0.071  0.00  0.00    -0.218 NA
ATOM     26  C   UNL     1      -0.003  -2.087   1.093  0.00  0.00    +0.220 A 
ATOM     27  C   UNL     1      -0.015  -0.699   1.149  0.00  0.00    +0.034 A 
ATOM     28  C   UNL     1      -0.025  -2.816  -2.514  0.00  0.00    +0.066 C 
BRANCH  26  29
ATOM     29  O   UNL     1       0.016  -2.805   2.244  0.00  0.00    -0.479 OA
ATOM     30  C   UNL     1       0.033  -4.229   2.119  0.00  0.00    +0.279 C 
ENDBRANCH  26  29
ENDBRANCH  20  27
ENDBRANCH   1  20
TORSDOF 6
