REMARK  Name = ZINC11682521
REMARK  7 active torsions:
REMARK  status: ('A' for Active; 'I' for Inactive)
REMARK    1  A    between atoms: C_1  and  C_2
REMARK    2  A    between atoms: C_2  and  N_3
REMARK    3  A    between atoms: C_7  and  C_9
REMARK    4  A    between atoms: C_9  and  C_11
REMARK    5  A    between atoms: C_9  and  S_17
REMARK    6  A    between atoms: S_17  and  C_18
REMARK    7  A    between atoms: N_22  and  C_27
REMARK                            x       y       z     vdW  Elec       q    Type
REMARK                         _______ _______ _______ _____ _____    ______ ____
ROOT
ATOM      1  C   UNL     1       3.672   2.182  -0.024  0.00  0.00    +0.169 C 
ENDROOT
BRANCH   1   6
ATOM      2  N   UNL     1       4.756   2.780   4.621  0.00  0.00    -0.299 N 
ATOM      3  C   UNL     1       4.290   3.297   3.467  0.00  0.00    +0.306 C 
ATOM      4  O   UNL     1       3.935   4.458   3.421  0.00  0.00    -0.252 OA
ATOM      5  N   UNL     1       4.218   2.526   2.364  0.00  0.00    -0.239 N 
ATOM      6  C   UNL     1       3.752   3.043   1.210  0.00  0.00    +0.238 C 
ATOM      7  O   UNL     1       3.398   4.202   1.164  0.00  0.00    -0.274 OA
ATOM      8  H   UNL     1       5.040   1.853   4.657  0.00  0.00    +0.150 HD
ATOM      9  H   UNL     1       4.502   1.599   2.400  0.00  0.00    +0.159 HD
BRANCH   2  11
ATOM     10  C   UNL     1       5.394   2.793   6.982  0.00  0.00    +0.024 C 
ATOM     11  C   UNL     1       4.835   3.617   5.820  0.00  0.00    +0.102 C 
ENDBRANCH   2  11
ENDBRANCH   1   6
BRANCH   1  12
ATOM     12  C   UNL     1       2.377   1.411  -0.015  0.00  0.00    -0.025 A 
ATOM     13  C   UNL     1       1.171   2.086   0.002  0.00  0.00    +0.005 A 
ATOM     14  C   UNL     1      -0.017   1.378   0.010  0.00  0.00    +0.000 A 
ATOM     15  C   UNL     1       0.002  -0.004   0.002  0.00  0.00    +0.000 A 
ATOM     16  C   UNL     1       1.208  -0.679  -0.013  0.00  0.00    +0.000 A 
ATOM     17  C   UNL     1       2.396   0.029  -0.022  0.00  0.00    +0.005 A 
ENDBRANCH   1  12
BRANCH   1  18
ATOM     18  S   UNL     1       3.739   3.231  -1.498  0.00  0.00    -0.088 S 
BRANCH  18  19
ATOM     19  C   UNL     1       3.781   1.994  -2.752  0.00  0.00    +0.112 A 
ATOM     20  C   UNL     1       3.832   2.349  -4.115  0.00  0.00    +0.070 A 
ATOM     21  C   UNL     1       3.863   3.570  -4.822  0.00  0.00    +0.147 A 
ATOM     22  N   UNL     1       3.909   3.307  -6.097  0.00  0.00    -0.177 NA
ATOM     23  N   UNL     1       3.921   1.920  -6.293  0.00  0.00    -0.249 N 
ATOM     24  C   UNL     1       3.868   1.317  -5.072  0.00  0.00    +0.162 A 
ATOM     25  N   UNL     1       3.842   0.051  -4.654  0.00  0.00    -0.216 NA
ATOM     26  C   UNL     1       3.789  -0.231  -3.371  0.00  0.00    +0.224 A 
ATOM     27  N   UNL     1       3.759   0.703  -2.436  0.00  0.00    -0.228 NA
ATOM     28  C   UNL     1       3.967   1.237  -7.588  0.00  0.00    +0.174 C 
ENDBRANCH  18  19
ENDBRANCH   1  18
TORSDOF 5
