REMARK  Name = ZINC14009742
REMARK  4 active torsions:
REMARK  status: ('A' for Active; 'I' for Inactive)
REMARK    1  A    between atoms: C_5  and  C_7
REMARK    2  A    between atoms: C_7  and  N_8
REMARK    3  A    between atoms: C_12  and  C_13
REMARK    4  A    between atoms: C_16  and  O_20
REMARK                            x       y       z     vdW  Elec       q    Type
REMARK                         _______ _______ _______ _____ _____    ______ ____
ROOT
ATOM      1  N   UNL     1       1.446  -3.070   1.240  0.00  0.00    -0.216 N 
ATOM      2  C   UNL     1       2.663  -3.353   1.748  0.00  0.00    +0.269 C 
ATOM      3  O   UNL     1       3.703  -3.477   1.129  0.00  0.00    -0.268 OA
ATOM      4  C   UNL     1       2.479  -3.482   3.202  0.00  0.00    +0.098 C 
ATOM      5  C   UNL     1       3.428  -3.761   4.131  0.00  0.00    +0.036 C 
ATOM      6  N   UNL     1       1.114  -3.252   3.421  0.00  0.00    -0.265 N 
ATOM      7  C   UNL     1       0.543  -3.007   2.229  0.00  0.00    +0.313 C 
ATOM      8  O   UNL     1      -0.638  -2.763   2.069  0.00  0.00    -0.252 OA
ATOM      9  H   UNL     1       0.663  -3.265   4.280  0.00  0.00    +0.157 HD
ENDROOT
BRANCH   5  10
ATOM     10  C   UNL     1       4.844  -3.807   3.744  0.00  0.00    -0.022 A 
ATOM     11  C   UNL     1       5.355  -2.871   2.836  0.00  0.00    +0.011 A 
ATOM     12  C   UNL     1       6.683  -2.917   2.476  0.00  0.00    +0.047 A 
ATOM     13  C   UNL     1       7.517  -3.892   3.011  0.00  0.00    +0.135 A 
ATOM     14  C   UNL     1       7.015  -4.825   3.913  0.00  0.00    +0.083 A 
ATOM     15  C   UNL     1       5.689  -4.783   4.285  0.00  0.00    +0.031 A 
ATOM     16 CL   UNL     1       8.063  -6.040   4.576  0.00  0.00    -0.080 Cl
BRANCH  13  17
ATOM     17  O   UNL     1       8.826  -3.934   2.653  0.00  0.00    -0.505 OA
ATOM     18  H   UNL     1       9.406  -3.407   3.219  0.00  0.00    +0.292 HD
ENDBRANCH  13  17
ENDBRANCH   5  10
BRANCH   1  19
ATOM     19  C   UNL     1       1.156  -2.857  -0.181  0.00  0.00    +0.156 C 
BRANCH  19  24
ATOM     20  C   UNL     1       0.363   0.761  -0.911  0.00  0.00    +0.000 A 
ATOM     21  C   UNL     1       1.624   1.284  -1.126  0.00  0.00    +0.003 A 
ATOM     22  C   UNL     1       2.736   0.467  -1.036  0.00  0.00    +0.038 A 
ATOM     23  C   UNL     1       2.585  -0.875  -0.730  0.00  0.00    +0.128 A 
ATOM     24  C   UNL     1       1.321  -1.397  -0.514  0.00  0.00    +0.006 A 
ATOM     25  C   UNL     1       0.211  -0.579  -0.605  0.00  0.00    +0.008 A 
ATOM     26  F   UNL     1       3.671  -1.674  -0.641  0.00  0.00    -0.205 F 
ENDBRANCH  19  24
ENDBRANCH   1  19
TORSDOF 4
