REMARK  Name = ZINC20517544
REMARK  8 active torsions:
REMARK  status: ('A' for Active; 'I' for Inactive)
REMARK    1  A    between atoms: C_1  and  C_2
REMARK    2  A    between atoms: C_4  and  C_33
REMARK    3  A    between atoms: C_6  and  N_8
REMARK    4  A    between atoms: C_11  and  C_18
REMARK    5  A    between atoms: C_22  and  O_31
REMARK    6  A    between atoms: C_23  and  O_29
REMARK    7  A    between atoms: O_29  and  C_30
REMARK    8  A    between atoms: O_31  and  C_32
REMARK                            x       y       z     vdW  Elec       q    Type
REMARK                         _______ _______ _______ _____ _____    ______ ____
ROOT
ATOM      1  N   UNL     1       0.051  -2.798   2.395  0.00  0.00    -0.229 N 
ATOM      2  C   UNL     1       0.144  -2.130   3.561  0.00  0.00    +0.267 A 
ATOM      3  O   UNL     1       0.215  -0.913   3.568  0.00  0.00    -0.267 OA
ATOM      4  C   UNL     1       0.159  -2.846   4.771  0.00  0.00    +0.072 A 
ATOM      5  C   UNL     1       0.078  -4.206   4.737  0.00  0.00    +0.260 A 
ATOM      6  N   UNL     1      -0.016  -4.847   3.527  0.00  0.00    -0.274 N 
ATOM      7  H   UNL     1      -0.074  -5.815   3.498  0.00  0.00    +0.173 HD
ATOM      8  C   UNL     1      -0.034  -4.141   2.382  0.00  0.00    +0.337 A 
ATOM      9  O   UNL     1      -0.123  -4.725   1.319  0.00  0.00    -0.246 OA
ATOM     10  O   UNL     1       0.090  -4.918   5.884  0.00  0.00    -0.267 OA
ENDROOT
BRANCH   4  11
ATOM     11  C   UNL     1       0.263  -2.119   6.088  0.00  0.00    +0.001 C 
ATOM     12  C   UNL     1       1.605  -1.441   6.176  0.00  0.00    -0.050 A 
ATOM     13  C   UNL     1       2.723  -2.125   5.719  0.00  0.00    +0.052 A 
ATOM     14  C   UNL     1       3.975  -1.541   5.783  0.00  0.00    +0.162 A 
ATOM     15  C   UNL     1       4.113  -0.260   6.309  0.00  0.00    +0.162 A 
ATOM     16  C   UNL     1       2.996   0.419   6.763  0.00  0.00    +0.053 A 
ATOM     17  C   UNL     1       1.742  -0.171   6.695  0.00  0.00    -0.044 A 
ATOM     18  C   UNL     1       0.551   0.607   7.194  0.00  0.00    +0.016 C 
ATOM     19  C   UNL     1      -0.633  -0.337   7.404  0.00  0.00    -0.077 C 
ATOM     20  N   UNL     1      -0.819  -1.135   6.183  0.00  0.00    +0.387 N 
ATOM     21  H   UNL     1      -0.797  -0.529   5.377  0.00  0.00    -0.085 HD
ATOM     22  H   UNL     1      -1.707  -1.613   6.225  0.00  0.00    -0.085 HD
BRANCH  15  23
ATOM     23  O   UNL     1       5.340   0.322   6.378  0.00  0.00    -0.491 OA
ATOM     24  C   UNL     1       5.404   1.639   6.931  0.00  0.00    +0.277 C 
ENDBRANCH  15  23
BRANCH  14  25
ATOM     25  O   UNL     1       5.066  -2.215   5.333  0.00  0.00    -0.491 OA
ATOM     26  C   UNL     1       4.848  -3.525   4.806  0.00  0.00    +0.277 C 
ENDBRANCH  14  25
ENDBRANCH   4  11
BRANCH   1  32
ATOM     27  C   UNL     1       2.501  -0.799  -1.372  0.00  0.00    +0.044 C 
ATOM     28  C   UNL     1       1.209  -1.106  -0.660  0.00  0.00    -0.048 A 
ATOM     29  C   UNL     1       0.007  -0.687  -1.199  0.00  0.00    +0.006 A 
ATOM     30  C   UNL     1      -1.181  -0.967  -0.548  0.00  0.00    -0.048 A 
ATOM     31  C   UNL     1      -1.170  -1.666   0.642  0.00  0.00    +0.029 A 
ATOM     32  C   UNL     1       0.036  -2.089   1.186  0.00  0.00    +0.055 A 
ATOM     33  C   UNL     1       1.226  -1.811   0.528  0.00  0.00    +0.029 A 
ATOM     34  C   UNL     1      -2.489  -0.507  -1.139  0.00  0.00    +0.044 C 
ENDBRANCH   1  32
TORSDOF 4
