REMARK  Name = ZINC51144261
REMARK  6 active torsions:
REMARK  status: ('A' for Active; 'I' for Inactive)
REMARK    1  A    between atoms: C_1  and  N_2
REMARK    2  A    between atoms: N_2  and  C_3
REMARK    3  A    between atoms: N_2  and  C_10
REMARK    4  A    between atoms: C_3  and  C_4
REMARK    5  A    between atoms: C_10  and  C_11
REMARK    6  A    between atoms: N_20  and  N_21
REMARK                            x       y       z     vdW  Elec       q    Type
REMARK                         _______ _______ _______ _____ _____    ______ ____
ROOT
ATOM      1  C   UNL     1      -0.106  -0.083  -2.424  0.00  0.00    +0.116 A 
ATOM      2  N   UNL     1      -1.032  -0.905  -2.885  0.00  0.00    -0.218 NA
ATOM      3  C   UNL     1      -1.764  -0.616  -3.949  0.00  0.00    +0.144 A 
ATOM      4  C   UNL     1      -1.550   0.618  -4.624  0.00  0.00    +0.049 A 
ATOM      5  C   UNL     1      -2.211   1.162  -5.797  0.00  0.00    +0.021 A 
ATOM      6  C   UNL     1      -1.837   2.363  -6.261  0.00  0.00    +0.048 A 
ATOM      7  S   UNL     1      -0.547   2.861  -5.136  0.00  0.00    -0.077 S 
ATOM      8  C   UNL     1      -0.544   1.442  -4.073  0.00  0.00    +0.113 A 
ATOM      9  N   UNL     1       0.135   1.077  -3.003  0.00  0.00    -0.227 NA
ATOM     10  N   UNL     1      -2.724  -1.504  -4.400  0.00  0.00    -0.267 N 
ATOM     11  H   UNL     1      -3.257  -1.286  -5.181  0.00  0.00    +0.167 HD
ENDROOT
BRANCH  10  12
ATOM     12  N   UNL     1      -2.922  -2.687  -3.746  0.00  0.00    -0.255 NA
ATOM     13  H   UNL     1      -3.128  -2.530  -2.771  0.00  0.00    +0.140 HD
ATOM     14  H   UNL     1      -3.650  -3.227  -4.188  0.00  0.00    +0.140 HD
ENDBRANCH  10  12
BRANCH   1  15
ATOM     15  C   UNL     1       0.690  -0.478  -1.207  0.00  0.00    -0.001 C 
BRANCH  15  17
ATOM     16  C   UNL     1      -0.018   1.465   0.010  0.00  0.00    -0.095 C 
ATOM     17  N   UNL     1       0.002  -0.004   0.002  0.00  0.00    +0.386 N 
ATOM     18  H   UNL     1      -0.945  -0.353   0.009  0.00  0.00    -0.081 HD
BRANCH  17  19
ATOM     19  C   UNL     1       0.713  -0.491   1.192  0.00  0.00    -0.022 C 
BRANCH  19  20
ATOM     20  C   UNL     1      -0.059  -0.109   2.429  0.00  0.00    +0.025 A 
ATOM     21  C   UNL     1      -0.938  -1.015   2.993  0.00  0.00    +0.021 A 
ATOM     22  C   UNL     1      -1.643  -0.655   4.130  0.00  0.00    +0.003 A 
ATOM     23  C   UNL     1      -1.437   0.610   4.661  0.00  0.00    +0.020 A 
ATOM     24  C   UNL     1      -0.542   1.462   4.043  0.00  0.00    +0.111 A 
ATOM     25  N   UNL     1       0.115   1.083   2.964  0.00  0.00    -0.262 NA
ENDBRANCH  19  20
ENDBRANCH  17  19
ENDBRANCH  15  17
ENDBRANCH   1  15
TORSDOF 5
