REMARK  Name = ZINC20094911
REMARK  4 active torsions:
REMARK  status: ('A' for Active; 'I' for Inactive)
REMARK    1  A    between atoms: C_1  and  C_2
REMARK    2  A    between atoms: C_2  and  C_4
REMARK    3  A    between atoms: C_2  and  N_11
REMARK    4  A    between atoms: N_11  and  C_12
REMARK                            x       y       z     vdW  Elec       q    Type
REMARK                         _______ _______ _______ _____ _____    ______ ____
ROOT
ATOM      1  C   UNL     1      -4.682   3.594  -1.199  0.00  0.00    +0.030 A 
ATOM      2  C   UNL     1      -4.770   4.977  -1.312  0.00  0.00    +0.025 A 
ATOM      3  C   UNL     1      -5.838   5.554  -1.970  0.00  0.00    +0.029 A 
ATOM      4  C   UNL     1      -6.827   4.752  -2.519  0.00  0.00    +0.067 A 
ATOM      5  C   UNL     1      -6.742   3.363  -2.406  0.00  0.00    +0.069 A 
ATOM      6  C   UNL     1      -5.665   2.787  -1.750  0.00  0.00    +0.050 A 
ATOM      7  N   UNL     1      -7.863   2.837  -3.045  0.00  0.00    -0.306 N 
ATOM      8  H   UNL     1      -8.013   1.748  -3.085  0.00  0.00    +0.170 HD
ATOM      9  C   UNL     1      -8.597   3.859  -3.524  0.00  0.00    +0.325 A 
ATOM     10  O   UNL     1      -9.643   3.744  -4.136  0.00  0.00    -0.247 OA
ATOM     11  N   UNL     1      -8.000   5.027  -3.223  0.00  0.00    -0.306 N 
ATOM     12  H   UNL     1      -8.281   6.069  -3.436  0.00  0.00    +0.170 HD
ENDROOT
BRANCH   1  13
ATOM     13  N   UNL     1      -3.596   3.016  -0.532  0.00  0.00    -0.337 N 
ATOM     14  H   UNL     1      -3.525   1.922  -0.442  0.00  0.00    +0.147 HD
BRANCH  13  16
ATOM     15  C   UNL     1      -2.976   4.311   1.448  0.00  0.00    +0.033 C 
ATOM     16  C   UNL     1      -2.554   3.868   0.046  0.00  0.00    +0.099 C 
BRANCH  16  17
ATOM     17  C   UNL     1      -1.263   3.094   0.131  0.00  0.00    -0.014 A 
ATOM     18  C   UNL     1      -1.289   1.717   0.248  0.00  0.00    +0.006 A 
ATOM     19  C   UNL     1      -0.106   1.008   0.332  0.00  0.00    +0.000 A 
ATOM     20  C   UNL     1       1.105   1.674   0.288  0.00  0.00    +0.001 A 
ATOM     21  C   UNL     1       1.132   3.051   0.166  0.00  0.00    +0.015 A 
ATOM     22  C   UNL     1      -0.052   3.761   0.087  0.00  0.00    +0.023 A 
ATOM     23 BR   UNL     1      -0.016   5.645  -0.081  0.00  0.00    -0.050 Br
ENDBRANCH  16  17
ENDBRANCH  13  16
ENDBRANCH   1  13
TORSDOF 3
