REMARK  Name = ZINC10442029
REMARK  7 active torsions:
REMARK  status: ('A' for Active; 'I' for Inactive)
REMARK    1  A    between atoms: C_1  and  C_2
REMARK    2  A    between atoms: C_5  and  N_8
REMARK    3  A    between atoms: C_18  and  S_19
REMARK    4  A    between atoms: S_19  and  C_20
REMARK    5  A    between atoms: C_20  and  C_21
REMARK    6  A    between atoms: N_23  and  C_24
REMARK    7  A    between atoms: C_25  and  C_29
REMARK                            x       y       z     vdW  Elec       q    Type
REMARK                         _______ _______ _______ _____ _____    ______ ____
ROOT
ATOM      1  N   UNL     1       0.037  -2.767  -0.014  0.00  0.00    -0.255 N 
ATOM      2  C   UNL     1       1.135  -2.144   0.473  0.00  0.00    +0.267 A 
ATOM      3  O   UNL     1       2.079  -2.778   0.908  0.00  0.00    -0.267 OA
ATOM      4  C   UNL     1       1.146  -0.675   0.458  0.00  0.00    +0.065 A 
ATOM      5  C   UNL     1       2.230   0.058   0.938  0.00  0.00    +0.015 A 
ATOM      6  C   UNL     1       2.189   1.425   0.900  0.00  0.00    +0.001 A 
ATOM      7  C   UNL     1       1.080   2.087   0.389  0.00  0.00    +0.002 A 
ATOM      8  C   UNL     1       0.004   1.393  -0.087  0.00  0.00    +0.028 A 
ATOM      9  C   UNL     1       0.015  -0.004  -0.062  0.00  0.00    +0.079 A 
ATOM     10  N   UNL     1      -1.029  -0.731  -0.523  0.00  0.00    -0.223 NA
ATOM     11  C   UNL     1      -1.016  -2.041  -0.499  0.00  0.00    +0.177 A 
ENDROOT
BRANCH   1  16
ATOM     12  C   UNL     1      -0.201  -8.437  -0.043  0.00  0.00    +0.044 C 
ATOM     13  C   UNL     1      -0.138  -6.931  -0.036  0.00  0.00    -0.050 A 
ATOM     14  C   UNL     1       0.387  -6.257  -1.123  0.00  0.00    +0.005 A 
ATOM     15  C   UNL     1       0.446  -4.877  -1.119  0.00  0.00    +0.026 A 
ATOM     16  C   UNL     1      -0.022  -4.167  -0.021  0.00  0.00    +0.052 A 
ATOM     17  C   UNL     1      -0.543  -4.847   1.071  0.00  0.00    +0.026 A 
ATOM     18  C   UNL     1      -0.604  -6.227   1.059  0.00  0.00    +0.005 A 
ENDBRANCH   1  16
BRANCH  11  19
ATOM     19  S   UNL     1      -2.418  -2.907  -1.121  0.00  0.00    -0.078 S 
BRANCH  19  20
ATOM     20  C   UNL     1      -3.459  -1.510  -1.611  0.00  0.00    +0.173 C 
BRANCH  20  21
ATOM     21  C   UNL     1      -4.753  -2.024  -2.188  0.00  0.00    +0.228 C 
ATOM     22  O   UNL     1      -4.951  -3.218  -2.261  0.00  0.00    -0.275 OA
ATOM     23  N   UNL     1      -5.689  -1.157  -2.623  0.00  0.00    -0.279 N 
ATOM     24  H   UNL     1      -5.530  -0.202  -2.564  0.00  0.00    +0.155 HD
BRANCH  23  25
ATOM     25  C   UNL     1      -6.879  -1.631  -3.154  0.00  0.00    +0.084 A 
ATOM     26  C   UNL     1      -7.956  -0.902  -3.644  0.00  0.00    +0.065 A 
ATOM     27  C   UNL     1      -9.077  -1.660  -4.146  0.00  0.00    +0.022 A 
ATOM     28  C   UNL     1      -8.989  -3.001  -4.087  0.00  0.00    +0.048 A 
ATOM     29  S   UNL     1      -7.386  -3.274  -3.360  0.00  0.00    -0.081 S 
BRANCH  26  30
ATOM     30  C   UNL     1      -7.951   0.564  -3.655  0.00  0.00    +0.244 C 
ATOM     31  O   UNL     1      -6.988   1.173  -3.227  0.00  0.00    -0.270 OA
ATOM     32  N   UNL     1      -9.014   1.237  -4.138  0.00  0.00    -0.325 N 
ATOM     33  H   UNL     1      -9.781   0.752  -4.479  0.00  0.00    +0.145 HD
ATOM     34  H   UNL     1      -9.011   2.207  -4.145  0.00  0.00    +0.145 HD
ENDBRANCH  26  30
ENDBRANCH  23  25
ENDBRANCH  20  21
ENDBRANCH  19  20
ENDBRANCH  11  19
TORSDOF 6
