REMARK  Name = ZINC53042103
REMARK  6 active torsions:
REMARK  status: ('A' for Active; 'I' for Inactive)
REMARK    1  A    between atoms: C_1  and  C_2
REMARK    2  A    between atoms: C_5  and  C_7
REMARK    3  A    between atoms: C_7  and  N_8
REMARK    4  A    between atoms: C_14  and  C_19
REMARK    5  A    between atoms: C_14  and  C_20
REMARK    6  A    between atoms: C_16  and  O_18
REMARK                            x       y       z     vdW  Elec       q    Type
REMARK                         _______ _______ _______ _____ _____    ______ ____
ROOT
ATOM      1  N   UNL     1       1.983  -3.620  -1.407  0.00  0.00    -0.343 N 
ATOM      2  C   UNL     1       1.336  -4.581  -2.129  0.00  0.00    +0.087 A 
ATOM      3  C   UNL     1       1.892  -4.633  -3.359  0.00  0.00    +0.025 A 
ATOM      4  C   UNL     1       2.914  -3.674  -3.395  0.00  0.00    +0.002 A 
ATOM      5  C   UNL     1       2.946  -3.064  -2.188  0.00  0.00    +0.025 A 
ATOM      6  C   UNL     1       3.912  -1.964  -1.823  0.00  0.00    +0.060 C 
ATOM      7  C   UNL     1       5.054  -1.963  -2.846  0.00  0.00    -0.027 C 
ATOM      8  C   UNL     1       4.472  -1.969  -4.262  0.00  0.00    +0.043 C 
ATOM      9  C   UNL     1       3.832  -3.337  -4.542  0.00  0.00    +0.147 C 
ATOM     10  C   UNL     1       5.911  -0.711  -2.652  0.00  0.00    +0.011 C 
ATOM     11  C   UNL     1       5.919  -3.209  -2.646  0.00  0.00    +0.011 C 
ENDROOT
BRANCH   9  12
ATOM     12  O   UNL     1       3.081  -3.267  -5.755  0.00  0.00    -0.387 OA
ATOM     13  H   UNL     1       2.629  -4.090  -5.986  0.00  0.00    +0.210 HD
ENDBRANCH   9  12
BRANCH   1  14
ATOM     14  C   UNL     1       1.684  -3.245  -0.023  0.00  0.00    +0.195 C 
BRANCH  14  19
ATOM     15  C   UNL     1      -0.018   1.503   0.010  0.00  0.00    +0.086 C 
ATOM     16  C   UNL     1       0.002  -0.004   0.002  0.00  0.00    +0.102 A 
ATOM     17  C   UNL     1      -1.078  -0.805   0.003  0.00  0.00    +0.045 A 
ATOM     18  C   UNL     1      -0.601  -2.136  -0.007  0.00  0.00    +0.047 A 
ATOM     19  C   UNL     1       0.742  -2.069  -0.013  0.00  0.00    +0.125 A 
ATOM     20  O   UNL     1       1.102  -0.775  -0.013  0.00  0.00    -0.463 OA
ENDBRANCH  14  19
ENDBRANCH   1  14
TORSDOF 3
