REMARK  Name = ZINC05059157
REMARK  4 active torsions:
REMARK  status: ('A' for Active; 'I' for Inactive)
REMARK    1  A    between atoms: C_1  and  C_2
REMARK    2  A    between atoms: C_3  and  N_9
REMARK    3  A    between atoms: C_11  and  N_12
REMARK    4  A    between atoms: N_14  and  N_17
REMARK                            x       y       z     vdW  Elec       q    Type
REMARK                         _______ _______ _______ _____ _____    ______ ____
ROOT
ATOM      1  N   UNL     1      -0.499  -0.062  -2.467  0.00  0.00    -0.241 NA
ATOM      2  C   UNL     1      -0.143  -0.692  -3.565  0.00  0.00    +0.147 C 
ATOM      3  C   UNL     1       0.080  -0.113  -4.902  0.00  0.00    +0.184 C 
ATOM      4  N   UNL     1       0.420  -1.074  -5.708  0.00  0.00    -0.144 NA
ATOM      5  N   UNL     1       0.462  -2.308  -5.059  0.00  0.00    -0.139 N 
ATOM      6  C   UNL     1       0.130  -2.145  -3.729  0.00  0.00    +0.158 C 
ATOM      7  N   UNL     1       0.067  -3.069  -2.812  0.00  0.00    -0.383 N 
ATOM      8  H   UNL     1      -0.087  -2.824  -1.886  0.00  0.00    +0.157 HD
ATOM      9  H   UNL     1       0.173  -4.002  -3.056  0.00  0.00    +0.157 HD
ENDROOT
BRANCH   1  12
ATOM     10  C   UNL     1       0.921   0.539  -0.078  0.00  0.00    +0.047 C 
ATOM     11  C   UNL     1      -0.152  -0.517  -0.144  0.00  0.00    -0.007 A 
ATOM     12  C   UNL     1      -0.818  -0.769  -1.351  0.00  0.00    +0.069 A 
ATOM     13  C   UNL     1      -1.813  -1.753  -1.400  0.00  0.00    +0.028 A 
ATOM     14  C   UNL     1      -2.131  -2.466  -0.264  0.00  0.00    +0.004 A 
ATOM     15  C   UNL     1      -1.469  -2.211   0.925  0.00  0.00    +0.020 A 
ATOM     16  C   UNL     1      -0.478  -1.243   0.983  0.00  0.00    +0.046 A 
ATOM     17 CL   UNL     1       0.349  -0.939   2.478  0.00  0.00    -0.083 Cl
ENDBRANCH   1  12
BRANCH   5  18
ATOM     18  N   UNL     1       0.787  -3.496  -5.648  0.00  0.00    -0.232 NA
ATOM     19  H   UNL     1       0.997  -3.369  -6.627  0.00  0.00    +0.143 HD
ATOM     20  H   UNL     1       1.556  -3.940  -5.168  0.00  0.00    +0.143 HD
ENDBRANCH   5  18
BRANCH   3  21
ATOM     21  N   UNL     1      -0.051   1.235  -5.244  0.00  0.00    -0.246 NA
ATOM     22  H   UNL     1       0.117   1.524  -6.154  0.00  0.00    +0.172 HD
ENDBRANCH   3  21
TORSDOF 3
