REMARK  Name = ZINC16678721
REMARK  1 active torsions:
REMARK  status: ('A' for Active; 'I' for Inactive)
REMARK    1  A    between atoms: C_3  and  N_8
REMARK                            x       y       z     vdW  Elec       q    Type
REMARK                         _______ _______ _______ _____ _____    ______ ____
ROOT
ATOM      1  C   UNL     1      -0.017   1.377   0.010  0.00  0.00    +0.131 A 
ATOM      2  C   UNL     1       0.002  -0.004   0.002  0.00  0.00    +0.071 A 
ATOM      3  C   UNL     1       1.240  -0.651  -0.013  0.00  0.00    +0.134 A 
ATOM      4  N   UNL     1       2.349   0.083  -0.020  0.00  0.00    -0.202 NA
ATOM      5  C   UNL     1       2.285   1.400  -0.012  0.00  0.00    +0.224 A 
ATOM      6  N   UNL     1       1.131   2.040   0.002  0.00  0.00    -0.225 NA
ATOM      7 CL   UNL     1       3.759   2.317  -0.021  0.00  0.00    -0.041 Cl
ATOM      8  I   UNL     1      -1.782  -1.102   0.013  0.00  0.00    -0.039 I 
ENDROOT
BRANCH   3   9
ATOM      9  N   UNL     1       1.311  -2.034  -0.021  0.00  0.00    -0.342 N 
ATOM     10  H   UNL     1       0.497  -2.562  -0.016  0.00  0.00    +0.144 HD
ATOM     11  H   UNL     1       2.175  -2.475  -0.032  0.00  0.00    +0.144 HD
ENDBRANCH   3   9
TORSDOF 1
