REMARK  Name = ZINC43407779
REMARK  3 active torsions:
REMARK  status: ('A' for Active; 'I' for Inactive)
REMARK    1  A    between atoms: C_6  and  C_7
REMARK    2  A    between atoms: N_8  and  O_9
REMARK    3  A    between atoms: C_15  and  O_18
REMARK                            x       y       z     vdW  Elec       q    Type
REMARK                         _______ _______ _______ _____ _____    ______ ____
ROOT
ATOM      1  C   UNL     1      -0.369   1.482  -0.112  0.00  0.00    +0.020 A 
ATOM      2  C   UNL     1       0.692   2.296  -0.476  0.00  0.00    -0.027 A 
ATOM      3  C   UNL     1       1.959   1.756  -0.593  0.00  0.00    +0.021 A 
ATOM      4  N   UNL     1       2.167   0.470  -0.360  0.00  0.00    -0.346 N 
ATOM      5  C   UNL     1       1.191  -0.349  -0.010  0.00  0.00    +0.110 A 
ATOM      6  C   UNL     1      -0.122   0.129   0.128  0.00  0.00    +0.056 A 
ATOM      7  N   UNL     1       1.464  -1.687   0.223  0.00  0.00    -0.314 N 
ATOM      8  C   UNL     1       1.697  -2.178   1.588  0.00  0.00    +0.106 C 
ATOM      9  C   UNL     1       3.033  -2.926   1.622  0.00  0.00    +0.021 C 
ATOM     10  C   UNL     1       3.027  -4.021   0.553  0.00  0.00    +0.034 C 
ATOM     11  C   UNL     1       2.865  -3.386  -0.830  0.00  0.00    +0.132 C 
ATOM     12  C   UNL     1       1.521  -2.644  -0.891  0.00  0.00    +0.137 C 
ATOM     13  C   UNL     1       2.937   2.841  -0.999  0.00  0.00    +0.054 C 
ATOM     14  C   UNL     1       2.064   3.992  -1.541  0.00  0.00    +0.011 C 
ATOM     15  C   UNL     1       0.730   3.775  -0.795  0.00  0.00    +0.037 C 
ATOM     16  H   UNL     1       3.066   0.116  -0.450  0.00  0.00    +0.167 HD
ENDROOT
BRANCH   6  17
ATOM     17  C   UNL     1      -1.219  -0.781   0.520  0.00  0.00    +0.166 C 
ATOM     18  N   UNL     1      -1.953  -0.505   1.559  0.00  0.00    -0.071 NA
ATOM     19  N   UNL     1      -1.466  -1.926  -0.218  0.00  0.00    -0.340 N 
ATOM     20  H   UNL     1      -0.919  -2.131  -0.993  0.00  0.00    +0.144 HD
ATOM     21  H   UNL     1      -2.186  -2.523   0.039  0.00  0.00    +0.144 HD
BRANCH  18  22
ATOM     22  O   UNL     1      -1.630   0.601   2.381  0.00  0.00    -0.408 OA
ATOM     23  H   UNL     1      -2.273   0.771   3.083  0.00  0.00    +0.328 HD
ENDBRANCH  18  22
ENDBRANCH   6  17
BRANCH  11  24
ATOM     24  O   UNL     1       2.891  -4.407  -1.830  0.00  0.00    -0.390 OA
ATOM     25  H   UNL     1       3.711  -4.920  -1.846  0.00  0.00    +0.210 HD
ENDBRANCH  11  24
TORSDOF 3
