REMARK  Name = ZINC09111614
REMARK  7 active torsions:
REMARK  status: ('A' for Active; 'I' for Inactive)
REMARK    1  A    between atoms: C_1  and  C_2
REMARK    2  A    between atoms: C_2  and  O_3
REMARK    3  A    between atoms: O_3  and  C_4
REMARK    4  A    between atoms: C_7  and  N_10
REMARK    5  A    between atoms: N_10  and  C_11
REMARK    6  A    between atoms: C_11  and  C_28
REMARK    7  A    between atoms: N_18  and  C_21
REMARK                            x       y       z     vdW  Elec       q    Type
REMARK                         _______ _______ _______ _____ _____    ______ ____
ROOT
ATOM      1  C   UNL     1      -3.140  -6.571  -0.270  0.00  0.00    +0.022 C 
ATOM      2  C   UNL     1      -3.237  -7.935  -0.066  0.00  0.00    +0.116 C 
ATOM      3  C   UNL     1      -4.545  -8.607   0.035  0.00  0.00    +0.258 C 
ATOM      4  O   UNL     1      -5.581  -7.975  -0.059  0.00  0.00    -0.270 OA
ATOM      5  N   UNL     1      -4.564  -9.941   0.234  0.00  0.00    -0.235 N 
ATOM      6  C   UNL     1      -3.430 -10.649   0.339  0.00  0.00    +0.320 C 
ATOM      7  O   UNL     1      -3.515 -11.848   0.517  0.00  0.00    -0.251 OA
ATOM      8  N   UNL     1      -2.208 -10.105   0.257  0.00  0.00    -0.190 N 
ATOM      9  C   UNL     1      -2.038  -8.782   0.053  0.00  0.00    +0.265 C 
ATOM     10  O   UNL     1      -0.923  -8.301  -0.025  0.00  0.00    -0.269 OA
ATOM     11  C   UNL     1      -4.384  -5.719  -0.274  0.00  0.00    +0.061 C 
ATOM     12  H   UNL     1      -5.416 -10.398   0.303  0.00  0.00    +0.159 HD
ENDROOT
BRANCH   8  13
ATOM     13  C   UNL     1      -1.081 -10.930   0.380  0.00  0.00    +0.046 A 
ATOM     14  C   UNL     1      -0.314 -10.891   1.536  0.00  0.00    +0.025 A 
ATOM     15  C   UNL     1       0.795 -11.705   1.655  0.00  0.00    +0.022 A 
ATOM     16  C   UNL     1       1.142 -12.559   0.622  0.00  0.00    +0.041 A 
ATOM     17  C   UNL     1       0.379 -12.599  -0.531  0.00  0.00    +0.022 A 
ATOM     18  C   UNL     1      -0.734 -11.791  -0.653  0.00  0.00    +0.025 A 
ATOM     19 CL   UNL     1       2.538 -13.580   0.774  0.00  0.00    -0.084 Cl
ENDBRANCH   8  13
BRANCH   1  20
ATOM     20  N   UNL     1      -1.933  -6.002  -0.465  0.00  0.00    -0.317 N 
ATOM     21  H   UNL     1      -1.379  -6.283  -1.210  0.00  0.00    +0.152 HD
BRANCH  20  25
ATOM     22  C   UNL     1      -0.583  -3.036   2.133  0.00  0.00    +0.121 A 
ATOM     23  C   UNL     1       0.122  -3.313   0.971  0.00  0.00    +0.047 A 
ATOM     24  C   UNL     1      -0.324  -4.295   0.110  0.00  0.00    +0.027 A 
ATOM     25  C   UNL     1      -1.480  -5.006   0.408  0.00  0.00    +0.031 A 
ATOM     26  C   UNL     1      -2.185  -4.728   1.571  0.00  0.00    +0.027 A 
ATOM     27  C   UNL     1      -1.734  -3.749   2.434  0.00  0.00    +0.047 A 
BRANCH  22  28
ATOM     28  O   UNL     1      -0.143  -2.068   2.981  0.00  0.00    -0.492 OA
BRANCH  28  30
ATOM     29  C   UNL     1       1.386  -0.330   3.676  0.00  0.00    +0.048 C 
ATOM     30  C   UNL     1       1.049  -1.373   2.609  0.00  0.00    +0.225 C 
ENDBRANCH  28  30
ENDBRANCH  22  28
ENDBRANCH  20  25
ENDBRANCH   1  20
TORSDOF 5
