REMARK  Name = ZINC15303359
REMARK  5 active torsions:
REMARK  status: ('A' for Active; 'I' for Inactive)
REMARK    1  A    between atoms: C_1  and  C_2
REMARK    2  A    between atoms: C_2  and  C_3
REMARK    3  A    between atoms: C_2  and  C_4
REMARK    4  A    between atoms: C_4  and  C_5
REMARK    5  A    between atoms: N_13  and  C_16
REMARK                            x       y       z     vdW  Elec       q    Type
REMARK                         _______ _______ _______ _____ _____    ______ ____
ROOT
ATOM      1  C   UNL     1      -1.682  -1.813  -0.239  0.00  0.00    +0.068 C 
ATOM      2  C   UNL     1      -2.999  -2.608  -0.363  0.00  0.00    +0.107 C 
ATOM      3  C   UNL     1      -2.782  -3.875   0.511  0.00  0.00    +0.127 C 
ATOM      4  C   UNL     1      -2.795  -5.001  -0.498  0.00  0.00    +0.233 C 
ATOM      5  O   UNL     1      -2.655  -6.177  -0.237  0.00  0.00    -0.274 OA
ATOM      6  N   UNL     1      -2.985  -4.498  -1.723  0.00  0.00    -0.210 N 
ATOM      7  C   UNL     1      -3.120  -3.153  -1.768  0.00  0.00    +0.232 C 
ATOM      8  O   UNL     1      -3.305  -2.486  -2.764  0.00  0.00    -0.274 OA
ATOM      9  C   UNL     1      -1.377  -3.704   1.100  0.00  0.00    +0.186 C 
ATOM     10  N   UNL     1      -1.081  -2.264   1.044  0.00  0.00    -0.292 NA
ATOM     11  C   UNL     1      -1.414  -4.137   2.544  0.00  0.00    +0.251 C 
ATOM     12  O   UNL     1      -2.178  -3.632   3.338  0.00  0.00    -0.273 OA
ATOM     13  N   UNL     1      -0.555  -5.117   2.911  0.00  0.00    -0.238 N 
ATOM     14  C   UNL     1       0.287  -5.676   2.034  0.00  0.00    +0.312 C 
ATOM     15  O   UNL     1       1.026  -6.548   2.448  0.00  0.00    -0.252 OA
ATOM     16  N   UNL     1       0.384  -5.354   0.739  0.00  0.00    -0.238 N 
ATOM     17  C   UNL     1      -0.396  -4.395   0.187  0.00  0.00    +0.251 C 
ATOM     18  O   UNL     1      -0.308  -4.104  -0.987  0.00  0.00    -0.273 OA
ATOM     19  H   UNL     1      -0.087  -2.092   1.058  0.00  0.00    +0.124 HD
ATOM     20  H   UNL     1      -0.550  -5.422   3.832  0.00  0.00    +0.159 HD
ATOM     21  H   UNL     1       1.028  -5.820   0.182  0.00  0.00    +0.159 HD
ENDROOT
BRANCH   6  22
ATOM     22  C   UNL     1      -3.044  -5.301  -2.871  0.00  0.00    +0.044 A 
ATOM     23  C   UNL     1      -4.112  -6.169  -3.058  0.00  0.00    +0.025 A 
ATOM     24  C   UNL     1      -4.168  -6.958  -4.190  0.00  0.00    +0.022 A 
ATOM     25  C   UNL     1      -3.162  -6.885  -5.137  0.00  0.00    +0.041 A 
ATOM     26  C   UNL     1      -2.097  -6.021  -4.953  0.00  0.00    +0.022 A 
ATOM     27  C   UNL     1      -2.039  -5.225  -3.826  0.00  0.00    +0.025 A 
ATOM     28 CL   UNL     1      -3.236  -7.879  -6.559  0.00  0.00    -0.084 Cl
ENDBRANCH   6  22
BRANCH   1  29
ATOM     29  C   UNL     1      -1.970  -0.311  -0.193  0.00  0.00    +0.022 C 
BRANCH  29  31
ATOM     30  C   UNL     1       0.162   0.250  -1.370  0.00  0.00    +0.007 C 
ATOM     31  C   UNL     1      -0.651   0.458  -0.090  0.00  0.00    -0.016 C 
ATOM     32  C   UNL     1      -0.943   1.948   0.093  0.00  0.00    +0.007 C 
ENDBRANCH  29  31
ENDBRANCH   1  29
TORSDOF 3
