REMARK  Name = ZINC62090251
REMARK  8 active torsions:
REMARK  status: ('A' for Active; 'I' for Inactive)
REMARK    1  A    between atoms: C_1  and  N_2
REMARK    2  A    between atoms: N_2  and  S_3
REMARK    3  A    between atoms: S_3  and  N_6
REMARK    4  A    between atoms: N_6  and  C_7
REMARK    5  A    between atoms: C_7  and  C_8
REMARK    6  A    between atoms: C_8  and  C_9
REMARK    7  A    between atoms: C_12  and  S_15
REMARK    8  A    between atoms: S_15  and  N_18
REMARK                            x       y       z     vdW  Elec       q    Type
REMARK                         _______ _______ _______ _____ _____    ______ ____
ROOT
ATOM      1  C   UNL     1      -2.057  -1.300  -5.098  0.00  0.00    -0.046 A 
ATOM      2  C   UNL     1      -1.447  -0.373  -5.922  0.00  0.00    +0.005 A 
ATOM      3  C   UNL     1      -0.891  -0.774  -7.122  0.00  0.00    +0.029 A 
ATOM      4  C   UNL     1      -0.944  -2.104  -7.498  0.00  0.00    +0.105 A 
ATOM      5  C   UNL     1      -1.552  -3.031  -6.673  0.00  0.00    +0.029 A 
ATOM      6  C   UNL     1      -2.104  -2.631  -5.471  0.00  0.00    +0.005 A 
ENDROOT
BRANCH   4   7
ATOM      7  S   UNL     1      -0.235  -2.615  -9.028  0.00  0.00    +0.056 S 
ATOM      8  O   UNL     1      -0.897  -3.817  -9.400  0.00  0.00    -0.153 OA
ATOM      9  O   UNL     1      -0.210  -1.469  -9.867  0.00  0.00    -0.153 OA
BRANCH   7  10
ATOM     10  N   UNL     1       1.343  -3.017  -8.727  0.00  0.00    -0.204 NA
ATOM     11  H   UNL     1       1.699  -2.943  -7.829  0.00  0.00    +0.144 HD
ATOM     12  H   UNL     1       1.910  -3.327  -9.450  0.00  0.00    +0.144 HD
ENDBRANCH   7  10
ENDBRANCH   4   7
BRANCH   1  13
ATOM     13  C   UNL     1      -2.663  -0.863  -3.790  0.00  0.00    +0.052 C 
BRANCH  13  14
ATOM     14  C   UNL     1      -1.607  -0.946  -2.685  0.00  0.00    +0.111 C 
BRANCH  14  15
ATOM     15  N   UNL     1      -2.197  -0.520  -1.414  0.00  0.00    -0.180 NA
ATOM     16  H   UNL     1      -3.042  -0.044  -1.406  0.00  0.00    +0.149 HD
BRANCH  15  17
ATOM     17  S   UNL     1      -1.421  -0.852   0.011  0.00  0.00    +0.094 S 
ATOM     18  O   UNL     1      -1.073  -2.229  -0.027  0.00  0.00    -0.141 OA
ATOM     19  O   UNL     1      -2.218  -0.295   1.047  0.00  0.00    -0.141 OA
BRANCH  17  21
ATOM     20  C   UNL     1      -0.018   1.461   0.010  0.00  0.00    +0.129 C 
ATOM     21  N   UNL     1       0.002  -0.004   0.002  0.00  0.00    -0.183 NA
ATOM     22  H   UNL     1       0.849  -0.478  -0.009  0.00  0.00    +0.149 HD
ENDBRANCH  17  21
ENDBRANCH  15  17
ENDBRANCH  14  15
ENDBRANCH  13  14
ENDBRANCH   1  13
TORSDOF 7
