REMARK  Name = ZINC05177729
REMARK  2 active torsions:
REMARK  status: ('A' for Active; 'I' for Inactive)
REMARK    1  A    between atoms: C_2  and  C_3
REMARK    2  A    between atoms: C_8  and  N_9
REMARK                            x       y       z     vdW  Elec       q    Type
REMARK                         _______ _______ _______ _____ _____    ______ ____
ROOT
ATOM      1  C   UNL     1       1.174   2.100  -0.009  0.00  0.00    +0.046 A 
ATOM      2  C   UNL     1      -0.017   1.377  -0.001  0.00  0.00    +0.019 A 
ATOM      3  C   UNL     1       0.002  -0.004   0.002  0.00  0.00    +0.014 A 
ATOM      4  C   UNL     1       1.214  -0.692  -0.003  0.00  0.00    +0.035 A 
ATOM      5  C   UNL     1       2.429   0.024  -0.011  0.00  0.00    +0.055 A 
ATOM      6  C   UNL     1       2.410   1.422  -0.013  0.00  0.00    +0.052 A 
ATOM      7  C   UNL     1       3.712  -0.699  -0.015  0.00  0.00    +0.196 C 
ATOM      8  O   UNL     1       4.758  -0.081  -0.022  0.00  0.00    -0.287 OA
ATOM      9  C   UNL     1       3.725  -2.177  -0.011  0.00  0.00    +0.033 A 
ATOM     10  C   UNL     1       4.934  -2.867  -0.016  0.00  0.00    +0.012 A 
ATOM     11  C   UNL     1       4.938  -4.251  -0.013  0.00  0.00    +0.001 A 
ATOM     12  C   UNL     1       3.747  -4.955  -0.005  0.00  0.00    +0.001 A 
ATOM     13  C   UNL     1       2.537  -4.285  -0.001  0.00  0.00    +0.012 A 
ATOM     14  C   UNL     1       2.515  -2.892  -0.004  0.00  0.00    +0.033 A 
ATOM     15  C   UNL     1       1.228  -2.167   0.001  0.00  0.00    +0.195 C 
ATOM     16  O   UNL     1       0.181  -2.786   0.008  0.00  0.00    -0.287 OA
ENDROOT
BRANCH   6  17
ATOM     17  N   UNL     1       3.595   2.134  -0.021  0.00  0.00    -0.356 N 
ATOM     18  H   UNL     1       4.399   1.734  -0.387  0.00  0.00    +0.142 HD
ATOM     19  H   UNL     1       3.622   3.035   0.338  0.00  0.00    +0.142 HD
ENDBRANCH   6  17
BRANCH   1  21
ATOM     20  C   UNL     1       1.118   4.705  -0.015  0.00  0.00    +0.009 C 
ATOM     21  C   UNL     1       1.143   3.531  -0.012  0.00  0.00    -0.068 C 
ENDBRANCH   1  21
TORSDOF 2
