REMARK  Name = ZINC47793693
REMARK  4 active torsions:
REMARK  status: ('A' for Active; 'I' for Inactive)
REMARK    1  A    between atoms: C_1  and  N_2
REMARK    2  A    between atoms: C_3  and  C_9
REMARK    3  A    between atoms: N_14  and  C_17
REMARK    4  A    between atoms: C_17  and  C_18
REMARK                            x       y       z     vdW  Elec       q    Type
REMARK                         _______ _______ _______ _____ _____    ______ ____
ROOT
ATOM      1  C   UNL     1       0.214  -0.342  -2.505  0.00  0.00    +0.263 C 
ATOM      2  O   UNL     1       0.175  -1.146  -3.418  0.00  0.00    -0.268 OA
ATOM      3  N   UNL     1       0.384   0.969  -2.768  0.00  0.00    -0.294 N 
ATOM      4  C   UNL     1       0.578   1.938  -1.680  0.00  0.00    +0.123 C 
ATOM      5  C   UNL     1       1.823   2.775  -1.989  0.00  0.00    +0.104 C 
ATOM      6  N   UNL     1       1.693   3.364  -3.329  0.00  0.00    -0.291 NA
ATOM      7  C   UNL     1       1.633   2.323  -4.364  0.00  0.00    +0.104 C 
ATOM      8  C   UNL     1       0.386   1.467  -4.152  0.00  0.00    +0.123 C 
ENDROOT
BRANCH   1  11
ATOM      9  C   UNL     1       0.647  -3.237  -1.488  0.00  0.00    +0.150 C 
ATOM     10  N   UNL     1       0.269  -2.086  -0.664  0.00  0.00    -0.329 N 
ATOM     11  C   UNL     1       0.077  -0.800  -1.120  0.00  0.00    +0.107 A 
ATOM     12  C   UNL     1      -0.268  -0.021  -0.035  0.00  0.00    +0.054 A 
ATOM     13  C   UNL     1      -0.281  -0.858   1.085  0.00  0.00    +0.078 A 
ATOM     14  C   UNL     1       0.043  -2.110   0.673  0.00  0.00    +0.128 A 
ATOM     15 CL   UNL     1       0.154  -3.511   1.692  0.00  0.00    -0.062 Cl
ATOM     16 CL   UNL     1      -0.653  -0.382   2.712  0.00  0.00    -0.080 Cl
ENDBRANCH   1  11
BRANCH   6  17
ATOM     17  C   UNL     1       2.784   4.310  -3.596  0.00  0.00    +0.180 C 
BRANCH  17  18
ATOM     18  C   UNL     1       2.490   5.071  -4.863  0.00  0.00    +0.225 C 
ATOM     19  O   UNL     1       1.471   4.847  -5.483  0.00  0.00    -0.275 OA
ATOM     20  N   UNL     1       3.358   6.001  -5.308  0.00  0.00    -0.328 N 
ATOM     21  H   UNL     1       4.173   6.180  -4.813  0.00  0.00    +0.145 HD
ATOM     22  H   UNL     1       3.169   6.491  -6.124  0.00  0.00    +0.145 HD
ENDBRANCH  17  18
ENDBRANCH   6  17
TORSDOF 3
