REMARK  Name = ZINC02632877
REMARK  3 active torsions:
REMARK  status: ('A' for Active; 'I' for Inactive)
REMARK    1  A    between atoms: C_3  and  C_21
REMARK    2  A    between atoms: C_5  and  C_11
REMARK    3  A    between atoms: N_23  and  C_24
REMARK                            x       y       z     vdW  Elec       q    Type
REMARK                         _______ _______ _______ _____ _____    ______ ____
ROOT
ATOM      1  C   UNL     1       3.210   2.985   2.894  0.00  0.00    +0.029 C 
ATOM      2  C   UNL     1       3.540   2.421   1.748  0.00  0.00    +0.016 C 
ATOM      3  C   UNL     1       3.083   1.019   1.397  0.00  0.00    +0.143 C 
ATOM      4  C   UNL     1       2.504   1.062  -0.023  0.00  0.00    +0.120 C 
ATOM      5  N   UNL     1       3.445   1.742  -0.912  0.00  0.00    -0.318 N 
ATOM      6  C   UNL     1       4.259   2.717  -0.487  0.00  0.00    +0.135 C 
ATOM      7  S   UNL     1       5.253   3.518  -1.629  0.00  0.00    -0.019 S 
ATOM      8  N   UNL     1       4.325   3.091   0.804  0.00  0.00    -0.300 N 
ATOM      9  H   UNL     1       3.481   1.477  -1.845  0.00  0.00    +0.148 HD
ATOM     10  H   UNL     1       4.909   3.816   1.076  0.00  0.00    +0.154 HD
ENDROOT
BRANCH   4  11
ATOM     11  C   UNL     1       1.196   1.809  -0.010  0.00  0.00    -0.022 A 
ATOM     12  C   UNL     1       1.191   3.192  -0.003  0.00  0.00    +0.009 A 
ATOM     13  C   UNL     1      -0.007   3.881   0.011  0.00  0.00    +0.050 A 
ATOM     14  C   UNL     1      -1.208   3.187   0.017  0.00  0.00    +0.162 A 
ATOM     15  C   UNL     1      -1.203   1.798   0.002  0.00  0.00    +0.162 A 
ATOM     16  C   UNL     1       0.003   1.112  -0.004  0.00  0.00    +0.055 A 
ATOM     17  O   UNL     1      -2.370   1.097   0.006  0.00  0.00    -0.485 OA
ATOM     18  C   UNL     1      -3.548   1.810   0.397  0.00  0.00    +0.270 C 
ATOM     19  C   UNL     1      -3.559   3.158  -0.335  0.00  0.00    +0.270 C 
ATOM     20  O   UNL     1      -2.379   3.880   0.036  0.00  0.00    -0.485 OA
ENDBRANCH   4  11
BRANCH   3  21
ATOM     21  C   UNL     1       4.256   0.073   1.442  0.00  0.00    +0.228 C 
ATOM     22  O   UNL     1       4.601  -0.514   0.439  0.00  0.00    -0.275 OA
ATOM     23  N   UNL     1       4.921  -0.121   2.599  0.00  0.00    -0.284 N 
ATOM     24  H   UNL     1       4.687   0.397   3.385  0.00  0.00    +0.155 HD
BRANCH  23  25
ATOM     25  C   UNL     1       5.949  -1.068   2.664  0.00  0.00    +0.052 A 
ATOM     26  C   UNL     1       6.770  -1.282   1.565  0.00  0.00    +0.025 A 
ATOM     27  C   UNL     1       7.787  -2.213   1.635  0.00  0.00    +0.002 A 
ATOM     28  C   UNL     1       7.983  -2.941   2.794  0.00  0.00    +0.002 A 
ATOM     29  C   UNL     1       7.165  -2.735   3.889  0.00  0.00    +0.022 A 
ATOM     30  C   UNL     1       6.148  -1.800   3.828  0.00  0.00    +0.062 A 
ATOM     31 CL   UNL     1       5.120  -1.543   5.204  0.00  0.00    -0.082 Cl
ENDBRANCH  23  25
ENDBRANCH   3  21
TORSDOF 3
