REMARK  Name = ZINC63772081
REMARK  1 active torsions:
REMARK  status: ('A' for Active; 'I' for Inactive)
REMARK    1  A    between atoms: C_10  and  C_16
REMARK                            x       y       z     vdW  Elec       q    Type
REMARK                         _______ _______ _______ _____ _____    ______ ____
ROOT
ATOM      1  C   UNL     1      -0.017   1.373   0.010  0.00  0.00    +0.002 A 
ATOM      2  C   UNL     1       1.170   2.091   0.002  0.00  0.00    +0.002 A 
ATOM      3  C   UNL     1       2.384   1.436  -0.014  0.00  0.00    +0.028 A 
ATOM      4  C   UNL     1       2.425   0.050  -0.021  0.00  0.00    +0.072 A 
ATOM      5  C   UNL     1       1.223  -0.684  -0.013  0.00  0.00    +0.091 A 
ATOM      6  C   UNL     1       0.002  -0.004   0.002  0.00  0.00    +0.030 A 
ATOM      7  N   UNL     1       1.550  -2.004  -0.022  0.00  0.00    -0.210 NA
ATOM      8  C   UNL     1       2.851  -2.135  -0.024  0.00  0.00    +0.236 A 
ATOM      9  N   UNL     1       3.434  -0.883  -0.039  0.00  0.00    -0.285 N 
ATOM     10  C   UNL     1       4.890  -0.705  -0.078  0.00  0.00    +0.207 C 
ATOM     11  N   UNL     1       5.481  -1.943   0.460  0.00  0.00    -0.293 N 
ATOM     12  C   UNL     1       4.902  -3.152   0.182  0.00  0.00    +0.183 C 
ATOM     13  N   UNL     1       3.601  -3.262  -0.027  0.00  0.00    -0.183 NA
ATOM     14  N   UNL     1       5.686  -4.272   0.118  0.00  0.00    -0.331 N 
ATOM     15  H   UNL     1       6.642  -4.203   0.270  0.00  0.00    +0.145 HD
ATOM     16  H   UNL     1       5.287  -5.134  -0.078  0.00  0.00    +0.145 HD
ATOM     17  H   UNL     1       6.279  -1.902   1.010  0.00  0.00    +0.151 HD
ENDROOT
BRANCH  10  18
ATOM     18  C   UNL     1       5.346  -0.488  -1.498  0.00  0.00    -0.001 C 
ATOM     19  C   UNL     1       5.997   0.592  -1.988  0.00  0.00    +0.003 A 
ATOM     20  C   UNL     1       6.458   1.840  -1.368  0.00  0.00    +0.025 A 
ATOM     21  C   UNL     1       7.097   2.755  -2.133  0.00  0.00    +0.019 A 
ATOM     22  C   UNL     1       7.327   2.542  -3.500  0.00  0.00    +0.017 A 
ATOM     23  C   UNL     1       6.933   1.421  -4.139  0.00  0.00    +0.027 A 
ATOM     24  C   UNL     1       6.254   0.391  -3.432  0.00  0.00    +0.043 A 
ATOM     25  N   UNL     1       5.779  -0.768  -3.820  0.00  0.00    -0.380 N 
ATOM     26  C   UNL     1       5.172  -1.437  -2.663  0.00  0.00    +0.148 C 
ATOM     27 BR   UNL     1       7.693   4.364  -1.339  0.00  0.00    -0.050 Br
ATOM     28  H   UNL     1       5.825  -1.125  -4.721  0.00  0.00    +0.160 HD
ENDBRANCH  10  18
TORSDOF 1
