REMARK  Name = ZINC65785887
REMARK  4 active torsions:
REMARK  status: ('A' for Active; 'I' for Inactive)
REMARK    1  A    between atoms: C_1  and  C_2
REMARK    2  A    between atoms: C_5  and  C_22
REMARK    3  A    between atoms: C_8  and  C_10
REMARK    4  A    between atoms: C_11  and  C_12
REMARK                            x       y       z     vdW  Elec       q    Type
REMARK                         _______ _______ _______ _____ _____    ______ ____
ROOT
ATOM      1  C   UNL     1      -0.016   1.525   0.008  0.00  0.00    +0.028 C 
ATOM      2  C   UNL     1      -0.006  -0.005   0.009  0.00  0.00    +0.073 C 
ATOM      3  C   UNL     1      -1.437  -0.528   0.171  0.00  0.00    +0.023 C 
ATOM      4  C   UNL     1      -1.406  -2.051   0.310  0.00  0.00    +0.016 C 
ATOM      5  C   UNL     1      -0.608  -2.435   1.558  0.00  0.00    +0.092 C 
ATOM      6  C   UNL     1       0.832  -1.934   1.412  0.00  0.00    +0.121 C 
ATOM      7  N   UNL     1       0.805  -0.491   1.133  0.00  0.00    -0.294 N 
ATOM      8  C   UNL     1       1.511   0.369   1.893  0.00  0.00    +0.240 C 
ATOM      9  O   UNL     1       1.409   1.568   1.710  0.00  0.00    -0.271 OA
ENDROOT
BRANCH   5  10
ATOM     10  C   UNL     1      -0.605  -3.934   1.713  0.00  0.00    +0.215 C 
ATOM     11  O   UNL     1      -1.185  -4.628   0.904  0.00  0.00    -0.276 OA
ATOM     12  N   UNL     1       0.041  -4.504   2.749  0.00  0.00    -0.329 N 
ATOM     13  H   UNL     1       0.505  -3.949   3.396  0.00  0.00    +0.145 HD
ATOM     14  H   UNL     1       0.043  -5.468   2.848  0.00  0.00    +0.145 HD
ENDBRANCH   5  10
BRANCH   8  15
ATOM     15  C   UNL     1       2.372  -0.123   2.906  0.00  0.00    +0.068 C 
ATOM     16  C   UNL     1       2.994   0.741   3.744  0.00  0.00    +0.021 C 
BRANCH  16  17
ATOM     17  C   UNL     1       3.856   0.249   4.757  0.00  0.00    +0.032 A 
ATOM     18  C   UNL     1       4.561   0.953   5.690  0.00  0.00    +0.063 A 
ATOM     19  C   UNL     1       5.367   0.270   6.619  0.00  0.00    +0.008 A 
ATOM     20  C   UNL     1       6.168   0.817   7.655  0.00  0.00    +0.010 A 
ATOM     21  C   UNL     1       6.894   0.010   8.471  0.00  0.00    +0.001 A 
ATOM     22  C   UNL     1       6.883  -1.372   8.326  0.00  0.00    +0.001 A 
ATOM     23  C   UNL     1       6.117  -1.946   7.332  0.00  0.00    +0.016 A 
ATOM     24  C   UNL     1       5.375  -1.140   6.495  0.00  0.00    +0.021 A 
ATOM     25  S   UNL     1       4.280  -1.443   5.131  0.00  0.00    -0.087 S 
ATOM     26 CL   UNL     1       4.463   2.686   5.731  0.00  0.00    -0.082 Cl
ENDBRANCH  16  17
ENDBRANCH   8  15
TORSDOF 3
