REMARK  Name = ZINC05525761
REMARK  4 active torsions:
REMARK  status: ('A' for Active; 'I' for Inactive)
REMARK    1  A    between atoms: C_1  and  N_2
REMARK    2  A    between atoms: N_13  and  C_17
REMARK    3  A    between atoms: C_17  and  C_18
REMARK    4  A    between atoms: C_18  and  S_19
REMARK                            x       y       z     vdW  Elec       q    Type
REMARK                         _______ _______ _______ _____ _____    ______ ____
ROOT
ATOM      1  C   UNL     1      -3.688   7.439   8.370  0.00  0.00    +0.138 C 
ATOM      2  N   UNL     1      -2.918   6.681   7.381  0.00  0.00    -0.270 N 
ATOM      3  C   UNL     1      -1.776   7.156   6.745  0.00  0.00    +0.044 A 
ATOM      4  C   UNL     1      -1.098   8.365   6.847  0.00  0.00    +0.024 A 
ATOM      5  C   UNL     1       0.033   8.590   6.088  0.00  0.00    +0.002 A 
ATOM      6  C   UNL     1       0.507   7.620   5.220  0.00  0.00    +0.001 A 
ATOM      7  C   UNL     1      -0.153   6.414   5.105  0.00  0.00    +0.010 A 
ATOM      8  C   UNL     1      -1.295   6.176   5.865  0.00  0.00    +0.010 A 
ATOM      9  C   UNL     1      -2.214   5.024   5.978  0.00  0.00    +0.065 C 
ATOM     10  C   UNL     1      -2.144   3.823   5.300  0.00  0.00    +0.089 C 
ATOM     11  C   UNL     1      -1.247   3.413   4.186  0.00  0.00    +0.259 C 
ATOM     12  O   UNL     1      -0.413   4.166   3.723  0.00  0.00    -0.269 OA
ATOM     13  N   UNL     1      -1.409   2.184   3.724  0.00  0.00    -0.254 N 
ATOM     14  C   UNL     1      -2.332   1.351   4.245  0.00  0.00    +0.121 C 
ATOM     15  S   UNL     1      -2.682  -0.262   3.788  0.00  0.00    -0.027 S 
ATOM     16  S   UNL     1      -3.102   2.330   5.524  0.00  0.00    -0.060 S 
ATOM     17  C   UNL     1      -3.228   5.440   6.969  0.00  0.00    +0.252 C 
ATOM     18  O   UNL     1      -4.174   4.775   7.348  0.00  0.00    -0.270 OA
ENDROOT
BRANCH  13  19
ATOM     19  C   UNL     1      -0.562   1.716   2.625  0.00  0.00    +0.140 C 
BRANCH  19  20
ATOM     20  C   UNL     1      -1.238   2.033   1.289  0.00  0.00    +0.220 C 
BRANCH  20  21
ATOM     21  S   UNL     1      -0.189   1.453  -0.072  0.00  0.00    +0.112 S 
ATOM     22  O   UNL     1      -0.136   0.033  -0.078  0.00  0.00    -0.145 OA
ATOM     23  O   UNL     1       1.004   2.223  -0.134  0.00  0.00    -0.145 OA
ATOM     24  O   UNL     1      -0.953   1.818  -1.337  0.00  0.00    -0.048 OA
ENDBRANCH  20  21
ENDBRANCH  19  20
ENDBRANCH  13  19
TORSDOF 3
