REMARK  Name = ZINC61678680
REMARK  6 active torsions:
REMARK  status: ('A' for Active; 'I' for Inactive)
REMARK    1  A    between atoms: C_1  and  C_2
REMARK    2  A    between atoms: C_2  and  C_3
REMARK    3  A    between atoms: C_3  and  C_5
REMARK    4  A    between atoms: C_3  and  S_8
REMARK    5  A    between atoms: S_8  and  C_11
REMARK    6  A    between atoms: C_14  and  N_18
REMARK                            x       y       z     vdW  Elec       q    Type
REMARK                         _______ _______ _______ _____ _____    ______ ____
ROOT
ATOM      1  S   UNL     1      -0.187  -0.052   2.730  0.00  0.00    +0.014 S 
ATOM      2  O   UNL     1      -0.164   1.358   2.906  0.00  0.00    -0.168 OA
ATOM      3  O   UNL     1      -1.413  -0.768   2.783  0.00  0.00    -0.168 OA
ENDROOT
BRANCH   1   4
ATOM      4  C   UNL     1       0.763  -0.688   4.071  0.00  0.00    +0.159 A 
ATOM      5  C   UNL     1       0.532  -1.973   4.533  0.00  0.00    +0.153 A 
ATOM      6  C   UNL     1       1.277  -2.474   5.586  0.00  0.00    +0.063 A 
ATOM      7  C   UNL     1       2.256  -1.688   6.179  0.00  0.00    +0.030 A 
ATOM      8  C   UNL     1       2.486  -0.400   5.714  0.00  0.00    +0.063 A 
ATOM      9  C   UNL     1       1.743   0.096   4.657  0.00  0.00    +0.153 A 
ATOM     10  F   UNL     1       1.969   1.347   4.200  0.00  0.00    -0.203 F 
ATOM     11  F   UNL     1      -0.420  -2.737   3.956  0.00  0.00    -0.203 F 
BRANCH   7  12
ATOM     12  N   UNL     1       3.009  -2.192   7.243  0.00  0.00    -0.358 N 
ATOM     13  H   UNL     1       2.847  -3.091   7.567  0.00  0.00    +0.142 HD
ATOM     14  H   UNL     1       3.692  -1.642   7.656  0.00  0.00    +0.142 HD
ENDBRANCH   7  12
ENDBRANCH   1   4
BRANCH   1  15
ATOM     15  C   UNL     1       0.742  -0.511   1.242  0.00  0.00    +0.221 C 
BRANCH  15  16
ATOM     16  C   UNL     1       0.870  -2.011   1.172  0.00  0.00    +0.235 C 
ATOM     17  O   UNL     1       1.949  -2.536   1.348  0.00  0.00    -0.274 OA
ATOM     18  N   UNL     1      -0.214  -2.768   0.914  0.00  0.00    -0.328 N 
ATOM     19  H   UNL     1      -1.077  -2.348   0.773  0.00  0.00    +0.145 HD
ATOM     20  H   UNL     1      -0.132  -3.734   0.869  0.00  0.00    +0.145 HD
ENDBRANCH  15  16
BRANCH  15  22
ATOM     21  C   UNL     1      -0.019   1.526   0.010  0.00  0.00    +0.006 C 
ATOM     22  C   UNL     1       0.002  -0.004   0.002  0.00  0.00    +0.033 C 
ENDBRANCH  15  22
ENDBRANCH   1  15
TORSDOF 5
