REMARK  Name = ZINC06674524
REMARK  5 active torsions:
REMARK  status: ('A' for Active; 'I' for Inactive)
REMARK    1  A    between atoms: C_1  and  C_2
REMARK    2  A    between atoms: N_7  and  N_8
REMARK    3  A    between atoms: C_9  and  C_11
REMARK    4  A    between atoms: N_13  and  N_14
REMARK    5  A    between atoms: C_19  and  C_21
REMARK                            x       y       z     vdW  Elec       q    Type
REMARK                         _______ _______ _______ _____ _____    ______ ____
ROOT
ATOM      1  N   UNL     1       0.523  -4.161   1.968  0.00  0.00    -0.199 N 
ATOM      2  C   UNL     1       0.051  -4.952   2.953  0.00  0.00    +0.320 C 
ATOM      3  O   UNL     1      -0.393  -4.456   3.968  0.00  0.00    -0.263 OA
ATOM      4  H   UNL     1       0.878  -4.557   1.157  0.00  0.00    +0.178 HD
ENDROOT
BRANCH   1  11
ATOM      5  C   UNL     1      -0.039   1.530   0.021  0.00  0.00    +0.008 C 
ATOM      6  C   UNL     1      -0.021  -0.000   0.011  0.00  0.00    -0.009 C 
ATOM      7  C   UNL     1       0.681  -0.494  -1.256  0.00  0.00    +0.004 C 
ATOM      8  C   UNL     1       0.625  -2.021  -1.318  0.00  0.00    +0.006 C 
ATOM      9  C   UNL     1       1.404  -2.608  -0.136  0.00  0.00    +0.052 C 
ATOM     10  C   UNL     1       0.854  -2.015   1.143  0.00  0.00    +0.037 C 
ATOM     11  N   UNL     1       0.501  -2.768   2.116  0.00  0.00    -0.189 NA
ATOM     12  C   UNL     1       0.733  -0.511   1.242  0.00  0.00    +0.055 C 
ENDBRANCH   1  11
BRANCH   2  13
ATOM     13  C   UNL     1       0.075  -6.434   2.795  0.00  0.00    +0.320 C 
ATOM     14  O   UNL     1       0.520  -6.930   1.779  0.00  0.00    -0.263 OA
ATOM     15  N   UNL     1      -0.397  -7.224   3.780  0.00  0.00    -0.199 N 
ATOM     16  H   UNL     1      -0.752  -6.828   4.591  0.00  0.00    +0.178 HD
BRANCH  15  17
ATOM     17  N   UNL     1      -0.374  -8.617   3.631  0.00  0.00    -0.189 NA
ATOM     18  C   UNL     1      -0.913  -9.364   4.521  0.00  0.00    +0.037 C 
ATOM     19  C   UNL     1      -0.992 -10.863   4.331  0.00  0.00    +0.052 C 
ATOM     20  C   UNL     1      -2.440 -11.308   4.561  0.00  0.00    +0.006 C 
ATOM     21  C   UNL     1      -2.909 -10.821   5.933  0.00  0.00    +0.004 C 
ATOM     22  C   UNL     1      -2.918  -9.292   5.965  0.00  0.00    -0.009 C 
ATOM     23  C   UNL     1      -1.482  -8.771   5.791  0.00  0.00    +0.055 C 
ATOM     24  C   UNL     1      -3.472  -8.813   7.309  0.00  0.00    +0.008 C 
ENDBRANCH  15  17
ENDBRANCH   2  13
TORSDOF 3
