REMARK  Name = ZINC05322623
REMARK  6 active torsions:
REMARK  status: ('A' for Active; 'I' for Inactive)
REMARK    1  A    between atoms: C_6  and  C_7
REMARK    2  A    between atoms: C_7  and  N_8
REMARK    3  A    between atoms: N_20  and  C_21
REMARK    4  A    between atoms: C_21  and  C_23
REMARK    5  A    between atoms: C_23  and  C_24
REMARK    6  A    between atoms: C_24  and  C_25
REMARK                            x       y       z     vdW  Elec       q    Type
REMARK                         _______ _______ _______ _____ _____    ______ ____
ROOT
ATOM      1  N   UNL     1      -0.017   1.394   0.010  0.00  0.00    -0.302 N 
ATOM      2  C   UNL     1       1.317   1.919  -0.000  0.00  0.00    +0.111 C 
ATOM      3  C   UNL     1       1.701   3.384  -0.027  0.00  0.00    +0.189 C 
ATOM      4  S   UNL     1       3.473   3.288   0.508  0.00  0.00    -0.028 S 
ATOM      5  O   UNL     1       3.640   4.050   1.696  0.00  0.00    -0.174 OA
ATOM      6  O   UNL     1       4.309   3.541  -0.612  0.00  0.00    -0.174 OA
ATOM      7  C   UNL     1       3.555   1.483   0.930  0.00  0.00    +0.182 C 
ATOM      8  C   UNL     1       2.065   1.243   1.206  0.00  0.00    +0.097 C 
ATOM      9  S   UNL     1       1.454  -0.439   0.871  0.00  0.00    -0.086 S 
ATOM     10  C   UNL     1       0.002  -0.004   0.002  0.00  0.00    +0.150 C 
ATOM     11  N   UNL     1      -0.889  -0.822  -0.546  0.00  0.00    -0.159 NA
ENDROOT
BRANCH  11  12
ATOM     12  C   UNL     1      -0.722  -2.140  -0.463  0.00  0.00    +0.239 C 
ATOM     13  O   UNL     1       0.247  -2.595   0.114  0.00  0.00    -0.274 OA
BRANCH  12  14
ATOM     14  C   UNL     1      -1.733  -3.068  -1.085  0.00  0.00    +0.109 C 
BRANCH  14  15
ATOM     15  C   UNL     1      -1.307  -4.519  -0.848  0.00  0.00    +0.134 C 
BRANCH  15  16
ATOM     16  C   UNL     1      -2.318  -5.447  -1.470  0.00  0.00    +0.356 C 
ATOM     17  O   UNL     1      -3.280  -4.995  -2.043  0.00  0.00    -0.246 OA
ATOM     18  O   UNL     1      -2.149  -6.776  -1.386  0.00  0.00    -0.246 OA
ENDBRANCH  15  16
ENDBRANCH  14  15
ENDBRANCH  12  14
ENDBRANCH  11  12
BRANCH   1  19
ATOM     19  C   UNL     1      -1.233   2.210   0.020  0.00  0.00    +0.142 C 
BRANCH  19  25
ATOM     20  C   UNL     1      -2.503   1.616   2.094  0.00  0.00    +0.008 A 
ATOM     21  C   UNL     1      -2.875   1.862   3.402  0.00  0.00    +0.038 A 
ATOM     22  C   UNL     1      -2.395   2.983   4.058  0.00  0.00    +0.123 A 
ATOM     23  C   UNL     1      -1.539   3.853   3.405  0.00  0.00    +0.038 A 
ATOM     24  C   UNL     1      -1.164   3.602   2.099  0.00  0.00    +0.008 A 
ATOM     25  C   UNL     1      -1.643   2.483   1.444  0.00  0.00    -0.030 A 
ATOM     26  F   UNL     1      -2.762   3.227   5.335  0.00  0.00    -0.205 F 
ENDBRANCH  19  25
ENDBRANCH   1  19
TORSDOF 6
