REMARK  Name = ZINC39335032
REMARK  9 active torsions:
REMARK  status: ('A' for Active; 'I' for Inactive)
REMARK    1  A    between atoms: C_1  and  C_2
REMARK    2  A    between atoms: C_5  and  N_12
REMARK    3  A    between atoms: C_7  and  C_8
REMARK    4  A    between atoms: C_13  and  C_15
REMARK    5  A    between atoms: C_15  and  S_16
REMARK    6  A    between atoms: S_16  and  C_17
REMARK    7  A    between atoms: C_18  and  C_26
REMARK    8  A    between atoms: C_20  and  C_24
REMARK    9  A    between atoms: C_21  and  N_23
REMARK                            x       y       z     vdW  Elec       q    Type
REMARK                         _______ _______ _______ _____ _____    ______ ____
ROOT
ATOM      1  N   UNL     1       0.059  -4.170  -0.021  0.00  0.00    -0.285 N 
ATOM      2  C   UNL     1      -0.040  -4.839  -1.187  0.00  0.00    +0.227 C 
ATOM      3  O   UNL     1      -0.054  -4.230  -2.236  0.00  0.00    -0.275 OA
ATOM      4  H   UNL     1       0.147  -4.658   0.812  0.00  0.00    +0.155 HD
ENDROOT
BRANCH   1   9
ATOM      5  C   UNL     1      -0.041   1.502   0.014  0.00  0.00    +0.044 C 
ATOM      6  C   UNL     1      -0.015  -0.004   0.004  0.00  0.00    -0.039 A 
ATOM      7  C   UNL     1      -0.752  -0.702  -0.935  0.00  0.00    +0.006 A 
ATOM      8  C   UNL     1      -0.730  -2.082  -0.946  0.00  0.00    +0.023 A 
ATOM      9  C   UNL     1       0.034  -2.771  -0.013  0.00  0.00    +0.034 A 
ATOM     10  C   UNL     1       0.773  -2.068   0.929  0.00  0.00    +0.036 A 
ATOM     11  C   UNL     1       0.751  -0.686   0.932  0.00  0.00    +0.059 A 
BRANCH  11  12
ATOM     12  C   UNL     1       1.557   0.078   1.950  0.00  0.00    +0.418 C 
ATOM     13  F   UNL     1       2.243  -0.823   2.773  0.00  0.00    -0.166 F 
ATOM     14  F   UNL     1       2.477   0.902   1.293  0.00  0.00    -0.166 F 
ATOM     15  F   UNL     1       0.701   0.862   2.730  0.00  0.00    -0.166 F 
ENDBRANCH  11  12
ENDBRANCH   1   9
BRANCH   2  16
ATOM     16  C   UNL     1      -0.134  -6.343  -1.187  0.00  0.00    +0.172 C 
BRANCH  16  17
ATOM     17  S   UNL     1      -0.255  -6.941  -2.895  0.00  0.00    -0.095 S 
BRANCH  17  18
ATOM     18  C   UNL     1      -0.356  -8.692  -2.728  0.00  0.00    +0.117 A 
ATOM     19  C   UNL     1      -0.457  -9.497  -3.880  0.00  0.00    +0.085 A 
ATOM     20  C   UNL     1      -0.536 -10.884  -3.736  0.00  0.00    +0.043 A 
ATOM     21  C   UNL     1      -0.512 -11.418  -2.445  0.00  0.00    +0.092 A 
ATOM     22  C   UNL     1      -0.409 -10.545  -1.343  0.00  0.00    +0.135 A 
ATOM     23  N   UNL     1      -0.331  -9.236  -1.521  0.00  0.00    -0.224 NA
BRANCH  22  24
ATOM     24  N   UNL     1      -0.384 -11.062  -0.064  0.00  0.00    -0.342 N 
ATOM     25  H   UNL     1      -0.438 -12.021   0.073  0.00  0.00    +0.144 HD
ATOM     26  H   UNL     1      -0.314 -10.467   0.699  0.00  0.00    +0.144 HD
ENDBRANCH  22  24
BRANCH  21  27
ATOM     27  C   UNL     1      -0.591 -12.833  -2.244  0.00  0.00    +0.103 C 
ATOM     28  N   UNL     1      -0.653 -13.956  -2.084  0.00  0.00    -0.191 NA
ENDBRANCH  21  27
BRANCH  19  29
ATOM     29  C   UNL     1      -0.478  -8.901  -5.182  0.00  0.00    +0.102 C 
ATOM     30  N   UNL     1      -0.496  -8.428  -6.215  0.00  0.00    -0.191 NA
ENDBRANCH  19  29
ENDBRANCH  17  18
ENDBRANCH  16  17
ENDBRANCH   2  16
TORSDOF 8
