REMARK  Name = ZINC08236350
REMARK  3 active torsions:
REMARK  status: ('A' for Active; 'I' for Inactive)
REMARK    1  A    between atoms: C_1  and  C_2
REMARK    2  A    between atoms: C_2  and  C_27
REMARK    3  A    between atoms: C_6  and  C_17
REMARK                            x       y       z     vdW  Elec       q    Type
REMARK                         _______ _______ _______ _____ _____    ______ ____
ROOT
ATOM      1  C   UNL     1      -0.019   1.526   0.010  0.00  0.00    +0.011 C 
ATOM      2  C   UNL     1       0.002  -0.004   0.002  0.00  0.00    -0.023 C 
ATOM      3  C   UNL     1       0.741  -0.502  -1.243  0.00  0.00    +0.058 C 
ATOM      4  C   UNL     1       2.167  -0.010  -1.215  0.00  0.00    +0.017 C 
ATOM      5  C   UNL     1       2.812   0.188  -0.046  0.00  0.00    +0.024 C 
ATOM      6  C   UNL     1       4.237   0.680  -0.018  0.00  0.00    +0.092 C 
ATOM      7  C   UNL     1       4.902   0.495  -1.350  0.00  0.00    +0.042 A 
ATOM      8  C   UNL     1       6.301   0.540  -1.453  0.00  0.00    +0.126 A 
ATOM      9  N   UNL     1       6.878   0.378  -2.639  0.00  0.00    -0.208 NA
ATOM     10  C   UNL     1       6.150   0.174  -3.733  0.00  0.00    +0.180 A 
ATOM     11  S   UNL     1       6.936  -0.028  -5.241  0.00  0.00    -0.011 S 
ATOM     12  N   UNL     1       4.806   0.124  -3.677  0.00  0.00    -0.322 N 
ATOM     13  C   UNL     1       4.165   0.284  -2.478  0.00  0.00    +0.110 A 
ATOM     14  N   UNL     1       2.795   0.228  -2.408  0.00  0.00    -0.304 N 
ATOM     15  N   UNL     1       7.072   0.750  -0.330  0.00  0.00    -0.343 N 
ATOM     16  C   UNL     1       2.173  -0.054   1.183  0.00  0.00    +0.162 C 
ATOM     17  O   UNL     1       2.788   0.115   2.218  0.00  0.00    -0.292 OA
ATOM     18  C   UNL     1       0.743  -0.516   1.242  0.00  0.00    +0.086 C 
ATOM     19  C   UNL     1      -1.432  -0.538   0.002  0.00  0.00    +0.011 C 
ATOM     20  H   UNL     1       2.267   0.359  -3.211  0.00  0.00    +0.153 HD
ATOM     21  H   UNL     1       8.039   0.780  -0.404  0.00  0.00    +0.144 HD
ATOM     22  H   UNL     1       6.648   0.867   0.534  0.00  0.00    +0.144 HD
ATOM     23  H   UNL     1       4.292  -0.025  -4.485  0.00  0.00    +0.169 HD
ENDROOT
BRANCH   6  24
ATOM     24  C   UNL     1       4.247   2.144   0.339  0.00  0.00    -0.017 A 
ATOM     25  C   UNL     1       3.584   3.055  -0.462  0.00  0.00    +0.006 A 
ATOM     26  C   UNL     1       3.593   4.398  -0.135  0.00  0.00    +0.000 A 
ATOM     27  C   UNL     1       4.265   4.831   0.994  0.00  0.00    +0.001 A 
ATOM     28  C   UNL     1       4.928   3.921   1.795  0.00  0.00    +0.020 A 
ATOM     29  C   UNL     1       4.914   2.575   1.471  0.00  0.00    +0.045 A 
ATOM     30 CL   UNL     1       5.741   1.431   2.481  0.00  0.00    -0.083 Cl
ENDBRANCH   6  24
TORSDOF 1
