REMARK  Name = ZINC39084619
REMARK  3 active torsions:
REMARK  status: ('A' for Active; 'I' for Inactive)
REMARK    1  A    between atoms: C_2  and  O_17
REMARK    2  A    between atoms: CA_5  and  C_14
REMARK    3  A    between atoms: CA_9  and  N_13
REMARK                            x       y       z     vdW  Elec       q    Type
REMARK                         _______ _______ _______ _____ _____    ______ ____
ROOT
ATOM      1  C   UNL     1      -0.019   1.533   0.011  0.00  0.00    +0.057 C 
ATOM      2  C   UNL     1       1.427   2.030  -0.001  0.00  0.00    +0.141 C 
ATOM      3  C   UNL     1       2.291   1.363  -1.024  0.00  0.00    +0.035 C 
ATOM      4  CA  UNL     1       2.004   0.186  -1.601  0.00  0.00    +0.124 C 
ATOM      5  N   UNL     1       0.784  -0.398  -1.196  0.00  0.00    -0.265 N 
ATOM      6  C   UNL     1       0.002  -0.004   0.002  0.00  0.00    +0.079 C 
ATOM      7  CA  UNL     1      -1.171  -0.691  -0.665  0.00  0.00    +0.034 C 
ATOM      8  C   UNL     1      -0.127  -1.275  -1.577  0.00  0.00    +0.207 C 
ATOM      9  O   UNL     1      -0.123  -2.198  -2.363  0.00  0.00    -0.277 OA
ENDROOT
BRANCH   7  10
ATOM     10  N   UNL     1      -1.847  -1.679   0.186  0.00  0.00    +0.387 N 
ATOM     11  H1  UNL     1      -2.201  -1.224   1.014  0.00  0.00    -0.089 HD
ATOM     12  H2  UNL     1      -2.614  -2.092  -0.324  0.00  0.00    -0.089 HD
ATOM     13  H3  UNL     1      -1.192  -2.399   0.451  0.00  0.00    -0.089 HD
ENDBRANCH   7  10
BRANCH   4  14
ATOM     14  C   UNL     1       2.896  -0.450  -2.585  0.00  0.00    +0.400 C 
ATOM     15  O   UNL     1       3.943   0.097  -2.904  0.00  0.00    -0.239 OA
ATOM     16  OXT UNL     1       2.591  -1.525  -3.083  0.00  0.00    -0.239 OA
ENDBRANCH   4  14
BRANCH   2  17
ATOM     17  O   UNL     1       1.997   1.802   1.290  0.00  0.00    -0.388 OA
ATOM     18  H   UNL     1       2.917   2.090   1.370  0.00  0.00    +0.210 HD
ENDBRANCH   2  17
TORSDOF 3
