REMARK  Name = ZINC03289588
REMARK  7 active torsions:
REMARK  status: ('A' for Active; 'I' for Inactive)
REMARK    1  A    between atoms: C_7  and  C_15
REMARK    2  A    between atoms: C_15  and  O_17
REMARK    3  A    between atoms: O_17  and  C_18
REMARK    4  A    between atoms: C_18  and  C_19
REMARK    5  A    between atoms: N_21  and  C_22
REMARK    6  A    between atoms: C_25  and  S_28
REMARK    7  A    between atoms: S_28  and  N_31
REMARK                            x       y       z     vdW  Elec       q    Type
REMARK                         _______ _______ _______ _____ _____    ______ ____
ROOT
ATOM      1  O   UNL     1       0.005  -0.004   0.003  0.00  0.00    -0.455 OA
ENDROOT
BRANCH   1   2
ATOM      2  C   UNL     1       0.607  -0.599  -1.038  0.00  0.00    +0.320 C 
ATOM      3  O   UNL     1       1.104   0.070  -1.913  0.00  0.00    -0.250 OA
BRANCH   2  10
ATOM      4  C   UNL     1       1.340  -2.821  -4.755  0.00  0.00    +0.001 A 
ATOM      5  C   UNL     1       2.656  -3.246  -4.723  0.00  0.00    +0.004 A 
ATOM      6  C   UNL     1       3.333  -3.302  -3.521  0.00  0.00    +0.046 A 
ATOM      7  C   UNL     1       2.694  -2.933  -2.342  0.00  0.00    +0.133 A 
ATOM      8  C   UNL     1       1.376  -2.508  -2.379  0.00  0.00    +0.013 A 
ATOM      9  C   UNL     1       0.703  -2.454  -3.586  0.00  0.00    +0.008 A 
ATOM     10  C   UNL     1       0.663  -2.103  -1.117  0.00  0.00    +0.165 C 
ATOM     11  C   UNL     1       1.385  -2.637   0.090  0.00  0.00    +0.013 A 
ATOM     12  C   UNL     1       0.720  -2.708   1.302  0.00  0.00    +0.008 A 
ATOM     13  C   UNL     1       1.365  -3.196   2.422  0.00  0.00    +0.001 A 
ATOM     14  C   UNL     1       2.680  -3.616   2.336  0.00  0.00    +0.004 A 
ATOM     15  C   UNL     1       3.348  -3.546   1.131  0.00  0.00    +0.046 A 
ATOM     16  C   UNL     1       2.702  -3.055   0.001  0.00  0.00    +0.133 A 
ATOM     17  O   UNL     1       3.375  -2.995  -1.173  0.00  0.00    -0.455 OA
ENDBRANCH   2  10
ENDBRANCH   1   2
BRANCH   1  18
ATOM     18  C   UNL     1      -0.012   1.448   0.013  0.00  0.00    +0.328 C 
BRANCH  18  19
ATOM     19  C   UNL     1      -0.724   1.934   1.249  0.00  0.00    +0.255 C 
ATOM     20  O   UNL     1      -1.174   1.135   2.043  0.00  0.00    -0.272 OA
ATOM     21  N   UNL     1      -0.862   3.256   1.472  0.00  0.00    -0.283 N 
ATOM     22  H   UNL     1      -0.445   3.895   0.873  0.00  0.00    +0.155 HD
BRANCH  21  23
ATOM     23  C   UNL     1      -1.607   3.707   2.567  0.00  0.00    +0.034 A 
ATOM     24  C   UNL     1      -2.356   4.872   2.466  0.00  0.00    +0.025 A 
ATOM     25  C   UNL     1      -3.096   5.311   3.547  0.00  0.00    +0.030 A 
ATOM     26  C   UNL     1      -3.080   4.599   4.733  0.00  0.00    +0.105 A 
ATOM     27  C   UNL     1      -2.329   3.442   4.838  0.00  0.00    +0.030 A 
ATOM     28  C   UNL     1      -1.593   2.994   3.759  0.00  0.00    +0.025 A 
BRANCH  26  29
ATOM     29  S   UNL     1      -4.018   5.167   6.112  0.00  0.00    +0.056 S 
ATOM     30  O   UNL     1      -5.064   5.973   5.587  0.00  0.00    -0.153 OA
ATOM     31  O   UNL     1      -4.268   4.031   6.928  0.00  0.00    -0.153 OA
BRANCH  29  32
ATOM     32  N   UNL     1      -3.039   6.174   6.989  0.00  0.00    -0.204 NA
ATOM     33  H   UNL     1      -3.425   6.905   7.497  0.00  0.00    +0.144 HD
ATOM     34  H   UNL     1      -2.079   6.033   6.995  0.00  0.00    +0.144 HD
ENDBRANCH  29  32
ENDBRANCH  26  29
ENDBRANCH  21  23
ENDBRANCH  18  19
ENDBRANCH   1  18
TORSDOF 7
