REMARK  Name = ZINC20790871
REMARK  7 active torsions:
REMARK  status: ('A' for Active; 'I' for Inactive)
REMARK    1  A    between atoms: C_1  and  C_2
REMARK    2  A    between atoms: C_2  and  C_4
REMARK    3  A    between atoms: C_5  and  C_16
REMARK    4  A    between atoms: C_6  and  C_12
REMARK    5  A    between atoms: C_6  and  C_14
REMARK    6  A    between atoms: C_7  and  C_10
REMARK    7  A    between atoms: C_8  and  N_9
REMARK                            x       y       z     vdW  Elec       q    Type
REMARK                         _______ _______ _______ _____ _____    ______ ____
ROOT
ATOM      1  C   UNL     1      -1.202   1.997   0.268  0.00  0.00    +0.045 C 
ATOM      2  C   UNL     1      -2.440   1.472   0.575  0.00  0.00    +0.011 C 
ATOM      3  C   UNL     1      -3.392   2.639   0.702  0.00  0.00    +0.205 C 
ATOM      4  C   UNL     1      -2.561   3.873   0.436  0.00  0.00    +0.089 C 
ATOM      5  C   UNL     1      -1.286   3.460   0.192  0.00  0.00    +0.052 C 
ENDROOT
BRANCH   2   6
ATOM      6  C   UNL     1      -2.770   0.053   0.744  0.00  0.00    -0.018 A 
ATOM      7  C   UNL     1      -3.654  -0.576  -0.143  0.00  0.00    +0.008 A 
ATOM      8  C   UNL     1      -3.953  -1.911   0.021  0.00  0.00    +0.001 A 
ATOM      9  C   UNL     1      -3.393  -2.628   1.065  0.00  0.00    +0.000 A 
ATOM     10  C   UNL     1      -2.523  -2.013   1.950  0.00  0.00    +0.001 A 
ATOM     11  C   UNL     1      -2.207  -0.680   1.798  0.00  0.00    +0.008 A 
ENDBRANCH   2   6
BRANCH   1  13
ATOM     12  C   UNL     1      -0.053  -0.294   0.030  0.00  0.00    +0.091 C 
ATOM     13  C   UNL     1       0.016   1.212   0.057  0.00  0.00    +0.162 C 
ATOM     14  O   UNL     1       1.082   1.773  -0.092  0.00  0.00    -0.292 OA
ENDBRANCH   1  13
BRANCH   5  15
ATOM     15  N   UNL     1      -0.225   4.297  -0.090  0.00  0.00    -0.357 N 
ATOM     16  H   UNL     1      -0.379   5.386  -0.127  0.00  0.00    +0.142 HD
ATOM     17  H   UNL     1       0.773   3.876  -0.278  0.00  0.00    +0.142 HD
ENDBRANCH   5  15
BRANCH   4  18
ATOM     18  C   UNL     1      -3.027   5.227   0.444  0.00  0.00    +0.100 C 
ATOM     19  N   UNL     1      -3.396   6.301   0.451  0.00  0.00    -0.191 NA
ENDBRANCH   4  18
BRANCH   3  20
ATOM     20  C   UNL     1      -4.470   2.527  -0.293  0.00  0.00    +0.095 C 
ATOM     21  N   UNL     1      -5.302   2.441  -1.062  0.00  0.00    -0.194 NA
ENDBRANCH   3  20
BRANCH   3  22
ATOM     22  C   UNL     1      -3.956   2.689   2.061  0.00  0.00    +0.095 C 
ATOM     23  N   UNL     1      -4.391   2.728   3.109  0.00  0.00    -0.194 NA
ENDBRANCH   3  22
TORSDOF 6
