REMARK  Name = ZINC33127592
REMARK  6 active torsions:
REMARK  status: ('A' for Active; 'I' for Inactive)
REMARK    1  A    between atoms: C_1  and  C_2
REMARK    2  A    between atoms: C_2  and  C_3
REMARK    3  A    between atoms: C_2  and  C_4
REMARK    4  A    between atoms: C_4  and  C_6
REMARK    5  A    between atoms: C_4  and  N_17
REMARK    6  A    between atoms: N_20  and  C_21
REMARK                            x       y       z     vdW  Elec       q    Type
REMARK                         _______ _______ _______ _____ _____    ______ ____
ROOT
ATOM      1  N   UNL     1       4.628  -2.667   0.354  0.00  0.00    -0.288 N 
ATOM      2  C   UNL     1       3.425  -2.080   0.515  0.00  0.00    +0.304 C 
ATOM      3  O   UNL     1       2.414  -2.756   0.508  0.00  0.00    -0.252 OA
ATOM      4  N   UNL     1       3.343  -0.746   0.684  0.00  0.00    -0.269 N 
ATOM      5  H   UNL     1       5.543  -2.056   0.360  0.00  0.00    +0.151 HD
ATOM      6  H   UNL     1       4.249  -0.126   0.616  0.00  0.00    +0.156 HD
ENDROOT
BRANCH   4   7
ATOM      7  C   UNL     1       2.103  -0.148   0.946  0.00  0.00    +0.038 A 
ATOM      8  C   UNL     1       2.027   0.948   1.796  0.00  0.00    +0.027 A 
ATOM      9  C   UNL     1       0.805   1.537   2.057  0.00  0.00    +0.051 A 
ATOM     10  C   UNL     1      -0.349   1.037   1.471  0.00  0.00    +0.162 A 
ATOM     11  C   UNL     1      -0.275  -0.058   0.618  0.00  0.00    +0.164 A 
ATOM     12  C   UNL     1       0.952  -0.650   0.358  0.00  0.00    +0.072 A 
ATOM     13  O   UNL     1      -1.395  -0.558   0.027  0.00  0.00    -0.485 OA
ATOM     14  C   UNL     1      -2.650  -0.176   0.600  0.00  0.00    +0.270 C 
ATOM     15  C   UNL     1      -2.625   1.338   0.849  0.00  0.00    +0.270 C 
ATOM     16  O   UNL     1      -1.546   1.625   1.746  0.00  0.00    -0.485 OA
ENDBRANCH   4   7
BRANCH   1  17
ATOM     17  C   UNL     1       4.717  -4.118   0.170  0.00  0.00    +0.163 C 
BRANCH  17  18
ATOM     18  C   UNL     1       6.077  -4.473  -0.372  0.00  0.00    +0.240 C 
ATOM     19  O   UNL     1       6.914  -4.958   0.360  0.00  0.00    -0.273 OA
ATOM     20  N   UNL     1       6.365  -4.251  -1.669  0.00  0.00    -0.269 N 
ATOM     21  C   UNL     1       7.603  -4.662  -2.338  0.00  0.00    +0.118 C 
ATOM     22  C   UNL     1       7.453  -4.186  -3.792  0.00  0.00    +0.056 C 
ATOM     23  C   UNL     1       6.096  -3.521  -3.837  0.00  0.00    -0.024 A 
ATOM     24  C   UNL     1       5.524  -3.600  -2.577  0.00  0.00    +0.040 A 
ATOM     25  C   UNL     1       4.260  -3.044  -2.370  0.00  0.00    +0.024 A 
ATOM     26  C   UNL     1       3.590  -2.434  -3.410  0.00  0.00    +0.002 A 
ATOM     27  C   UNL     1       4.167  -2.365  -4.664  0.00  0.00    +0.000 A 
ATOM     28  C   UNL     1       5.421  -2.909  -4.875  0.00  0.00    +0.005 A 
ENDBRANCH  17  18
BRANCH  17  30
ATOM     29  C   UNL     1       4.706  -6.323   1.344  0.00  0.00    +0.009 C 
ATOM     30  C   UNL     1       4.505  -4.816   1.515  0.00  0.00    +0.012 C 
ATOM     31  C   UNL     1       5.513  -4.279   2.533  0.00  0.00    +0.009 C 
ENDBRANCH  17  30
ENDBRANCH   1  17
TORSDOF 4
