REMARK  Name = ZINC64026145
REMARK  10 active torsions:
REMARK  status: ('A' for Active; 'I' for Inactive)
REMARK    1  A    between atoms: C_1  and  C_2
REMARK    2  A    between atoms: C_5  and  C_38
REMARK    3  A    between atoms: N_13  and  C_14
REMARK    4  A    between atoms: C_14  and  C_15
REMARK    5  A    between atoms: N_17  and  C_18
REMARK    6  A    between atoms: C_18  and  C_19
REMARK    7  A    between atoms: C_19  and  C_21
REMARK    8  A    between atoms: C_19  and  C_29
REMARK    9  A    between atoms: C_24  and  O_27
REMARK   10  A    between atoms: O_27  and  C_28
REMARK                            x       y       z     vdW  Elec       q    Type
REMARK                         _______ _______ _______ _____ _____    ______ ____
ROOT
ATOM      1  C   UNL     1       0.657   1.118   3.023  0.00  0.00    +0.230 C 
ATOM      2  O   UNL     1      -0.525   0.857   3.103  0.00  0.00    -0.274 OA
ATOM      3  N   UNL     1       1.209   2.008   3.871  0.00  0.00    -0.313 N 
ATOM      4  H   UNL     1       2.154   2.217   3.808  0.00  0.00    +0.149 HD
ENDROOT
BRANCH   1   5
ATOM      5  C   UNL     1       1.508   0.447   1.976  0.00  0.00    +0.201 C 
BRANCH   5  16
ATOM      6  C   UNL     1      -0.028   1.529  -0.049  0.00  0.00    +0.028 C 
ATOM      7  C   UNL     1      -0.003  -0.001  -0.026  0.00  0.00    +0.072 C 
ATOM      8  C   UNL     1      -1.438  -0.543   0.003  0.00  0.00    +0.039 C 
ATOM      9  C   UNL     1      -1.389  -2.070  -0.045  0.00  0.00    +0.108 C 
ATOM     10  C   UNL     1      -0.458  -2.601   1.012  0.00  0.00    -0.014 A 
ATOM     11  C   UNL     1      -0.591  -3.917   1.424  0.00  0.00    +0.006 A 
ATOM     12  C   UNL     1       0.250  -4.434   2.390  0.00  0.00    +0.000 A 
ATOM     13  C   UNL     1       1.233  -3.640   2.953  0.00  0.00    +0.002 A 
ATOM     14  C   UNL     1       1.373  -2.327   2.549  0.00  0.00    +0.023 A 
ATOM     15  C   UNL     1       0.526  -1.804   1.577  0.00  0.00    +0.034 A 
ATOM     16  N   UNL     1       0.680  -0.469   1.187  0.00  0.00    -0.318 N 
BRANCH   9  17
ATOM     17  C   UNL     1      -2.772  -2.620   0.194  0.00  0.00    +0.218 C 
ATOM     18  O   UNL     1      -3.518  -2.069   0.976  0.00  0.00    -0.275 OA
ATOM     19  N   UNL     1      -3.180  -3.725  -0.461  0.00  0.00    -0.329 N 
ATOM     20  H   UNL     1      -2.561  -4.207  -1.032  0.00  0.00    +0.145 HD
ATOM     21  H   UNL     1      -4.093  -4.039  -0.362  0.00  0.00    +0.145 HD
ENDBRANCH   9  17
ENDBRANCH   5  16
ENDBRANCH   1   5
BRANCH   3  22
ATOM     22  C   UNL     1       0.382   2.660   4.889  0.00  0.00    +0.116 C 
BRANCH  22  23
ATOM     23  C   UNL     1       1.247   3.617   5.713  0.00  0.00    +0.064 C 
BRANCH  23  24
ATOM     24  C   UNL     1       2.276   2.828   6.481  0.00  0.00    -0.033 C 
ATOM     25  C   UNL     1       3.621   2.944   6.393  0.00  0.00    -0.000 A 
ATOM     26  C   UNL     1       4.494   3.804   5.586  0.00  0.00    +0.010 A 
ATOM     27  C   UNL     1       5.835   3.687   5.719  0.00  0.00    +0.001 A 
ATOM     28  C   UNL     1       6.410   2.767   6.606  0.00  0.00    +0.002 A 
ATOM     29  C   UNL     1       5.673   1.942   7.380  0.00  0.00    +0.026 A 
ATOM     30  C   UNL     1       4.253   1.980   7.322  0.00  0.00    +0.043 A 
ATOM     31  N   UNL     1       3.334   1.295   7.960  0.00  0.00    -0.380 N 
ATOM     32  C   UNL     1       2.014   1.752   7.511  0.00  0.00    +0.145 C 
ATOM     33  H   UNL     1       3.500   0.605   8.620  0.00  0.00    +0.160 HD
ENDBRANCH  23  24
BRANCH  23  34
ATOM     34  C   UNL     1       0.374   4.378   6.678  0.00  0.00    -0.038 A 
ATOM     35  C   UNL     1      -0.361   3.696   7.629  0.00  0.00    +0.008 A 
ATOM     36  C   UNL     1      -1.162   4.391   8.515  0.00  0.00    +0.046 A 
ATOM     37  C   UNL     1      -1.227   5.775   8.449  0.00  0.00    +0.120 A 
ATOM     38  C   UNL     1      -0.487   6.457   7.494  0.00  0.00    +0.046 A 
ATOM     39  C   UNL     1       0.316   5.758   6.614  0.00  0.00    +0.008 A 
BRANCH  37  40
ATOM     40  O   UNL     1      -2.014   6.462   9.318  0.00  0.00    -0.495 OA
ATOM     41  C   UNL     1      -2.032   7.885   9.192  0.00  0.00    +0.277 C 
ENDBRANCH  37  40
ENDBRANCH  23  34
ENDBRANCH  22  23
ENDBRANCH   3  22
TORSDOF 8
