REMARK  Name = ZINC66571285
REMARK  4 active torsions:
REMARK  status: ('A' for Active; 'I' for Inactive)
REMARK    1  A    between atoms: C_7  and  C_13
REMARK    2  A    between atoms: N_15  and  N_16
REMARK    3  A    between atoms: C_17  and  C_19
REMARK    4  A    between atoms: C_19  and  C_20
REMARK                            x       y       z     vdW  Elec       q    Type
REMARK                         _______ _______ _______ _____ _____    ______ ____
ROOT
ATOM      1  C   UNL     1       1.323  -2.677  -1.444  0.00  0.00    +0.237 C 
ATOM      2  O   UNL     1       1.364  -1.883  -2.359  0.00  0.00    -0.274 OA
ATOM      3  N   UNL     1       1.359  -4.000  -1.698  0.00  0.00    -0.234 N 
ATOM      4  H   UNL     1       1.326  -4.636  -0.966  0.00  0.00    +0.173 HD
ENDROOT
BRANCH   1  11
ATOM      5  C   UNL     1      -0.017   1.379   0.010  0.00  0.00    +0.000 A 
ATOM      6  C   UNL     1       1.170   2.089   0.002  0.00  0.00    +0.002 A 
ATOM      7  C   UNL     1       2.378   1.420  -0.013  0.00  0.00    +0.023 A 
ATOM      8  C   UNL     1       2.400   0.032  -0.021  0.00  0.00    +0.037 A 
ATOM      9  C   UNL     1       1.207  -0.679  -0.013  0.00  0.00    -0.014 A 
ATOM     10  C   UNL     1       0.002  -0.004   0.002  0.00  0.00    +0.006 A 
ATOM     11  C   UNL     1       1.231  -2.185  -0.022  0.00  0.00    +0.117 C 
ATOM     12  C   UNL     1       2.443  -2.681   0.767  0.00  0.00    +0.113 C 
ATOM     13  C   UNL     1       3.679  -1.947   0.324  0.00  0.00    +0.218 C 
ATOM     14  O   UNL     1       4.743  -2.530   0.290  0.00  0.00    -0.275 OA
ATOM     15  N   UNL     1       3.619  -0.652  -0.036  0.00  0.00    -0.285 N 
ATOM     16  H   UNL     1       4.427  -0.189  -0.308  0.00  0.00    +0.155 HD
ENDBRANCH   1  11
BRANCH   3  17
ATOM     17  N   UNL     1       1.444  -4.458  -3.019  0.00  0.00    -0.234 N 
ATOM     18  C   UNL     1       1.480  -5.781  -3.273  0.00  0.00    +0.229 C 
ATOM     19  O   UNL     1       1.439  -6.575  -2.358  0.00  0.00    -0.274 OA
ATOM     20  H   UNL     1       1.477  -3.822  -3.751  0.00  0.00    +0.173 HD
BRANCH  18  21
ATOM     21  C   UNL     1       1.572  -6.273  -4.695  0.00  0.00    +0.101 C 
BRANCH  21  22
ATOM     22  C   UNL     1       1.597  -7.803  -4.704  0.00  0.00    -0.002 C 
ATOM     23  C   UNL     1       2.874  -8.296  -4.022  0.00  0.00    +0.004 C 
ATOM     24  C   UNL     1       2.899  -9.826  -4.031  0.00  0.00    +0.000 C 
ATOM     25  C   UNL     1       2.866 -10.328  -5.476  0.00  0.00    +0.000 C 
ATOM     26  C   UNL     1       1.589  -9.834  -6.159  0.00  0.00    +0.000 C 
ATOM     27  C   UNL     1       1.564  -8.304  -6.149  0.00  0.00    +0.004 C 
ENDBRANCH  21  22
ENDBRANCH  18  21
ENDBRANCH   3  17
TORSDOF 4
