REMARK  Name = ZINC63572814
REMARK  4 active torsions:
REMARK  status: ('A' for Active; 'I' for Inactive)
REMARK    1  A    between atoms: C_1  and  C_2
REMARK    2  A    between atoms: C_5  and  C_8
REMARK    3  A    between atoms: N_26  and  C_27
REMARK    4  A    between atoms: C_32  and  C_33
REMARK                            x       y       z     vdW  Elec       q    Type
REMARK                         _______ _______ _______ _____ _____    ______ ____
ROOT
ATOM      1  C   UNL     1      -0.790  -4.597  -0.415  0.00  0.00    +0.134 C 
ATOM      2  C   UNL     1       0.723  -4.783  -0.578  0.00  0.00    +0.131 C 
ATOM      3  C   UNL     1       1.048  -6.175  -0.053  0.00  0.00    -0.035 C 
ATOM      4  C   UNL     1       1.663  -6.814  -1.041  0.00  0.00    +0.001 A 
ATOM      5  C   UNL     1       2.272  -8.152  -1.112  0.00  0.00    +0.030 A 
ATOM      6  C   UNL     1       2.817  -8.500  -2.308  0.00  0.00    +0.042 A 
ATOM      7  C   UNL     1       2.819  -7.659  -3.427  0.00  0.00    +0.022 A 
ATOM      8  C   UNL     1       2.287  -6.411  -3.448  0.00  0.00    +0.027 A 
ATOM      9  C   UNL     1       1.686  -5.932  -2.247  0.00  0.00    +0.043 A 
ATOM     10  N   UNL     1       1.124  -4.766  -1.986  0.00  0.00    -0.375 N 
ATOM     11 CL   UNL     1       3.550 -10.067  -2.455  0.00  0.00    -0.084 Cl
ATOM     12  C   UNL     1       0.626  -6.644   1.318  0.00  0.00    +0.052 C 
ATOM     13  C   UNL     1      -0.879  -6.343   1.444  0.00  0.00    +0.114 C 
ATOM     14  N   UNL     1      -1.148  -4.986   0.958  0.00  0.00    -0.276 N 
ATOM     15  C   UNL     1      -1.728  -4.086   1.777  0.00  0.00    +0.307 C 
ATOM     16  O   UNL     1      -2.077  -3.006   1.343  0.00  0.00    -0.252 OA
ATOM     17  N   UNL     1      -1.919  -4.385   3.078  0.00  0.00    -0.269 N 
ATOM     18  H   UNL     1      -1.567  -5.211   3.443  0.00  0.00    +0.156 HD
ATOM     19  H   UNL     1       0.992  -4.030  -2.604  0.00  0.00    +0.160 HD
ENDROOT
BRANCH  17  20
ATOM     20  C   UNL     1      -2.627  -3.501   3.901  0.00  0.00    +0.039 A 
ATOM     21  C   UNL     1      -2.612  -2.139   3.634  0.00  0.00    +0.043 A 
ATOM     22  C   UNL     1      -3.312  -1.269   4.449  0.00  0.00    +0.043 A 
ATOM     23  C   UNL     1      -4.027  -1.756   5.530  0.00  0.00    +0.020 A 
ATOM     24  C   UNL     1      -4.043  -3.112   5.797  0.00  0.00    +0.006 A 
ATOM     25  C   UNL     1      -3.349  -3.986   4.983  0.00  0.00    -0.029 A 
ATOM     26  C   UNL     1      -3.372  -5.465   5.272  0.00  0.00    +0.045 C 
ATOM     27 CL   UNL     1      -3.294   0.435   4.118  0.00  0.00    -0.083 Cl
ENDBRANCH  17  20
BRANCH   1  32
ATOM     28  C   UNL     1      -2.184   0.940  -1.307  0.00  0.00    +0.044 C 
ATOM     29  C   UNL     1      -1.821  -0.504  -1.075  0.00  0.00    -0.050 A 
ATOM     30  C   UNL     1      -0.710  -0.823  -0.317  0.00  0.00    +0.004 A 
ATOM     31  C   UNL     1      -0.376  -2.148  -0.103  0.00  0.00    +0.006 A 
ATOM     32  C   UNL     1      -1.154  -3.153  -0.647  0.00  0.00    -0.025 A 
ATOM     33  C   UNL     1      -2.266  -2.833  -1.404  0.00  0.00    +0.006 A 
ATOM     34  C   UNL     1      -2.602  -1.509  -1.614  0.00  0.00    +0.004 A 
ENDBRANCH   1  32
TORSDOF 2
