REMARK  Name = ZINC44934574
REMARK  7 active torsions:
REMARK  status: ('A' for Active; 'I' for Inactive)
REMARK    1  A    between atoms: C_1  and  C_2
REMARK    2  A    between atoms: C_2  and  N_9
REMARK    3  A    between atoms: N_9  and  S_10
REMARK    4  A    between atoms: S_10  and  C_13
REMARK    5  A    between atoms: C_16  and  C_18
REMARK    6  A    between atoms: C_18  and  C_19
REMARK    7  A    between atoms: C_19  and  N_20
REMARK                            x       y       z     vdW  Elec       q    Type
REMARK                         _______ _______ _______ _____ _____    ______ ____
ROOT
ATOM      1  S   UNL     1       0.358  -0.145  -2.675  0.00  0.00    +0.065 S 
ATOM      2  O   UNL     1       1.155  -0.892  -3.584  0.00  0.00    -0.153 OA
ATOM      3  O   UNL     1      -1.062  -0.206  -2.680  0.00  0.00    -0.153 OA
ENDROOT
BRANCH   1   4
ATOM      4  C   UNL     1       0.790   1.548  -2.899  0.00  0.00    +0.143 A 
ATOM      5  C   UNL     1       1.984   2.085  -3.252  0.00  0.00    +0.036 A 
ATOM      6  C   UNL     1       2.093   3.458  -3.369  0.00  0.00    +0.013 A 
ATOM      7  C   UNL     1       1.003   4.227  -3.130  0.00  0.00    -0.010 A 
ATOM      8  S   UNL     1      -0.232   3.001  -2.729  0.00  0.00    -0.074 S 
BRANCH   7   9
ATOM      9  C   UNL     1       0.867   5.726  -3.191  0.00  0.00    +0.023 C 
BRANCH   9  10
ATOM     10  C   UNL     1       0.451   6.143  -4.603  0.00  0.00    -0.081 C 
BRANCH  10  11
ATOM     11  N   UNL     1       0.319   7.605  -4.662  0.00  0.00    +0.378 N 
ATOM     12  H   UNL     1       1.203   8.033  -4.432  0.00  0.00    -0.090 HD
ATOM     13  H   UNL     1       0.044   7.880  -5.593  0.00  0.00    -0.090 HD
ATOM     14  H   UNL     1      -0.382   7.907  -4.002  0.00  0.00    -0.090 HD
ENDBRANCH  10  11
ENDBRANCH   9  10
ENDBRANCH   7   9
ENDBRANCH   1   4
BRANCH   1  15
ATOM     15  N   UNL     1       0.846  -0.578  -1.153  0.00  0.00    -0.182 NA
ATOM     16  H   UNL     1       1.558  -1.226  -1.038  0.00  0.00    +0.149 HD
BRANCH  15  18
ATOM     17  C   UNL     1      -1.316  -0.111  -0.138  0.00  0.00    +0.031 C 
ATOM     18  C   UNL     1       0.201   0.018   0.020  0.00  0.00    +0.058 C 
ATOM     19  C   UNL     1       0.632  -0.762   1.261  0.00  0.00    +0.047 C 
ATOM     20  C   UNL     1       1.919  -0.137   1.870  0.00  0.00    +0.168 C 
ATOM     21  S   UNL     1       1.530   1.653   1.639  0.00  0.00    -0.029 S 
ATOM     22  O   UNL     1       0.667   2.083   2.684  0.00  0.00    -0.174 OA
ATOM     23  O   UNL     1       2.734   2.364   1.385  0.00  0.00    -0.174 OA
ATOM     24  C   UNL     1       0.565   1.514   0.077  0.00  0.00    +0.189 C 
ENDBRANCH  15  18
ENDBRANCH   1  15
TORSDOF 6
