REMARK  Name = ZINC34976256
REMARK  7 active torsions:
REMARK  status: ('A' for Active; 'I' for Inactive)
REMARK    1  A    between atoms: C_1  and  C_2
REMARK    2  A    between atoms: C_5  and  N_9
REMARK    3  A    between atoms: C_6  and  C_8
REMARK    4  A    between atoms: C_10  and  C_18
REMARK    5  A    between atoms: C_11  and  C_17
REMARK    6  A    between atoms: C_12  and  C_15
REMARK    7  A    between atoms: C_13  and  N_14
REMARK                            x       y       z     vdW  Elec       q    Type
REMARK                         _______ _______ _______ _____ _____    ______ ____
ROOT
ATOM      1  N   UNL     1       0.057  -4.172  -0.021  0.00  0.00    -0.301 N 
ATOM      2  C   UNL     1      -1.058  -4.974  -0.025  0.00  0.00    +0.027 A 
ATOM      3  C   UNL     1      -0.679  -6.261  -0.032  0.00  0.00    -0.010 A 
ATOM      4  C   UNL     1       0.790  -6.270  -0.033  0.00  0.00    +0.094 A 
ATOM      5  C   UNL     1       1.182  -4.937  -0.031  0.00  0.00    +0.119 A 
ATOM      6  C   UNL     1      -1.586  -7.465  -0.038  0.00  0.00    +0.047 C 
ATOM      7  C   UNL     1      -2.483  -4.484  -0.021  0.00  0.00    +0.064 C 
ENDROOT
BRANCH   1  12
ATOM      8  C   UNL     1      -0.018   1.503   0.010  0.00  0.00    +0.044 C 
ATOM      9  C   UNL     1       0.002  -0.004   0.002  0.00  0.00    -0.050 A 
ATOM     10  C   UNL     1       0.006  -0.688  -1.200  0.00  0.00    +0.005 A 
ATOM     11  C   UNL     1       0.024  -2.068  -1.211  0.00  0.00    +0.027 A 
ATOM     12  C   UNL     1       0.039  -2.771  -0.013  0.00  0.00    +0.051 A 
ATOM     13  C   UNL     1       0.036  -2.082   1.192  0.00  0.00    -0.026 A 
ATOM     14  C   UNL     1       0.023  -0.700   1.196  0.00  0.00    +0.008 A 
ATOM     15  C   UNL     1       0.052  -2.840   2.494  0.00  0.00    +0.046 C 
ENDBRANCH   1  12
BRANCH   5  16
ATOM     16  N   UNL     1       2.484  -4.471  -0.036  0.00  0.00    -0.343 N 
ATOM     17  H   UNL     1       2.657  -3.517  -0.032  0.00  0.00    +0.144 HD
ATOM     18  H   UNL     1       3.224  -5.099  -0.044  0.00  0.00    +0.144 HD
ENDBRANCH   5  16
BRANCH   4  19
ATOM     19  C   UNL     1       1.645  -7.420  -0.039  0.00  0.00    +0.103 C 
ATOM     20  N   UNL     1       2.322  -8.331  -0.044  0.00  0.00    -0.191 NA
ENDBRANCH   4  19
TORSDOF 3
