REMARK  Name = ZINC08870887
REMARK  9 active torsions:
REMARK  status: ('A' for Active; 'I' for Inactive)
REMARK    1  A    between atoms: C_1  and  C_2
REMARK    2  A    between atoms: C_4  and  C_28
REMARK    3  A    between atoms: C_5  and  S_9
REMARK    4  A    between atoms: C_7  and  C_8
REMARK    5  A    between atoms: S_9  and  N_12
REMARK    6  A    between atoms: N_12  and  C_13
REMARK    7  A    between atoms: C_15  and  S_21
REMARK    8  A    between atoms: C_16  and  O_20
REMARK    9  A    between atoms: S_21  and  C_22
REMARK                            x       y       z     vdW  Elec       q    Type
REMARK                         _______ _______ _______ _____ _____    ______ ____
ROOT
ATOM      1  C   UNL     1      -1.661  -4.750  -1.981  0.00  0.00    +0.051 A 
ATOM      2  C   UNL     1      -2.962  -4.439  -2.352  0.00  0.00    +0.043 A 
ATOM      3  C   UNL     1      -3.310  -4.406  -3.694  0.00  0.00    +0.060 A 
ATOM      4  C   UNL     1      -2.353  -4.686  -4.667  0.00  0.00    +0.149 A 
ATOM      5  C   UNL     1      -1.056  -4.996  -4.292  0.00  0.00    +0.085 A 
ATOM      6  C   UNL     1      -0.708  -5.023  -2.953  0.00  0.00    +0.048 A 
ATOM      7 CL   UNL     1       0.137  -5.344  -5.504  0.00  0.00    -0.080 Cl
ENDROOT
BRANCH   1   8
ATOM      8  N   UNL     1      -1.309  -4.784  -0.627  0.00  0.00    -0.216 N 
ATOM      9  H   UNL     1      -1.880  -5.239   0.012  0.00  0.00    +0.174 HD
BRANCH   8  10
ATOM     10  S   UNL     1       0.082  -4.046  -0.115  0.00  0.00    +0.073 S 
ATOM     11  O   UNL     1       1.124  -4.511  -0.963  0.00  0.00    -0.150 OA
ATOM     12  O   UNL     1       0.126  -4.197   1.298  0.00  0.00    -0.150 OA
BRANCH  10  17
ATOM     13  C   UNL     1      -0.521   1.858  -1.201  0.00  0.00    +0.044 C 
ATOM     14  C   UNL     1      -0.371   0.383  -0.930  0.00  0.00    -0.047 A 
ATOM     15  C   UNL     1      -1.218  -0.245  -0.037  0.00  0.00    +0.009 A 
ATOM     16  C   UNL     1      -1.080  -1.598   0.212  0.00  0.00    -0.024 A 
ATOM     17  C   UNL     1      -0.095  -2.322  -0.433  0.00  0.00    +0.112 A 
ATOM     18  C   UNL     1       0.752  -1.694  -1.326  0.00  0.00    +0.032 A 
ATOM     19  C   UNL     1       0.611  -0.342  -1.578  0.00  0.00    -0.046 A 
ATOM     20  C   UNL     1       1.532   0.343  -2.556  0.00  0.00    +0.044 C 
ATOM     21  C   UNL     1      -2.004  -2.283   1.186  0.00  0.00    +0.046 C 
ENDBRANCH  10  17
ENDBRANCH   8  10
ENDBRANCH   1   8
BRANCH   4  22
ATOM     22  O   UNL     1      -2.692  -4.654  -5.985  0.00  0.00    -0.504 OA
ATOM     23  H   UNL     1      -2.575  -3.789  -6.400  0.00  0.00    +0.292 HD
ENDBRANCH   4  22
BRANCH   3  24
ATOM     24  S   UNL     1      -4.961  -4.012  -4.168  0.00  0.00    -0.047 S 
BRANCH  24  25
ATOM     25  C   UNL     1      -5.652  -5.564  -4.637  0.00  0.00    +0.189 A 
ATOM     26  N   UNL     1      -5.065  -6.738  -4.530  0.00  0.00    -0.209 NA
ATOM     27  H   UNL     1      -7.546  -5.084  -5.356  0.00  0.00    +0.191 HD
ATOM     28  C   UNL     1      -5.882  -7.691  -4.980  0.00  0.00    +0.245 A 
ATOM     29  N   UNL     1      -6.999  -7.144  -5.380  0.00  0.00    -0.160 NA
ATOM     30  N   UNL     1      -6.880  -5.762  -5.164  0.00  0.00    -0.254 N 
ENDBRANCH  24  25
ENDBRANCH   3  24
TORSDOF 6
