REMARK  Name = ZINC49134860
REMARK  7 active torsions:
REMARK  status: ('A' for Active; 'I' for Inactive)
REMARK    1  A    between atoms: C_1  and  C_2
REMARK    2  A    between atoms: C_3  and  N_9
REMARK    3  A    between atoms: C_10  and  C_12
REMARK    4  A    between atoms: N_14  and  C_15
REMARK    5  A    between atoms: N_14  and  C_16
REMARK    6  A    between atoms: C_16  and  C_17
REMARK    7  A    between atoms: N_19  and  C_20
REMARK                            x       y       z     vdW  Elec       q    Type
REMARK                         _______ _______ _______ _____ _____    ______ ____
ROOT
ATOM      1  N   UNL     1      -0.636   0.000  -2.500  0.00  0.00    -0.277 N 
ATOM      2  C   UNL     1      -0.392  -0.660  -3.649  0.00  0.00    +0.303 C 
ATOM      3  O   UNL     1      -0.461  -1.871  -3.680  0.00  0.00    -0.265 OA
ATOM      4  H   UNL     1      -0.665   0.970  -2.494  0.00  0.00    +0.155 HD
ENDROOT
BRANCH   1   7
ATOM      5  C   UNL     1      -2.116   1.260  -0.422  0.00  0.00    +0.047 C 
ATOM      6  C   UNL     1      -1.567  -0.135  -0.276  0.00  0.00    -0.011 A 
ATOM      7  C   UNL     1      -0.849  -0.712  -1.317  0.00  0.00    +0.038 A 
ATOM      8  C   UNL     1      -0.344  -1.999  -1.178  0.00  0.00    +0.023 A 
ATOM      9  C   UNL     1      -0.556  -2.701  -0.008  0.00  0.00    +0.003 A 
ATOM     10  C   UNL     1      -1.270  -2.125   1.026  0.00  0.00    +0.020 A 
ATOM     11  C   UNL     1      -1.770  -0.841   0.894  0.00  0.00    +0.046 A 
ATOM     12 CL   UNL     1      -2.661  -0.119   2.198  0.00  0.00    -0.083 Cl
ENDBRANCH   1   7
BRANCH   2  13
ATOM     13  C   UNL     1      -0.035   0.099  -4.885  0.00  0.00    +0.302 C 
ATOM     14  O   UNL     1       0.048   1.309  -4.851  0.00  0.00    -0.265 OA
ATOM     15  N   UNL     1       0.195  -0.560  -6.038  0.00  0.00    -0.288 N 
ATOM     16  C   UNL     1       0.215  -2.025  -6.052  0.00  0.00    +0.133 C 
BRANCH  15  17
ATOM     17  C   UNL     1       0.424   0.188  -7.276  0.00  0.00    +0.203 C 
BRANCH  17  18
ATOM     18  C   UNL     1       1.898   0.462  -7.432  0.00  0.00    +0.230 C 
ATOM     19  O   UNL     1       2.680   0.070  -6.592  0.00  0.00    -0.274 OA
ATOM     20  N   UNL     1       2.347   1.142  -8.506  0.00  0.00    -0.317 N 
ATOM     21  C   UNL     1       3.780   1.408  -8.657  0.00  0.00    +0.128 C 
ATOM     22  H   UNL     1       1.722   1.455  -9.178  0.00  0.00    +0.148 HD
ENDBRANCH  17  18
ENDBRANCH  15  17
ENDBRANCH   2  13
TORSDOF 4
