REMARK  Name = ZINC53734628
REMARK  4 active torsions:
REMARK  status: ('A' for Active; 'I' for Inactive)
REMARK    1  A    between atoms: C_1  and  C_2
REMARK    2  A    between atoms: C_5  and  N_21
REMARK    3  A    between atoms: C_7  and  N_8
REMARK    4  A    between atoms: N_11  and  C_14
REMARK                            x       y       z     vdW  Elec       q    Type
REMARK                         _______ _______ _______ _____ _____    ______ ____
ROOT
ATOM      1  N   UNL     1       0.025  -0.013   2.415  0.00  0.00    -0.327 N 
ATOM      2  C   UNL     1      -1.238   0.336   3.080  0.00  0.00    +0.124 C 
ATOM      3  C   UNL     1      -1.211  -0.225   4.508  0.00  0.00    +0.124 C 
ATOM      4  N   UNL     1       0.055   0.167   5.143  0.00  0.00    -0.326 N 
ATOM      5  C   UNL     1       1.318  -0.181   4.478  0.00  0.00    +0.124 C 
ATOM      6  C   UNL     1       1.292   0.375   3.053  0.00  0.00    +0.124 C 
ENDROOT
BRANCH   1  13
ATOM      7  C   UNL     1      -0.018   1.503   0.010  0.00  0.00    +0.045 C 
ATOM      8  C   UNL     1       0.002  -0.004   0.002  0.00  0.00    -0.029 A 
ATOM      9  C   UNL     1       0.006  -0.688  -1.199  0.00  0.00    +0.007 A 
ATOM     10  C   UNL     1       0.024  -2.069  -1.211  0.00  0.00    +0.023 A 
ATOM     11  C   UNL     1       0.040  -2.776  -0.014  0.00  0.00    +0.026 A 
ATOM     12  C   UNL     1       0.036  -2.092   1.193  0.00  0.00    +0.046 A 
ATOM     13  C   UNL     1       0.023  -0.704   1.202  0.00  0.00    +0.034 A 
BRANCH  11  14
ATOM     14  N   UNL     1       0.058  -4.172  -0.027  0.00  0.00    -0.358 N 
ATOM     15  H   UNL     1       0.060  -4.649  -0.872  0.00  0.00    +0.142 HD
ATOM     16  H   UNL     1       0.069  -4.665   0.808  0.00  0.00    +0.142 HD
ENDBRANCH  11  14
ENDBRANCH   1  13
BRANCH   4  17
ATOM     17  C   UNL     1       0.057   0.860   6.357  0.00  0.00    +0.048 A 
ATOM     18  C   UNL     1       0.089   0.161   7.556  0.00  0.00    +0.024 A 
ATOM     19  C   UNL     1       0.092   0.848   8.754  0.00  0.00    +0.002 A 
ATOM     20  C   UNL     1       0.063   2.230   8.761  0.00  0.00    +0.002 A 
ATOM     21  C   UNL     1       0.031   2.930   7.569  0.00  0.00    +0.022 A 
ATOM     22  C   UNL     1       0.034   2.249   6.366  0.00  0.00    +0.062 A 
ATOM     23 CL   UNL     1       0.000   3.128   4.870  0.00  0.00    -0.082 Cl
ENDBRANCH   4  17
TORSDOF 3
