REMARK  Name = ZINC37353306
REMARK  5 active torsions:
REMARK  status: ('A' for Active; 'I' for Inactive)
REMARK    1  A    between atoms: C_1  and  C_2
REMARK    2  A    between atoms: C_6  and  N_9
REMARK    3  A    between atoms: C_10  and  C_12
REMARK    4  A    between atoms: C_13  and  C_19
REMARK    5  A    between atoms: C_17  and  N_18
REMARK                            x       y       z     vdW  Elec       q    Type
REMARK                         _______ _______ _______ _____ _____    ______ ____
ROOT
ATOM      1  N   UNL     1       0.053  -2.799   2.394  0.00  0.00    -0.279 N 
ATOM      2  C   UNL     1       0.274  -4.129   2.392  0.00  0.00    +0.253 C 
ATOM      3  O   UNL     1       0.550  -4.698   1.352  0.00  0.00    -0.270 OA
ATOM      4  H   UNL     1      -0.097  -2.334   3.232  0.00  0.00    +0.155 HD
ENDROOT
BRANCH   1  10
ATOM      5  C   UNL     1       2.479  -0.292  -1.073  0.00  0.00    +0.045 C 
ATOM      6  C   UNL     1       1.200  -0.863  -0.517  0.00  0.00    -0.030 A 
ATOM      7  C   UNL     1       0.010  -0.687  -1.200  0.00  0.00    +0.006 A 
ATOM      8  C   UNL     1      -1.165  -1.210  -0.693  0.00  0.00    +0.022 A 
ATOM      9  C   UNL     1      -1.155  -1.911   0.498  0.00  0.00    +0.064 A 
ATOM     10  C   UNL     1       0.038  -2.090   1.187  0.00  0.00    +0.071 A 
ATOM     11  C   UNL     1       1.219  -1.567   0.672  0.00  0.00    +0.066 A 
ATOM     12 CL   UNL     1       2.714  -1.794   1.525  0.00  0.00    -0.081 Cl
ATOM     13 CL   UNL     1      -2.631  -2.567   1.134  0.00  0.00    -0.082 Cl
ENDBRANCH   1  10
BRANCH   2  14
ATOM     14  C   UNL     1       0.182  -4.890   3.643  0.00  0.00    +0.098 A 
ATOM     15  C   UNL     1      -0.975  -5.515   4.165  0.00  0.00    +0.074 A 
ATOM     16  N   UNL     1      -0.655  -6.089   5.290  0.00  0.00    -0.177 NA
ATOM     17  N   UNL     1       0.702  -5.869   5.550  0.00  0.00    -0.264 N 
ATOM     18  H   UNL     1       1.190  -6.190   6.324  0.00  0.00    +0.190 HD
ATOM     19  C   UNL     1       1.218  -5.140   4.540  0.00  0.00    +0.124 A 
ATOM     20  C   UNL     1      -2.342  -5.517   3.530  0.00  0.00    +0.068 C 
BRANCH  19  21
ATOM     21  N   UNL     1       2.527  -4.718   4.418  0.00  0.00    -0.343 N 
ATOM     22  H   UNL     1       2.798  -4.193   3.649  0.00  0.00    +0.144 HD
ATOM     23  H   UNL     1       3.175  -4.946   5.102  0.00  0.00    +0.144 HD
ENDBRANCH  19  21
ENDBRANCH   2  14
TORSDOF 3
