REMARK  Name = ZINC44489653
REMARK  7 active torsions:
REMARK  status: ('A' for Active; 'I' for Inactive)
REMARK    1  A    between atoms: C_1  and  C_2
REMARK    2  A    between atoms: C_2  and  C_4
REMARK    3  A    between atoms: C_2  and  N_11
REMARK    4  A    between atoms: C_7  and  O_10
REMARK    5  A    between atoms: N_11  and  C_12
REMARK    6  A    between atoms: C_13  and  C_15
REMARK    7  A    between atoms: C_20  and  O_21
REMARK                            x       y       z     vdW  Elec       q    Type
REMARK                         _______ _______ _______ _____ _____    ______ ____
ROOT
ATOM      1  N   UNL     1      -1.569  -0.299  -0.332  0.00  0.00    -0.294 N 
ATOM      2  C   UNL     1      -2.739   0.277   0.337  0.00  0.00    +0.133 C 
ATOM      3  C   UNL     1      -1.693  -1.435  -1.046  0.00  0.00    +0.250 C 
ATOM      4  O   UNL     1      -0.739  -1.876  -1.657  0.00  0.00    -0.270 OA
ENDROOT
BRANCH   3   5
ATOM      5  C   UNL     1      -2.986  -2.143  -1.086  0.00  0.00    +0.078 A 
ATOM      6  C   UNL     1      -4.175  -1.427  -1.245  0.00  0.00    +0.018 A 
ATOM      7  C   UNL     1      -5.380  -2.094  -1.282  0.00  0.00    +0.016 A 
ATOM      8  C   UNL     1      -5.418  -3.475  -1.162  0.00  0.00    +0.021 A 
ATOM      9  C   UNL     1      -4.250  -4.196  -1.004  0.00  0.00    +0.061 A 
ATOM     10  C   UNL     1      -3.028  -3.540  -0.970  0.00  0.00    +0.130 A 
ATOM     11 BR   UNL     1      -7.079  -4.378  -1.215  0.00  0.00    -0.050 Br
BRANCH  10  12
ATOM     12  O   UNL     1      -1.880  -4.246  -0.821  0.00  0.00    -0.506 OA
ATOM     13  H   UNL     1      -1.615  -4.376   0.101  0.00  0.00    +0.292 HD
ENDBRANCH  10  12
ENDBRANCH   3   5
BRANCH   1  15
ATOM     14  C   UNL     1      -0.450   1.876  -0.329  0.00  0.00    +0.033 C 
ATOM     15  C   UNL     1      -0.266   0.361  -0.225  0.00  0.00    +0.103 C 
BRANCH  15  16
ATOM     16  C   UNL     1       0.361   0.021   1.103  0.00  0.00    -0.027 A 
ATOM     17  C   UNL     1       1.691  -0.353   1.163  0.00  0.00    +0.009 A 
ATOM     18  C   UNL     1       2.268  -0.665   2.378  0.00  0.00    +0.046 A 
ATOM     19  C   UNL     1       1.512  -0.602   3.540  0.00  0.00    +0.117 A 
ATOM     20  C   UNL     1       0.178  -0.226   3.478  0.00  0.00    +0.046 A 
ATOM     21  C   UNL     1      -0.392   0.090   2.260  0.00  0.00    +0.009 A 
BRANCH  19  22
ATOM     22  O   UNL     1       2.078  -0.909   4.737  0.00  0.00    -0.507 OA
ATOM     23  H   UNL     1       2.475  -0.153   5.190  0.00  0.00    +0.292 HD
ENDBRANCH  19  22
ENDBRANCH  15  16
ENDBRANCH   1  15
TORSDOF 5
