REMARK  Name = ZINC44465781
REMARK  7 active torsions:
REMARK  status: ('A' for Active; 'I' for Inactive)
REMARK    1  A    between atoms: C_4  and  S_7
REMARK    2  A    between atoms: S_7  and  N_10
REMARK    3  A    between atoms: C_18  and  C_19
REMARK    4  A    between atoms: C_19  and  CA_20
REMARK    5  A    between atoms: CA_20  and  C_22
REMARK    6  A    between atoms: CA_20  and  N_24
REMARK    7  A    between atoms: C_22  and  O_23
REMARK                            x       y       z     vdW  Elec       q    Type
REMARK                         _______ _______ _______ _____ _____    ______ ____
ROOT
ATOM      1  N   UNL     1       4.222  -1.008   1.494  0.00  0.00    -0.215 N 
ATOM      2  C   UNL     1       4.835   0.031   2.156  0.00  0.00    +0.073 A 
ATOM      3  C   UNL     1       5.232   1.309   1.774  0.00  0.00    +0.028 A 
ATOM      4  C   UNL     1       5.837   2.140   2.691  0.00  0.00    +0.002 A 
ATOM      5  C   UNL     1       6.057   1.716   3.995  0.00  0.00    +0.001 A 
ATOM      6  C   UNL     1       5.676   0.465   4.391  0.00  0.00    +0.010 A 
ATOM      7  C   UNL     1       5.059  -0.394   3.479  0.00  0.00    +0.002 A 
ATOM      8  C   UNL     1       4.537  -1.760   3.559  0.00  0.00    +0.033 A 
ATOM      9  C   UNL     1       4.047  -2.064   2.347  0.00  0.00    +0.042 A 
ENDROOT
BRANCH   1  10
ATOM     10  S   UNL     1       3.758  -0.982  -0.095  0.00  0.00    +0.084 S 
ATOM     11  O   UNL     1       3.843  -2.321  -0.565  0.00  0.00    -0.148 OA
ATOM     12  O   UNL     1       4.467   0.086  -0.708  0.00  0.00    -0.148 OA
BRANCH  10  16
ATOM     13  C   UNL     1      -0.624   0.148  -0.196  0.00  0.00    +0.000 A 
ATOM     14  C   UNL     1       0.342   1.133  -0.121  0.00  0.00    +0.002 A 
ATOM     15  C   UNL     1       1.681   0.788  -0.090  0.00  0.00    +0.029 A 
ATOM     16  C   UNL     1       2.052  -0.543  -0.134  0.00  0.00    +0.111 A 
ATOM     17  C   UNL     1       1.086  -1.528  -0.207  0.00  0.00    +0.029 A 
ATOM     18  C   UNL     1      -0.252  -1.183  -0.240  0.00  0.00    +0.002 A 
ENDBRANCH  10  16
ENDBRANCH   1  10
BRANCH   9  19
ATOM     19  C   UNL     1       3.403  -3.376   1.979  0.00  0.00    +0.041 C 
BRANCH  19  20
ATOM     20  CA  UNL     1       4.486  -4.384   1.588  0.00  0.00    -0.043 C 
BRANCH  20  21
ATOM     21  N   UNL     1       5.332  -4.670   2.755  0.00  0.00    +0.382 N 
ATOM     22  H1  UNL     1       5.766  -3.817   3.073  0.00  0.00    -0.090 HD
ATOM     23  H2  UNL     1       4.765  -5.055   3.495  0.00  0.00    -0.090 HD
ATOM     24  H3  UNL     1       6.046  -5.335   2.498  0.00  0.00    -0.090 HD
ENDBRANCH  20  21
BRANCH  20  25
ATOM     25  C   UNL     1       3.828  -5.678   1.106  0.00  0.00    +0.140 C 
BRANCH  25  26
ATOM     26  O   UNL     1       4.834  -6.576   0.632  0.00  0.00    -0.397 OA
ATOM     27  H   UNL     1       4.488  -7.420   0.310  0.00  0.00    +0.209 HD
ENDBRANCH  25  26
ENDBRANCH  20  25
ENDBRANCH  19  20
ENDBRANCH   9  19
TORSDOF 7
