REMARK  Name = ZINC58135679
REMARK  6 active torsions:
REMARK  status: ('A' for Active; 'I' for Inactive)
REMARK    1  A    between atoms: C_1  and  C_2
REMARK    2  A    between atoms: C_2  and  C_4
REMARK    3  A    between atoms: C_2  and  N_12
REMARK    4  A    between atoms: N_12  and  C_13
REMARK    5  A    between atoms: C_13  and  C_14
REMARK    6  A    between atoms: N_19  and  C_20
REMARK                            x       y       z     vdW  Elec       q    Type
REMARK                         _______ _______ _______ _____ _____    ______ ____
ROOT
ATOM      1  C   UNL     1       0.573  -1.070   3.548  0.00  0.00    +0.234 C 
ATOM      2  O   UNL     1       1.750  -1.342   3.447  0.00  0.00    -0.274 OA
ATOM      3  N   UNL     1      -0.056  -1.224   4.730  0.00  0.00    -0.239 N 
ATOM      4  C   UNL     1       0.624  -1.680   5.801  0.00  0.00    +0.310 C 
ATOM      5  O   UNL     1       1.805  -1.952   5.700  0.00  0.00    -0.252 OA
ATOM      6  N   UNL     1      -0.004  -1.834   6.983  0.00  0.00    -0.269 N 
ATOM      7  H   UNL     1      -0.998  -1.006   4.811  0.00  0.00    +0.159 HD
ATOM      8  H   UNL     1      -0.927  -1.554   7.082  0.00  0.00    +0.156 HD
ENDROOT
BRANCH   6   9
ATOM      9  C   UNL     1       0.677  -2.398   8.070  0.00  0.00    +0.038 A 
ATOM     10  C   UNL     1      -0.002  -3.212   8.967  0.00  0.00    +0.027 A 
ATOM     11  C   UNL     1       0.669  -3.768  10.039  0.00  0.00    +0.051 A 
ATOM     12  C   UNL     1       2.021  -3.517  10.223  0.00  0.00    +0.162 A 
ATOM     13  C   UNL     1       2.703  -2.704   9.325  0.00  0.00    +0.164 A 
ATOM     14  C   UNL     1       2.030  -2.149   8.247  0.00  0.00    +0.072 A 
ATOM     15  O   UNL     1       4.031  -2.452   9.484  0.00  0.00    -0.485 OA
ATOM     16  C   UNL     1       4.588  -2.724  10.774  0.00  0.00    +0.270 C 
ATOM     17  C   UNL     1       4.094  -4.103  11.230  0.00  0.00    +0.270 C 
ATOM     18  O   UNL     1       2.664  -4.071  11.288  0.00  0.00    -0.485 OA
ENDBRANCH   6   9
BRANCH   1  19
ATOM     19  C   UNL     1      -0.188  -0.560   2.351  0.00  0.00    +0.178 C 
BRANCH  19  20
ATOM     20  N   UNL     1       0.714  -0.482   1.194  0.00  0.00    -0.302 NA
ATOM     21  H   UNL     1       1.146  -1.376   1.012  0.00  0.00    +0.123 HD
BRANCH  20  23
ATOM     22  C   UNL     1      -0.005   1.542   0.018  0.00  0.00    +0.029 C 
ATOM     23  C   UNL     1       0.005   0.012   0.006  0.00  0.00    +0.081 C 
BRANCH  23  24
ATOM     24  C   UNL     1       0.705  -0.476  -1.236  0.00  0.00    -0.029 A 
ATOM     25  C   UNL     1       2.087  -0.506  -1.283  0.00  0.00    +0.006 A 
ATOM     26  C   UNL     1       2.730  -0.953  -2.422  0.00  0.00    +0.022 A 
ATOM     27  C   UNL     1       1.992  -1.371  -3.515  0.00  0.00    +0.059 A 
ATOM     28  C   UNL     1       0.609  -1.341  -3.467  0.00  0.00    +0.060 A 
ATOM     29  C   UNL     1      -0.034  -0.899  -2.324  0.00  0.00    +0.026 A 
ATOM     30 CL   UNL     1      -0.319  -1.865  -4.837  0.00  0.00    -0.082 Cl
ATOM     31 CL   UNL     1       2.799  -1.932  -4.945  0.00  0.00    -0.082 Cl
ENDBRANCH  23  24
ENDBRANCH  20  23
ENDBRANCH  19  20
ENDBRANCH   1  19
TORSDOF 5
