REMARK  Name = ZINC45183419
REMARK  7 active torsions:
REMARK  status: ('A' for Active; 'I' for Inactive)
REMARK    1  A    between atoms: C_4  and  C_7
REMARK    2  A    between atoms: C_7  and  C_8
REMARK    3  A    between atoms: C_7  and  C_19
REMARK    4  A    between atoms: C_7  and  N_21
REMARK    5  A    between atoms: C_8  and  N_9
REMARK    6  A    between atoms: C_12  and  C_15
REMARK    7  A    between atoms: C_15  and  C_16
REMARK                            x       y       z     vdW  Elec       q    Type
REMARK                         _______ _______ _______ _____ _____    ______ ____
ROOT
ATOM      1  C   UNL     1       3.485  -1.977  -0.857  0.00  0.00    -0.036 C 
ENDROOT
BRANCH   1   2
ATOM      2  N   UNL     1       4.725  -2.763  -0.891  0.00  0.00    +0.382 N 
ATOM      3  C   UNL     1       5.721  -2.067  -1.714  0.00  0.00    -0.078 C 
ATOM      4  C   UNL     1       7.042  -2.840  -1.687  0.00  0.00    -0.015 C 
ATOM      5  C   UNL     1       6.813  -4.249  -2.241  0.00  0.00    -0.006 C 
ATOM      6  C   UNL     1       5.720  -4.939  -1.421  0.00  0.00    -0.015 C 
ATOM      7  C   UNL     1       4.448  -4.088  -1.458  0.00  0.00    -0.078 C 
ATOM      8  H   UNL     1       5.081  -2.867   0.047  0.00  0.00    -0.082 HD
BRANCH   5   9
ATOM      9  C   UNL     1       8.111  -5.053  -2.143  0.00  0.00    +0.099 C 
BRANCH   9  10
ATOM     10  C   UNL     1       7.920  -6.396  -2.800  0.00  0.00    +0.211 C 
ATOM     11  O   UNL     1       6.851  -6.681  -3.298  0.00  0.00    -0.276 OA
ATOM     12  N   UNL     1       8.937  -7.280  -2.835  0.00  0.00    -0.329 N 
ATOM     13  H   UNL     1       9.792  -7.052  -2.437  0.00  0.00    +0.145 HD
ATOM     14  H   UNL     1       8.814  -8.145  -3.257  0.00  0.00    +0.145 HD
ENDBRANCH   9  10
ENDBRANCH   5   9
ENDBRANCH   1   2
BRANCH   1  15
ATOM     15  C   UNL     1       3.691  -0.735   0.013  0.00  0.00    +0.115 C 
BRANCH  15  19
ATOM     16  C   UNL     1       6.401   1.931  -1.934  0.00  0.00    +0.000 A 
ATOM     17  C   UNL     1       6.671   1.483  -0.655  0.00  0.00    +0.000 A 
ATOM     18  C   UNL     1       5.794   0.621  -0.025  0.00  0.00    +0.006 A 
ATOM     19  C   UNL     1       4.646   0.206  -0.674  0.00  0.00    -0.016 A 
ATOM     20  C   UNL     1       4.376   0.654  -1.953  0.00  0.00    +0.006 A 
ATOM     21  C   UNL     1       5.254   1.516  -2.584  0.00  0.00    +0.000 A 
ENDBRANCH  15  19
BRANCH  15  22
ATOM     22  N   UNL     1       4.245  -1.135   1.313  0.00  0.00    -0.311 NA
ATOM     23  H   UNL     1       3.617  -1.757   1.798  0.00  0.00    +0.120 HD
ATOM     24  H   UNL     1       5.157  -1.554   1.203  0.00  0.00    +0.120 HD
ENDBRANCH  15  22
BRANCH  15  25
ATOM     25  C   UNL     1       2.399  -0.060   0.217  0.00  0.00    +0.087 C 
ATOM     26  N   UNL     1       1.402   0.462   0.375  0.00  0.00    -0.194 NA
ENDBRANCH  15  25
ENDBRANCH   1  15
TORSDOF 7
