REMARK  Name = ZINC49570833
REMARK  4 active torsions:
REMARK  status: ('A' for Active; 'I' for Inactive)
REMARK    1  A    between atoms: C_6  and  S_7
REMARK    2  A    between atoms: S_7  and  N_10
REMARK    3  A    between atoms: N_10  and  C_11
REMARK    4  A    between atoms: N_21  and  N_22
REMARK                            x       y       z     vdW  Elec       q    Type
REMARK                         _______ _______ _______ _____ _____    ______ ____
ROOT
ATOM      1  S   UNL     1      -1.371  -0.818  -0.030  0.00  0.00    +0.062 S 
ATOM      2  O   UNL     1      -1.264  -1.649   1.117  0.00  0.00    -0.153 OA
ATOM      3  O   UNL     1      -2.332   0.225  -0.129  0.00  0.00    -0.153 OA
ENDROOT
BRANCH   1   9
ATOM      4  C   UNL     1       1.235  -0.316   0.632  0.00  0.00    +0.048 A 
ATOM      5  C   UNL     1       2.464   0.294   0.413  0.00  0.00    +0.038 A 
ATOM      6  C   UNL     1       2.622   1.122  -0.682  0.00  0.00    +0.128 A 
ATOM      7  N   UNL     1       1.623   1.338  -1.516  0.00  0.00    -0.236 NA
ATOM      8  C   UNL     1       0.437   0.775  -1.341  0.00  0.00    +0.159 A 
ATOM      9  C   UNL     1       0.208  -0.070  -0.260  0.00  0.00    +0.147 A 
ATOM     10  N   UNL     1      -0.588   1.031  -2.245  0.00  0.00    -0.266 N 
ATOM     11 BR   UNL     1       3.905  -0.004   1.600  0.00  0.00    -0.049 Br
ATOM     12  H   UNL     1      -1.428   0.551  -2.174  0.00  0.00    +0.167 HD
BRANCH  10  13
ATOM     13  N   UNL     1      -0.412   1.959  -3.232  0.00  0.00    -0.255 NA
ATOM     14  H   UNL     1       0.400   1.742  -3.791  0.00  0.00    +0.140 HD
ATOM     15  H   UNL     1      -1.237   2.035  -3.807  0.00  0.00    +0.140 HD
ENDBRANCH  10  13
ENDBRANCH   1   9
BRANCH   1  16
ATOM     16  N   UNL     1      -1.629  -1.823  -1.321  0.00  0.00    -0.188 NA
ATOM     17  H   UNL     1      -2.352  -1.640  -1.942  0.00  0.00    +0.148 HD
BRANCH  16  18
ATOM     18  C   UNL     1      -0.766  -2.989  -1.525  0.00  0.00    +0.061 C 
ATOM     19  C   UNL     1      -1.473  -4.285  -1.051  0.00  0.00    +0.000 C 
ATOM     20  C   UNL     1      -0.770  -5.360  -1.917  0.00  0.00    -0.077 C 
ATOM     21  N   UNL     1      -0.549  -4.712  -3.228  0.00  0.00    +0.383 N 
ATOM     22  C   UNL     1      -0.541  -3.244  -3.029  0.00  0.00    -0.050 C 
ATOM     23  C   UNL     1       0.858  -2.732  -3.427  0.00  0.00    -0.016 C 
ATOM     24  C   UNL     1       1.370  -3.836  -4.389  0.00  0.00    -0.020 C 
ATOM     25  C   UNL     1       0.778  -5.117  -3.740  0.00  0.00    -0.078 C 
ATOM     26  H   UNL     1      -1.273  -4.980  -3.878  0.00  0.00    -0.081 HD
ENDBRANCH  16  18
ENDBRANCH   1  16
TORSDOF 4
