REMARK  Name = ZINC44707850
REMARK  8 active torsions:
REMARK  status: ('A' for Active; 'I' for Inactive)
REMARK    1  A    between atoms: C_1  and  C_2
REMARK    2  A    between atoms: C_8  and  C_12
REMARK    3  A    between atoms: C_12  and  C_13
REMARK    4  A    between atoms: C_13  and  N_14
REMARK    5  A    between atoms: C_15  and  C_17
REMARK    6  A    between atoms: C_28  and  C_30
REMARK    7  A    between atoms: C_32  and  C_39
REMARK    8  A    between atoms: C_34  and  C_35
REMARK                            x       y       z     vdW  Elec       q    Type
REMARK                         _______ _______ _______ _____ _____    ______ ____
ROOT
ATOM      1  C   UNL     1      -2.481  -1.964   7.819  0.00  0.00    +0.100 C 
ATOM      2  C   UNL     1      -2.088  -3.271   8.545  0.00  0.00    +0.121 C 
ATOM      3  N   UNL     1      -2.918  -3.281   9.773  0.00  0.00    -0.296 N 
ATOM      4  C   UNL     1      -4.234  -2.759   9.332  0.00  0.00    +0.115 C 
ATOM      5  C   UNL     1      -3.890  -1.633   8.338  0.00  0.00    -0.004 C 
ATOM      6  C   UNL     1      -4.889  -1.624   7.185  0.00  0.00    -0.010 C 
ATOM      7  C   UNL     1      -6.271  -1.235   7.716  0.00  0.00    -0.082 C 
ATOM      8  N   UNL     1      -6.202   0.092   8.339  0.00  0.00    +0.379 N 
ATOM      9  C   UNL     1      -5.310   0.052   9.504  0.00  0.00    -0.082 C 
ATOM     10  C   UNL     1      -3.887  -0.283   9.049  0.00  0.00    -0.010 C 
ATOM     11  C   UNL     1      -2.558  -3.675  11.011  0.00  0.00    +0.250 C 
ATOM     12  O   UNL     1      -1.401  -3.972  11.242  0.00  0.00    -0.270 OA
ATOM     13  H   UNL     1      -5.848   0.759   7.670  0.00  0.00    -0.086 HD
ATOM     14  H   UNL     1      -7.125   0.373   8.634  0.00  0.00    -0.086 HD
ENDROOT
BRANCH  11  15
ATOM     15  C   UNL     1      -3.565  -3.744  12.084  0.00  0.00    +0.087 A 
ATOM     16  C   UNL     1      -5.018  -3.565  11.952  0.00  0.00    +0.058 A 
ATOM     17  C   UNL     1      -5.522  -3.717  13.186  0.00  0.00    +0.103 A 
ATOM     18  O   UNL     1      -4.520  -3.969  14.043  0.00  0.00    -0.455 OA
ATOM     19  C   UNL     1      -3.345  -3.995  13.407  0.00  0.00    +0.220 A 
ATOM     20  C   UNL     1      -6.981  -3.621  13.552  0.00  0.00    +0.086 C 
BRANCH  19  21
ATOM     21  C   UNL     1      -2.004  -4.254  14.043  0.00  0.00    +0.451 C 
ATOM     22  F   UNL     1      -1.444  -3.042  14.461  0.00  0.00    -0.163 F 
ATOM     23  F   UNL     1      -2.167  -5.097  15.148  0.00  0.00    -0.163 F 
ATOM     24  F   UNL     1      -1.155  -4.863  13.113  0.00  0.00    -0.163 F 
ENDBRANCH  19  21
ENDBRANCH  11  15
BRANCH   1  26
ATOM     25  N   UNL     1      -2.411  -1.127   5.493  0.00  0.00    -0.315 N 
ATOM     26  C   UNL     1      -2.507  -2.181   6.328  0.00  0.00    +0.218 C 
ATOM     27  O   UNL     1      -2.616  -3.302   5.880  0.00  0.00    -0.275 OA
ATOM     28  H   UNL     1      -2.324  -0.230   5.851  0.00  0.00    +0.149 HD
BRANCH  25  29
ATOM     29  C   UNL     1      -2.437  -1.338   4.043  0.00  0.00    +0.109 C 
BRANCH  29  30
ATOM     30  C   UNL     1      -2.312   0.010   3.330  0.00  0.00    +0.056 C 
BRANCH  30  38
ATOM     31  C   UNL     1      -7.270  -0.376   0.486  0.00  0.00    +0.044 C 
ATOM     32  C   UNL     1      -5.788  -0.423   0.214  0.00  0.00    -0.050 A 
ATOM     33  C   UNL     1      -5.331  -0.613  -1.083  0.00  0.00    +0.005 A 
ATOM     34  C   UNL     1      -3.981  -0.659  -1.352  0.00  0.00    +0.026 A 
ATOM     35  C   UNL     1      -3.064  -0.514  -0.316  0.00  0.00    +0.047 A 
ATOM     36  C   UNL     1      -3.532  -0.321   0.997  0.00  0.00    +0.003 A 
ATOM     37  C   UNL     1      -4.905  -0.272   1.246  0.00  0.00    +0.013 A 
ATOM     38  C   UNL     1      -2.339  -0.206   1.839  0.00  0.00    -0.021 A 
ATOM     39  C   UNL     1      -1.275  -0.329   1.030  0.00  0.00    +0.087 A 
ATOM     40  N   UNL     1      -1.688  -0.514  -0.261  0.00  0.00    -0.360 N 
ATOM     41  H   UNL     1      -1.100  -0.627  -1.023  0.00  0.00    +0.165 HD
ENDBRANCH  30  38
ENDBRANCH  29  30
ENDBRANCH  25  29
ENDBRANCH   1  26
TORSDOF 6
