REMARK  Name = ZINC61888131
REMARK  5 active torsions:
REMARK  status: ('A' for Active; 'I' for Inactive)
REMARK    1  A    between atoms: C_2  and  S_8
REMARK    2  A    between atoms: S_8  and  N_11
REMARK    3  A    between atoms: N_11  and  C_12
REMARK    4  A    between atoms: C_17  and  C_19
REMARK    5  A    between atoms: N_20  and  O_21
REMARK                            x       y       z     vdW  Elec       q    Type
REMARK                         _______ _______ _______ _____ _____    ______ ____
ROOT
ATOM      1  N   UNL     1       1.823   4.365   1.377  0.00  0.00    -0.186 NA
ATOM      2  H   UNL     1       1.167   4.642   2.036  0.00  0.00    +0.148 HD
ENDROOT
BRANCH   1   3
ATOM      3  C   UNL     1       3.207   4.112   1.783  0.00  0.00    +0.087 C 
ATOM      4  C   UNL     1       3.318   2.721   2.442  0.00  0.00    +0.021 C 
ATOM      5  C   UNL     1       4.349   2.922   3.580  0.00  0.00    +0.002 C 
ATOM      6  C   UNL     1       4.001   4.335   4.112  0.00  0.00    +0.013 C 
ATOM      7  C   UNL     1       3.642   5.138   2.844  0.00  0.00    +0.074 C 
BRANCH   7   8
ATOM      8  C   UNL     1       2.509   6.088   3.138  0.00  0.00    +0.136 C 
ATOM      9  N   UNL     1       2.454   7.232   2.541  0.00  0.00    -0.076 NA
ATOM     10  N   UNL     1       1.533   5.736   4.043  0.00  0.00    -0.344 N 
ATOM     11  H   UNL     1       1.574   4.876   4.491  0.00  0.00    +0.144 HD
ATOM     12  H   UNL     1       0.803   6.347   4.232  0.00  0.00    +0.144 HD
BRANCH   9  13
ATOM     13  O   UNL     1       3.395   7.550   1.531  0.00  0.00    -0.408 OA
ATOM     14  H   UNL     1       3.323   8.454   1.197  0.00  0.00    +0.328 HD
ENDBRANCH   9  13
ENDBRANCH   7   8
ENDBRANCH   1   3
BRANCH   1  15
ATOM     15  S   UNL     1       1.377   4.180  -0.207  0.00  0.00    +0.061 S 
ATOM     16  O   UNL     1       2.359   4.850  -0.986  0.00  0.00    -0.153 OA
ATOM     17  O   UNL     1      -0.004   4.504  -0.281  0.00  0.00    -0.153 OA
BRANCH  15  19
ATOM     18  C   UNL     1       0.381   1.698  -0.787  0.00  0.00    +0.057 A 
ATOM     19  C   UNL     1       1.514   2.466  -0.590  0.00  0.00    +0.132 A 
ATOM     20  C   UNL     1       2.732   1.879  -0.697  0.00  0.00    +0.106 A 
ATOM     21  S   UNL     1       2.297   0.192  -1.086  0.00  0.00    -0.063 S 
ATOM     22  C   UNL     1       0.522   0.381  -1.081  0.00  0.00    +0.081 A 
ATOM     23 CL   UNL     1      -0.705  -0.811  -1.374  0.00  0.00    -0.076 Cl
ATOM     24 CL   UNL     1       4.306   2.586  -0.505  0.00  0.00    -0.074 Cl
ENDBRANCH  15  19
ENDBRANCH   1  15
TORSDOF 5
