REMARK  Name = ZINC28513269
REMARK  5 active torsions:
REMARK  status: ('A' for Active; 'I' for Inactive)
REMARK    1  A    between atoms: C_1  and  N_2
REMARK    2  A    between atoms: N_5  and  C_6
REMARK    3  A    between atoms: C_10  and  N_12
REMARK    4  A    between atoms: C_13  and  C_15
REMARK    5  A    between atoms: C_16  and  C_17
REMARK                            x       y       z     vdW  Elec       q    Type
REMARK                         _______ _______ _______ _____ _____    ______ ____
ROOT
ATOM      1  N   UNL     1       1.752  -6.095   3.217  0.00  0.00    -0.282 N 
ATOM      2  C   UNL     1       2.186  -6.718   4.331  0.00  0.00    +0.241 C 
ATOM      3  O   UNL     1       2.634  -6.069   5.257  0.00  0.00    -0.270 OA
ATOM      4  H   UNL     1       1.465  -6.615   2.451  0.00  0.00    +0.155 HD
ENDROOT
BRANCH   1   9
ATOM      5  C   UNL     1       1.927  -2.654   1.925  0.00  0.00    +0.037 A 
ATOM      6  C   UNL     1       1.647  -1.929   3.077  0.00  0.00    +0.023 A 
ATOM      7  C   UNL     1       1.404  -2.587   4.267  0.00  0.00    +0.004 A 
ATOM      8  C   UNL     1       1.438  -3.968   4.316  0.00  0.00    +0.023 A 
ATOM      9  C   UNL     1       1.717  -4.698   3.167  0.00  0.00    +0.035 A 
ATOM     10  C   UNL     1       1.956  -4.040   1.969  0.00  0.00    +0.046 A 
BRANCH   5  15
ATOM     11  C   UNL     1       1.443  -2.409  -2.859  0.00  0.00    +0.129 C 
ATOM     12  N   UNL     1       1.903  -1.831  -1.594  0.00  0.00    -0.302 N 
ATOM     13  C   UNL     1       1.749  -2.517  -0.444  0.00  0.00    +0.304 C 
ATOM     14  O   UNL     1       1.228  -3.616  -0.457  0.00  0.00    -0.253 OA
ATOM     15  N   UNL     1       2.173  -1.986   0.720  0.00  0.00    -0.269 N 
ATOM     16  H   UNL     1       2.319  -0.955  -1.584  0.00  0.00    +0.150 HD
ATOM     17  H   UNL     1       2.648  -1.140   0.722  0.00  0.00    +0.156 HD
ENDBRANCH   5  15
ENDBRANCH   1   9
BRANCH   2  18
ATOM     18  C   UNL     1       2.119  -8.181   4.426  0.00  0.00    +0.069 C 
ATOM     19  C   UNL     1       2.553  -8.804   5.538  0.00  0.00    +0.033 C 
BRANCH  19  20
ATOM     20  C   UNL     1       2.485 -10.273   5.634  0.00  0.00    +0.065 A 
ATOM     21  C   UNL     1       2.936 -10.908   6.804  0.00  0.00    +0.028 A 
ATOM     22  C   UNL     1       2.878 -12.266   6.905  0.00  0.00    +0.012 A 
ATOM     23  C   UNL     1       2.361 -12.995   5.816  0.00  0.00    +0.001 A 
ATOM     24  C   UNL     1       2.272 -14.395   5.854  0.00  0.00    +0.011 A 
ATOM     25  C   UNL     1       1.766 -15.068   4.784  0.00  0.00    +0.021 A 
ATOM     26  C   UNL     1       1.333 -14.384   3.647  0.00  0.00    +0.043 A 
ATOM     27  C   UNL     1       1.405 -13.026   3.575  0.00  0.00    +0.048 A 
ATOM     28  C   UNL     1       1.921 -12.296   4.662  0.00  0.00    +0.073 A 
ATOM     29  N   UNL     1       1.996 -10.965   4.619  0.00  0.00    -0.247 NA
ATOM     30 CL   UNL     1       0.695 -15.278   2.303  0.00  0.00    -0.083 Cl
ENDBRANCH  19  20
ENDBRANCH   2  18
TORSDOF 4
