REMARK  Name = ZINC20026562
REMARK  8 active torsions:
REMARK  status: ('A' for Active; 'I' for Inactive)
REMARK    1  A    between atoms: C_1  and  C_2
REMARK    2  A    between atoms: C_2  and  C_3
REMARK    3  A    between atoms: C_2  and  N_4
REMARK    4  A    between atoms: C_11  and  C_23
REMARK    5  A    between atoms: C_13  and  C_21
REMARK    6  A    between atoms: C_14  and  N_20
REMARK    7  A    between atoms: C_15  and  C_16
REMARK    8  A    between atoms: C_15  and  C_18
REMARK                            x       y       z     vdW  Elec       q    Type
REMARK                         _______ _______ _______ _____ _____    ______ ____
ROOT
ATOM      1  N   UNL     1      -2.551   3.062  -2.957  0.00  0.00    -0.296 NA
ATOM      2  C   UNL     1      -2.300   1.616  -3.082  0.00  0.00    +0.112 C 
ATOM      3  C   UNL     1      -1.536   1.166  -1.866  0.00  0.00    -0.009 C 
ATOM      4  C   UNL     1      -0.742   1.972  -1.223  0.00  0.00    -0.028 C 
ATOM      5  C   UNL     1      -0.495   3.399  -1.633  0.00  0.00    +0.044 C 
ATOM      6  C   UNL     1      -1.280   3.768  -2.884  0.00  0.00    +0.093 C 
ATOM      7  C   UNL     1       1.002   3.569  -1.913  0.00  0.00    +0.071 C 
ATOM      8  C   UNL     1       1.824   2.928  -0.839  0.00  0.00    +0.057 C 
ATOM      9  C   UNL     1       1.391   1.990  -0.001  0.00  0.00    +0.054 C 
ATOM     10  C   UNL     1      -0.018   1.468   0.010  0.00  0.00    +0.202 C 
ENDROOT
BRANCH   7  11
ATOM     11  C   UNL     1       1.330   5.039  -1.976  0.00  0.00    -0.020 A 
ATOM     12  C   UNL     1       1.120   5.842  -0.870  0.00  0.00    +0.006 A 
ATOM     13  C   UNL     1       1.425   7.189  -0.926  0.00  0.00    +0.000 A 
ATOM     14  C   UNL     1       1.931   7.736  -2.091  0.00  0.00    +0.001 A 
ATOM     15  C   UNL     1       2.136   6.935  -3.198  0.00  0.00    +0.020 A 
ATOM     16  C   UNL     1       1.835   5.586  -3.141  0.00  0.00    +0.045 A 
ATOM     17 CL   UNL     1       2.093   4.579  -4.532  0.00  0.00    -0.083 Cl
ENDBRANCH   7  11
BRANCH   1  19
ATOM     18  C   UNL     1      -2.627   3.317  -5.391  0.00  0.00    +0.024 C 
ATOM     19  C   UNL     1      -3.369   3.552  -4.074  0.00  0.00    +0.051 C 
ATOM     20  C   UNL     1      -4.702   2.801  -4.098  0.00  0.00    +0.024 C 
ENDBRANCH   1  19
BRANCH   9  21
ATOM     21  N   UNL     1       2.280   1.470   0.904  0.00  0.00    -0.358 N 
ATOM     22  H   UNL     1       1.954   0.694   1.612  0.00  0.00    +0.142 HD
ATOM     23  H   UNL     1       3.319   1.831   0.923  0.00  0.00    +0.142 HD
ENDBRANCH   9  21
BRANCH  10  24
ATOM     24  C   UNL     1       0.002  -0.004   0.002  0.00  0.00    +0.095 C 
ATOM     25  N   UNL     1       0.018  -1.140  -0.004  0.00  0.00    -0.194 NA
ENDBRANCH  10  24
BRANCH  10  26
ATOM     26  C   UNL     1      -0.710   1.944   1.219  0.00  0.00    +0.095 C 
ATOM     27  N   UNL     1      -1.244   2.312   2.151  0.00  0.00    -0.194 NA
ENDBRANCH  10  26
BRANCH   8  28
ATOM     28  C   UNL     1       3.184   3.357  -0.704  0.00  0.00    +0.097 C 
ATOM     29  N   UNL     1       4.262   3.698  -0.596  0.00  0.00    -0.191 NA
ENDBRANCH   8  28
TORSDOF 6
