REMARK  Name = ZINC63571274
REMARK  3 active torsions:
REMARK  status: ('A' for Active; 'I' for Inactive)
REMARK    1  A    between atoms: C_5  and  C_7
REMARK    2  A    between atoms: N_24  and  C_25
REMARK    3  A    between atoms: C_29  and  C_31
REMARK                            x       y       z     vdW  Elec       q    Type
REMARK                         _______ _______ _______ _____ _____    ______ ____
ROOT
ATOM      1  C   UNL     1       0.966  -1.585   0.348  0.00  0.00    +0.137 C 
ATOM      2  C   UNL     1       1.391  -2.007  -1.063  0.00  0.00    +0.131 C 
ATOM      3  C   UNL     1       0.125  -2.028  -1.910  0.00  0.00    -0.035 C 
ATOM      4  C   UNL     1       0.350  -1.223  -2.941  0.00  0.00    -0.001 A 
ATOM      5  C   UNL     1      -0.464  -0.893  -4.122  0.00  0.00    +0.010 A 
ATOM      6  C   UNL     1       0.078  -0.003  -4.994  0.00  0.00    +0.001 A 
ATOM      7  C   UNL     1       1.334   0.586  -4.812  0.00  0.00    +0.002 A 
ATOM      8  C   UNL     1       2.151   0.337  -3.758  0.00  0.00    +0.026 A 
ATOM      9  C   UNL     1       1.692  -0.587  -2.775  0.00  0.00    +0.043 A 
ATOM     10  N   UNL     1       2.285  -1.025  -1.678  0.00  0.00    -0.375 N 
ATOM     11  C   UNL     1      -1.110  -2.795  -1.503  0.00  0.00    +0.052 C 
ATOM     12  C   UNL     1      -1.424  -2.390  -0.051  0.00  0.00    +0.114 C 
ATOM     13  N   UNL     1      -0.187  -2.411   0.739  0.00  0.00    -0.276 N 
ATOM     14  C   UNL     1      -0.105  -3.196   1.832  0.00  0.00    +0.307 C 
ATOM     15  O   UNL     1       0.872  -3.134   2.553  0.00  0.00    -0.252 OA
ATOM     16  N   UNL     1      -1.107  -4.049   2.126  0.00  0.00    -0.269 N 
ATOM     17  H   UNL     1      -1.847  -4.158   1.509  0.00  0.00    +0.156 HD
ATOM     18  H   UNL     1       3.149  -0.750  -1.333  0.00  0.00    +0.160 HD
ENDROOT
BRANCH   1  23
ATOM     19  C   UNL     1      -0.930   1.613  -0.311  0.00  0.00    +0.000 A 
ATOM     20  C   UNL     1      -0.146   2.542   0.349  0.00  0.00    +0.003 A 
ATOM     21  C   UNL     1       0.998   2.136   1.009  0.00  0.00    +0.039 A 
ATOM     22  C   UNL     1       1.359   0.799   1.009  0.00  0.00    +0.128 A 
ATOM     23  C   UNL     1       0.574  -0.130   0.348  0.00  0.00    +0.010 A 
ATOM     24  C   UNL     1      -0.571   0.279  -0.311  0.00  0.00    +0.008 A 
ATOM     25  F   UNL     1       2.478   0.401   1.654  0.00  0.00    -0.205 F 
ENDBRANCH   1  23
BRANCH  16  26
ATOM     26  C   UNL     1      -1.078  -4.777   3.321  0.00  0.00    +0.035 A 
ATOM     27  C   UNL     1       0.130  -5.006   3.967  0.00  0.00    +0.023 A 
ATOM     28  C   UNL     1       0.155  -5.724   5.146  0.00  0.00    +0.002 A 
ATOM     29  C   UNL     1      -1.022  -6.215   5.683  0.00  0.00    +0.012 A 
ATOM     30  C   UNL     1      -2.225  -5.989   5.042  0.00  0.00    +0.057 A 
ATOM     31  C   UNL     1      -2.258  -5.266   3.865  0.00  0.00    +0.035 A 
BRANCH  30  32
ATOM     32  C   UNL     1      -3.504  -6.527   5.631  0.00  0.00    +0.417 C 
ATOM     33  F   UNL     1      -3.220  -7.213   6.816  0.00  0.00    -0.166 F 
ATOM     34  F   UNL     1      -4.374  -5.465   5.904  0.00  0.00    -0.166 F 
ATOM     35  F   UNL     1      -4.106  -7.400   4.718  0.00  0.00    -0.166 F 
ENDBRANCH  30  32
ENDBRANCH  16  26
TORSDOF 3
