REMARK  Name = ZINC29433806
REMARK  8 active torsions:
REMARK  status: ('A' for Active; 'I' for Inactive)
REMARK    1  A    between atoms: C_3  and  N_22
REMARK    2  A    between atoms: C_4  and  N_10
REMARK    3  A    between atoms: C_6  and  N_7
REMARK    4  A    between atoms: N_10  and  S_11
REMARK    5  A    between atoms: S_11  and  C_14
REMARK    6  A    between atoms: N_22  and  C_23
REMARK    7  A    between atoms: C_23  and  C_24
REMARK    8  A    between atoms: C_24  and  O_25
REMARK                            x       y       z     vdW  Elec       q    Type
REMARK                         _______ _______ _______ _____ _____    ______ ____
ROOT
ATOM      1  C   UNL     1       4.597  -0.129   2.481  0.00  0.00    +0.034 A 
ATOM      2  C   UNL     1       4.080   0.720   3.443  0.00  0.00    +0.027 A 
ATOM      3  C   UNL     1       3.701   2.008   3.099  0.00  0.00    +0.050 A 
ATOM      4  C   UNL     1       3.833   2.441   1.780  0.00  0.00    +0.071 A 
ATOM      5  C   UNL     1       4.351   1.583   0.822  0.00  0.00    +0.059 A 
ATOM      6  C   UNL     1       4.732   0.301   1.175  0.00  0.00    +0.128 A 
ENDROOT
BRANCH   6   7
ATOM      7  N   UNL     1       5.286  -0.612   0.151  0.00  0.00    +0.056 N 
ATOM      8  O   UNL     1       5.406  -0.235  -1.001  0.00  0.00    -0.126 OA
ATOM      9  O   UNL     1       5.622  -1.742   0.460  0.00  0.00    -0.126 OA
ENDBRANCH   6   7
BRANCH   4  10
ATOM     10  N   UNL     1       3.447   3.739   1.425  0.00  0.00    -0.214 N 
ATOM     11  H   UNL     1       3.990   4.605   1.832  0.00  0.00    +0.174 HD
BRANCH  10  12
ATOM     12  S   UNL     1       2.174   3.972   0.392  0.00  0.00    +0.075 S 
ATOM     13  O   UNL     1       2.377   3.095  -0.708  0.00  0.00    -0.150 OA
ATOM     14  O   UNL     1       2.033   5.376   0.230  0.00  0.00    -0.150 OA
BRANCH  12  15
ATOM     15  C   UNL     1       0.723   3.412   1.220  0.00  0.00    +0.146 A 
ATOM     16  C   UNL     1      -0.275   4.311   1.550  0.00  0.00    +0.070 A 
ATOM     17  C   UNL     1      -1.414   3.871   2.201  0.00  0.00    +0.125 A 
ATOM     18  C   UNL     1      -1.558   2.531   2.518  0.00  0.00    +0.041 A 
ATOM     19  C   UNL     1      -0.559   1.633   2.193  0.00  0.00    +0.043 A 
ATOM     20  C   UNL     1       0.581   2.073   1.541  0.00  0.00    +0.150 A 
ATOM     21  F   UNL     1       1.556   1.195   1.218  0.00  0.00    -0.203 F 
ATOM     22  F   UNL     1      -2.389   4.749   2.524  0.00  0.00    -0.205 F 
ENDBRANCH  12  15
ENDBRANCH  10  12
ENDBRANCH   4  10
BRANCH   3  23
ATOM     23  N   UNL     1       3.183   2.871   4.073  0.00  0.00    -0.340 N 
ATOM     24  H   UNL     1       2.879   3.892   3.797  0.00  0.00    +0.146 HD
BRANCH  23  25
ATOM     25  C   UNL     1       3.046   2.414   5.458  0.00  0.00    +0.129 C 
BRANCH  25  26
ATOM     26  C   UNL     1       2.460   3.542   6.311  0.00  0.00    +0.174 C 
BRANCH  26  27
ATOM     27  O   UNL     1       1.129   3.827   5.873  0.00  0.00    -0.393 OA
ATOM     28  H   UNL     1       0.544   4.614   6.371  0.00  0.00    +0.209 HD
ENDBRANCH  26  27
ENDBRANCH  25  26
ENDBRANCH  23  25
ENDBRANCH   3  23
TORSDOF 8
