REMARK  Name = ZINC39370647
REMARK  10 active torsions:
REMARK  status: ('A' for Active; 'I' for Inactive)
REMARK    1  A    between atoms: C_1  and  C_2
REMARK    2  A    between atoms: C_2  and  C_4
REMARK    3  A    between atoms: C_2  and  O_15
REMARK    4  A    between atoms: N_6  and  C_7
REMARK    5  A    between atoms: O_15  and  C_16
REMARK    6  A    between atoms: C_19  and  C_24
REMARK    7  A    between atoms: C_21  and  O_22
REMARK    8  A    between atoms: O_22  and  C_23
REMARK    9  A    between atoms: C_25  and  C_26
REMARK   10  A    between atoms: C_25  and  C_28
REMARK                            x       y       z     vdW  Elec       q    Type
REMARK                         _______ _______ _______ _____ _____    ______ ____
ROOT
ATOM      1  C   UNL     1      -2.275   0.268  -1.316  0.00  0.00    +0.163 A 
ATOM      2  C   UNL     1      -1.451   0.634  -2.372  0.00  0.00    +0.050 A 
ATOM      3  C   UNL     1      -1.896   0.520  -3.670  0.00  0.00    +0.012 A 
ATOM      4  C   UNL     1      -3.183   0.034  -3.928  0.00  0.00    -0.020 A 
ATOM      5  C   UNL     1      -4.013  -0.335  -2.864  0.00  0.00    +0.057 A 
ATOM      6  C   UNL     1      -3.557  -0.222  -1.565  0.00  0.00    +0.162 A 
ENDROOT
BRANCH   6   7
ATOM      7  O   UNL     1      -4.359  -0.584  -0.528  0.00  0.00    -0.491 OA
ATOM      8  C   UNL     1      -5.659  -1.078  -0.856  0.00  0.00    +0.277 C 
ENDBRANCH   6   7
BRANCH   4   9
ATOM      9  C   UNL     1      -3.661  -0.088  -5.313  0.00  0.00    +0.026 C 
ATOM     10  C   UNL     1      -2.791  -0.368  -6.305  0.00  0.00    +0.072 C 
BRANCH  10  11
ATOM     11  C   UNL     1      -3.243  -0.314  -7.742  0.00  0.00    +0.216 C 
ATOM     12  N   UNL     1      -3.003  -1.607  -8.395  0.00  0.00    -0.359 N 
ATOM     13  C   UNL     1      -2.182  -1.399  -9.383  0.00  0.00    +0.060 A 
ATOM     14  C   UNL     1      -1.582  -2.288 -10.387  0.00  0.00    +0.027 A 
ATOM     15  C   UNL     1      -0.746  -1.778 -11.313  0.00  0.00    +0.002 A 
ATOM     16  C   UNL     1      -0.415  -0.412 -11.365  0.00  0.00    +0.002 A 
ATOM     17  C   UNL     1      -0.909   0.489 -10.492  0.00  0.00    +0.027 A 
ATOM     18  C   UNL     1      -1.832   0.047  -9.438  0.00  0.00    +0.060 A 
ATOM     19  N   UNL     1      -2.451   0.677  -8.482  0.00  0.00    -0.359 N 
ATOM     20  H   UNL     1      -3.387  -2.460  -8.137  0.00  0.00    +0.162 HD
ATOM     21  H   UNL     1      -2.398   1.627  -8.293  0.00  0.00    +0.162 HD
ENDBRANCH  10  11
BRANCH  10  22
ATOM     22  C   UNL     1      -1.438  -0.718  -5.993  0.00  0.00    +0.099 C 
ATOM     23  N   UNL     1      -0.364  -0.995  -5.745  0.00  0.00    -0.191 NA
ENDBRANCH  10  22
ENDBRANCH   4   9
BRANCH   1  24
ATOM     24  O   UNL     1      -1.830   0.383  -0.038  0.00  0.00    -0.476 OA
BRANCH  24  26
ATOM     25  C   UNL     1      -0.353   2.291   0.091  0.00  0.00    +0.062 C 
ATOM     26  C   UNL     1      -0.466   0.766   0.142  0.00  0.00    +0.256 C 
BRANCH  26  27
ATOM     27  C   UNL     1       0.023   0.271   1.479  0.00  0.00    +0.258 C 
ATOM     28  O   UNL     1      -0.748  -0.269   2.244  0.00  0.00    -0.271 OA
ATOM     29  N   UNL     1       1.316   0.428   1.824  0.00  0.00    -0.281 N 
ATOM     30  H   UNL     1       1.915   0.927   1.247  0.00  0.00    +0.155 HD
BRANCH  29  31
ATOM     31  C   UNL     1       1.795  -0.128   3.016  0.00  0.00    +0.053 A 
ATOM     32  C   UNL     1       1.260  -1.317   3.493  0.00  0.00    +0.044 A 
ATOM     33  C   UNL     1       1.736  -1.864   4.670  0.00  0.00    +0.043 A 
ATOM     34  C   UNL     1       2.744  -1.227   5.373  0.00  0.00    +0.021 A 
ATOM     35  C   UNL     1       3.278  -0.043   4.901  0.00  0.00    +0.023 A 
ATOM     36  C   UNL     1       2.811   0.506   3.722  0.00  0.00    +0.062 A 
ATOM     37 CL   UNL     1       3.487   1.990   3.126  0.00  0.00    -0.082 Cl
ATOM     38 CL   UNL     1       1.067  -3.350   5.268  0.00  0.00    -0.083 Cl
ENDBRANCH  29  31
ENDBRANCH  26  27
ENDBRANCH  24  26
ENDBRANCH   1  24
TORSDOF 8
