REMARK  Name = ZINC16929761
REMARK  9 active torsions:
REMARK  status: ('A' for Active; 'I' for Inactive)
REMARK    1  A    between atoms: C_1  and  O_2
REMARK    2  A    between atoms: O_2  and  C_3
REMARK    3  A    between atoms: C_5  and  C_12
REMARK    4  A    between atoms: C_7  and  O_10
REMARK    5  A    between atoms: C_8  and  O_9
REMARK    6  A    between atoms: O_10  and  C_11
REMARK    7  A    between atoms: N_16  and  N_20
REMARK    8  A    between atoms: C_21  and  C_23
REMARK    9  A    between atoms: C_26  and  O_29
REMARK                            x       y       z     vdW  Elec       q    Type
REMARK                         _______ _______ _______ _____ _____    ______ ____
ROOT
ATOM      1  C   UNL     1      10.577   3.611   1.628  0.00  0.00    +0.028 C 
ATOM      2  C   UNL     1       9.389   3.973   1.080  0.00  0.00    +0.079 C 
ATOM      3  C   UNL     1       8.117   3.225   1.013  0.00  0.00    +0.275 C 
ATOM      4  O   UNL     1       8.006   2.110   1.487  0.00  0.00    -0.267 OA
ATOM      5  N   UNL     1       7.107   3.827   0.408  0.00  0.00    -0.169 N 
ATOM      6  C   UNL     1       7.234   5.065  -0.111  0.00  0.00    +0.138 C 
ATOM      7  S   UNL     1       6.053   6.006  -0.918  0.00  0.00    -0.026 S 
ATOM      8  S   UNL     1       8.932   5.487   0.247  0.00  0.00    -0.059 S 
ENDROOT
BRANCH   1  11
ATOM      9  C   UNL     1      14.054   4.984   1.956  0.00  0.00    +0.166 A 
ATOM     10  C   UNL     1      12.941   4.186   2.141  0.00  0.00    +0.057 A 
ATOM     11  C   UNL     1      11.762   4.457   1.435  0.00  0.00    -0.017 A 
ATOM     12  C   UNL     1      11.719   5.532   0.539  0.00  0.00    +0.057 A 
ATOM     13  C   UNL     1      12.835   6.328   0.363  0.00  0.00    +0.166 A 
ATOM     14  C   UNL     1      14.005   6.056   1.068  0.00  0.00    +0.201 A 
BRANCH   9  16
ATOM     15  C   UNL     1      15.179   3.607   3.535  0.00  0.00    +0.277 C 
ATOM     16  O   UNL     1      15.199   4.721   2.641  0.00  0.00    -0.491 OA
ENDBRANCH   9  16
BRANCH  14  17
ATOM     17  O   UNL     1      15.102   6.838   0.889  0.00  0.00    -0.501 OA
ATOM     18  H   UNL     1      15.690   6.536   0.183  0.00  0.00    +0.292 HD
ENDBRANCH  14  17
BRANCH  13  19
ATOM     19  O   UNL     1      12.792   7.376  -0.503  0.00  0.00    -0.491 OA
ATOM     20  C   UNL     1      11.560   7.598  -1.192  0.00  0.00    +0.277 C 
ENDBRANCH  13  19
ENDBRANCH   1  11
BRANCH   5  21
ATOM     21  N   UNL     1       5.876   3.166   0.309  0.00  0.00    -0.222 N 
ATOM     22  C   UNL     1       5.487   2.639  -0.870  0.00  0.00    +0.261 C 
ATOM     23  O   UNL     1       6.204   2.739  -1.846  0.00  0.00    -0.269 OA
ATOM     24  H   UNL     1       5.304   3.087   1.088  0.00  0.00    +0.174 HD
BRANCH  22  25
ATOM     25  C   UNL     1       4.190   1.943  -0.974  0.00  0.00    +0.038 A 
ATOM     26  C   UNL     1       3.784   1.397  -2.195  0.00  0.00    +0.016 A 
ATOM     27  C   UNL     1       2.574   0.748  -2.288  0.00  0.00    +0.046 A 
ATOM     28  C   UNL     1       1.755   0.636  -1.170  0.00  0.00    +0.117 A 
ATOM     29  C   UNL     1       2.152   1.183   0.044  0.00  0.00    +0.046 A 
ATOM     30  C   UNL     1       3.364   1.828   0.147  0.00  0.00    +0.016 A 
BRANCH  28  31
ATOM     31  O   UNL     1       0.562  -0.004  -1.266  0.00  0.00    -0.507 OA
ATOM     32  H   UNL     1       0.609  -0.953  -1.083  0.00  0.00    +0.292 HD
ENDBRANCH  28  31
ENDBRANCH  22  25
ENDBRANCH   5  21
TORSDOF 7
