REMARK  Name = ZINC40103289
REMARK  5 active torsions:
REMARK  status: ('A' for Active; 'I' for Inactive)
REMARK    1  A    between atoms: C_1  and  S_2
REMARK    2  A    between atoms: S_2  and  C_5
REMARK    3  A    between atoms: C_9  and  N_11
REMARK    4  A    between atoms: N_14  and  C_15
REMARK    5  A    between atoms: C_15  and  C_16
REMARK                            x       y       z     vdW  Elec       q    Type
REMARK                         _______ _______ _______ _____ _____    ______ ____
ROOT
ATOM      1  N   UNL     1       4.271  -1.111  -2.639  0.00  0.00    -0.268 N 
ATOM      2  C   UNL     1       4.978  -0.843  -1.524  0.00  0.00    +0.304 C 
ATOM      3  O   UNL     1       4.401  -0.543  -0.496  0.00  0.00    -0.252 OA
ATOM      4  N   UNL     1       6.324  -0.907  -1.547  0.00  0.00    -0.292 N 
ATOM      5  H   UNL     1       4.726  -1.413  -3.441  0.00  0.00    +0.156 HD
ATOM      6  H   UNL     1       6.784  -1.146  -2.367  0.00  0.00    +0.151 HD
ENDROOT
BRANCH   1  11
ATOM      7  C   UNL     1       0.773  -1.083  -1.504  0.00  0.00    +0.090 A 
ATOM      8  C   UNL     1       0.130  -0.643  -2.646  0.00  0.00    +0.028 A 
ATOM      9  C   UNL     1       0.857  -0.358  -3.787  0.00  0.00    +0.024 A 
ATOM     10  C   UNL     1       2.231  -0.512  -3.788  0.00  0.00    +0.062 A 
ATOM     11  C   UNL     1       2.880  -0.954  -2.642  0.00  0.00    +0.055 A 
ATOM     12  C   UNL     1       2.146  -1.234  -1.497  0.00  0.00    +0.051 A 
ATOM     13 CL   UNL     1       3.144  -0.154  -5.221  0.00  0.00    -0.082 Cl
BRANCH   7  15
ATOM     14  C   UNL     1      -0.227   0.120   0.861  0.00  0.00    +0.200 C 
ATOM     15  S   UNL     1      -0.159  -1.446  -0.053  0.00  0.00    -0.006 S 
ATOM     16  O   UNL     1       0.628  -2.393   0.656  0.00  0.00    -0.170 OA
ATOM     17  O   UNL     1      -1.452  -1.790  -0.530  0.00  0.00    -0.170 OA
ENDBRANCH   7  15
ENDBRANCH   1  11
BRANCH   4  18
ATOM     18  C   UNL     1       7.092  -0.615  -0.334  0.00  0.00    +0.182 C 
BRANCH  18  19
ATOM     19  C   UNL     1       8.564  -0.756  -0.625  0.00  0.00    +0.155 A 
ATOM     20  N   UNL     1       9.274  -1.848  -0.508  0.00  0.00    -0.132 NA
ATOM     21  N   UNL     1      10.497  -1.622  -0.837  0.00  0.00    -0.129 NA
ATOM     22  C   UNL     1      10.633  -0.354  -1.187  0.00  0.00    +0.161 A 
ATOM     23  N   UNL     1       9.395   0.228  -1.064  0.00  0.00    -0.285 N 
ATOM     24  C   UNL     1       9.217   1.546  -1.364  0.00  0.00    +0.094 A 
ATOM     25  C   UNL     1      10.254   2.298  -1.789  0.00  0.00    +0.018 A 
ATOM     26  C   UNL     1      11.533   1.731  -1.928  0.00  0.00    +0.005 A 
ATOM     27  C   UNL     1      11.726   0.419  -1.625  0.00  0.00    +0.048 A 
ENDBRANCH  18  19
ENDBRANCH   4  18
TORSDOF 4
