REMARK  Name = ZINC22521255
REMARK  3 active torsions:
REMARK  status: ('A' for Active; 'I' for Inactive)
REMARK    1  A    between atoms: C_6  and  O_7
REMARK    2  A    between atoms: O_7  and  C_8
REMARK    3  A    between atoms: C_8  and  C_9
REMARK                            x       y       z     vdW  Elec       q    Type
REMARK                         _______ _______ _______ _____ _____    ______ ____
ROOT
ATOM      1  O   UNL     1      -0.017   1.425   0.010  0.00  0.00    -0.477 OA
ENDROOT
BRANCH   1   7
ATOM      2  C   UNL     1       2.359   1.319  -0.008  0.00  0.00    +0.047 A 
ATOM      3  C   UNL     1       3.581   1.965  -0.021  0.00  0.00    +0.025 A 
ATOM      4  C   UNL     1       3.635   3.347  -0.014  0.00  0.00    +0.059 A 
ATOM      5  C   UNL     1       2.464   4.087   0.001  0.00  0.00    +0.063 A 
ATOM      6  C   UNL     1       1.240   3.444   0.009  0.00  0.00    +0.067 A 
ATOM      7  C   UNL     1       1.185   2.058   0.002  0.00  0.00    +0.123 A 
ATOM      8 CL   UNL     1       2.534   5.821   0.009  0.00  0.00    -0.082 Cl
ATOM      9 CL   UNL     1       5.171   4.155  -0.024  0.00  0.00    -0.082 Cl
ENDBRANCH   1   7
BRANCH   1  10
ATOM     10  C   UNL     1       0.002  -0.004   0.002  0.00  0.00    +0.281 C 
BRANCH  10  11
ATOM     11  C   UNL     1      -1.412  -0.526   0.013  0.00  0.00    +0.109 C 
ATOM     12  N   UNL     1      -2.406   0.301   0.027  0.00  0.00    -0.388 N 
ATOM     13  N   UNL     1      -1.644  -1.876   0.008  0.00  0.00    -0.345 N 
ATOM     14  H   UNL     1      -3.438  -0.080   0.034  0.00  0.00    +0.157 HD
ATOM     15  H   UNL     1      -2.676  -2.257   0.015  0.00  0.00    +0.143 HD
ATOM     16  H   UNL     1      -0.798  -2.579  -0.004  0.00  0.00    +0.143 HD
ATOM     17  H   UNL     1      -2.220   1.385   0.031  0.00  0.00    +0.157 HD
ENDBRANCH  10  11
ENDBRANCH   1  10
TORSDOF 3
