REMARK  Name = ZINC67335006
REMARK  6 active torsions:
REMARK  status: ('A' for Active; 'I' for Inactive)
REMARK    1  A    between atoms: C_1  and  C_2
REMARK    2  A    between atoms: C_2  and  N_3
REMARK    3  A    between atoms: C_4  and  C_6
REMARK    4  A    between atoms: C_7  and  N_21
REMARK    5  A    between atoms: C_8  and  C_11
REMARK    6  A    between atoms: C_17  and  C_20
REMARK                            x       y       z     vdW  Elec       q    Type
REMARK                         _______ _______ _______ _____ _____    ______ ____
ROOT
ATOM      1  C   UNL     1      -3.004  -2.336  -0.106  0.00  0.00    +0.156 A 
ATOM      2  C   UNL     1      -3.232  -3.704   0.021  0.00  0.00    +0.076 A 
ATOM      3  C   UNL     1      -4.568  -4.064  -0.162  0.00  0.00    +0.115 A 
ATOM      4  S   UNL     1      -5.318  -2.479  -0.481  0.00  0.00    +0.019 S 
ATOM      5  N   UNL     1      -4.012  -1.531  -0.369  0.00  0.00    -0.203 NA
ENDROOT
BRANCH   3   6
ATOM      6  C   UNL     1      -5.188  -5.389  -0.107  0.00  0.00    +0.257 C 
ATOM      7  O   UNL     1      -4.492  -6.384  -0.023  0.00  0.00    -0.269 OA
ATOM      8  N   UNL     1      -6.530  -5.508  -0.151  0.00  0.00    -0.297 N 
ATOM      9  C   UNL     1      -7.391  -4.323  -0.031  0.00  0.00    +0.108 C 
ATOM     10  C   UNL     1      -8.402  -4.560   1.094  0.00  0.00    +0.019 C 
ATOM     11  C   UNL     1      -9.160  -5.863   0.828  0.00  0.00    +0.006 C 
ATOM     12  C   UNL     1      -8.174  -7.034   0.810  0.00  0.00    +0.003 C 
ATOM     13  C   UNL     1      -7.160  -6.824  -0.325  0.00  0.00    +0.111 C 
ATOM     14  C   UNL     1      -8.937  -8.339   0.576  0.00  0.00    +0.009 C 
ENDBRANCH   3   6
BRANCH   1  16
ATOM     15  N   UNL     1      -1.408  -0.484  -0.171  0.00  0.00    -0.310 N 
ATOM     16  C   UNL     1      -1.643  -1.791   0.059  0.00  0.00    +0.265 C 
ATOM     17  O   UNL     1      -0.734  -2.522   0.403  0.00  0.00    -0.268 OA
ATOM     18  H   UNL     1      -2.134   0.098  -0.444  0.00  0.00    +0.149 HD
BRANCH  15  20
ATOM     19  C   UNL     1      -0.063   1.552  -0.327  0.00  0.00    +0.024 C 
ATOM     20  C   UNL     1      -0.056   0.056  -0.006  0.00  0.00    +0.101 C 
ENDBRANCH  15  20
ENDBRANCH   1  16
BRANCH   2  21
ATOM     21  N   UNL     1      -2.228  -4.621   0.302  0.00  0.00    -0.355 N 
ATOM     22  H   UNL     1      -1.331  -4.312   0.502  0.00  0.00    +0.142 HD
ATOM     23  H   UNL     1      -2.424  -5.571   0.298  0.00  0.00    +0.142 HD
ENDBRANCH   2  21
TORSDOF 4
