REMARK  Name = ZINC62975414
REMARK  6 active torsions:
REMARK  status: ('A' for Active; 'I' for Inactive)
REMARK    1  A    between atoms: C_1  and  C_2
REMARK    2  A    between atoms: C_2  and  C_3
REMARK    3  A    between atoms: C_3  and  C_4
REMARK    4  A    between atoms: C_5  and  N_23
REMARK    5  A    between atoms: C_6  and  C_10
REMARK    6  A    between atoms: C_15  and  N_18
REMARK                            x       y       z     vdW  Elec       q    Type
REMARK                         _______ _______ _______ _____ _____    ______ ____
ROOT
ATOM      1  C   UNL     1      -0.465  -5.394  -1.860  0.00  0.00    +0.268 C 
ATOM      2  O   UNL     1      -1.569  -5.353  -2.367  0.00  0.00    -0.268 OA
ATOM      3  N   UNL     1       0.117  -6.583  -1.607  0.00  0.00    -0.298 N 
ATOM      4  C   UNL     1       1.440  -6.776  -0.994  0.00  0.00    +0.106 C 
ATOM      5  C   UNL     1       1.695  -8.297  -0.927  0.00  0.00    +0.005 C 
ATOM      6  C   UNL     1       0.748  -8.857  -2.021  0.00  0.00    -0.049 C 
ATOM      7  C   UNL     1      -0.470  -7.905  -1.892  0.00  0.00    +0.093 C 
ENDROOT
BRANCH   1  10
ATOM      8  C   UNL     1       0.739  -2.004  -1.265  0.00  0.00    +0.057 A 
ATOM      9  C   UNL     1      -0.243  -2.823  -1.727  0.00  0.00    +0.078 A 
ATOM     10  C   UNL     1       0.238  -4.142  -1.522  0.00  0.00    +0.168 A 
ATOM     11  N   UNL     1       1.432  -4.037  -0.971  0.00  0.00    -0.167 NA
ATOM     12  N   UNL     1       1.744  -2.801  -0.818  0.00  0.00    -0.279 N 
ATOM     13  H   UNL     1       2.577  -2.482  -0.435  0.00  0.00    +0.189 HD
BRANCH   9  14
ATOM     14  N   UNL     1      -1.472  -2.445  -2.288  0.00  0.00    -0.355 N 
ATOM     15  H   UNL     1      -1.694  -1.505  -2.379  0.00  0.00    +0.142 HD
ATOM     16  H   UNL     1      -2.099  -3.122  -2.585  0.00  0.00    +0.142 HD
ENDBRANCH   9  14
BRANCH   8  17
ATOM     17  C   UNL     1       0.718  -0.497  -1.257  0.00  0.00    +0.056 C 
BRANCH  17  19
ATOM     18  C   UNL     1      -0.019   1.526   0.010  0.00  0.00    +0.004 C 
ATOM     19  C   UNL     1       0.002  -0.004   0.002  0.00  0.00    +0.003 C 
ENDBRANCH  17  19
ENDBRANCH   8  17
ENDBRANCH   1  10
BRANCH   6  20
ATOM     20  N   UNL     1       0.364 -10.244  -1.724  0.00  0.00    +0.383 N 
ATOM     21  C   UNL     1      -0.471 -10.790  -2.825  0.00  0.00    -0.078 C 
ATOM     22  C   UNL     1      -0.311 -12.323  -2.663  0.00  0.00    -0.020 C 
ATOM     23  C   UNL     1       1.169 -12.474  -2.245  0.00  0.00    -0.020 C 
ATOM     24  C   UNL     1       1.565 -11.104  -1.664  0.00  0.00    -0.078 C 
ATOM     25  H   UNL     1      -0.139 -10.287  -0.851  0.00  0.00    -0.081 HD
ENDBRANCH   6  20
TORSDOF 5
