REMARK  Name = ZINC13146647
REMARK  7 active torsions:
REMARK  status: ('A' for Active; 'I' for Inactive)
REMARK    1  A    between atoms: C_1  and  C_2
REMARK    2  A    between atoms: C_2  and  O_3
REMARK    3  A    between atoms: O_3  and  C_4
REMARK    4  A    between atoms: C_4  and  C_6
REMARK    5  A    between atoms: N_7  and  C_8
REMARK    6  A    between atoms: N_16  and  N_17
REMARK    7  A    between atoms: N_17  and  C_18
REMARK                            x       y       z     vdW  Elec       q    Type
REMARK                         _______ _______ _______ _____ _____    ______ ____
ROOT
ATOM      1  C   UNL     1       1.643  -2.338  -2.451  0.00  0.00    +0.196 C 
ATOM      2  N   UNL     1       1.580  -3.723  -2.649  0.00  0.00    -0.319 N 
ATOM      3  N   UNL     1       1.862  -1.543  -3.463  0.00  0.00    -0.288 N 
ATOM      4  H   UNL     1       1.417  -4.314  -1.897  0.00  0.00    +0.148 HD
ATOM      5  H   UNL     1       2.099  -1.913  -4.328  0.00  0.00    +0.186 HD
ENDROOT
BRANCH   2   6
ATOM      6  C   UNL     1       1.759  -4.279  -3.993  0.00  0.00    +0.094 C 
ATOM      7  C   UNL     1       3.259  -4.466  -4.272  0.00  0.00    +0.046 C 
ATOM      8  C   UNL     1       3.409  -5.336  -5.553  0.00  0.00    +0.168 C 
ATOM      9  S   UNL     1       2.076  -6.578  -5.274  0.00  0.00    -0.029 S 
ATOM     10  O   UNL     1       2.629  -7.708  -4.613  0.00  0.00    -0.174 OA
ATOM     11  O   UNL     1       1.353  -6.760  -6.484  0.00  0.00    -0.174 OA
ATOM     12  C   UNL     1       1.032  -5.642  -4.085  0.00  0.00    +0.188 C 
ENDBRANCH   2   6
BRANCH   1  13
ATOM     13  C   UNL     1       1.464  -1.781  -1.105  0.00  0.00    +0.372 C 
ATOM     14  O   UNL     1       1.636  -0.593  -0.911  0.00  0.00    -0.242 OA
BRANCH  13  15
ATOM     15  O   UNL     1       1.108  -2.587  -0.083  0.00  0.00    -0.460 OA
BRANCH  15  17
ATOM     16  C   UNL     1       0.549  -3.040   2.224  0.00  0.00    +0.048 C 
ATOM     17  C   UNL     1       0.951  -1.977   1.199  0.00  0.00    +0.229 C 
ENDBRANCH  15  17
ENDBRANCH  13  15
ENDBRANCH   1  13
BRANCH   3  18
ATOM     18  N   UNL     1       1.755  -0.155  -3.300  0.00  0.00    -0.259 N 
ATOM     19  H   UNL     1       1.443   0.211  -2.458  0.00  0.00    +0.172 HD
BRANCH  18  20
ATOM     20  C   UNL     1       2.098   0.699  -4.348  0.00  0.00    +0.046 A 
ATOM     21  C   UNL     1       2.539   0.175  -5.558  0.00  0.00    +0.026 A 
ATOM     22  C   UNL     1       2.877   1.024  -6.593  0.00  0.00    +0.017 A 
ATOM     23  C   UNL     1       2.777   2.394  -6.428  0.00  0.00    +0.018 A 
ATOM     24  C   UNL     1       2.337   2.918  -5.226  0.00  0.00    +0.017 A 
ATOM     25  C   UNL     1       1.992   2.076  -4.188  0.00  0.00    +0.026 A 
ATOM     26 BR   UNL     1       3.241   3.552  -7.849  0.00  0.00    -0.050 Br
ENDBRANCH  18  20
ENDBRANCH   3  18
TORSDOF 6
