REMARK  Name = ZINC12372414
REMARK  7 active torsions:
REMARK  status: ('A' for Active; 'I' for Inactive)
REMARK    1  A    between atoms: C_1  and  C_2
REMARK    2  A    between atoms: C_3  and  C_22
REMARK    3  A    between atoms: C_5  and  C_7
REMARK    4  A    between atoms: C_9  and  C_20
REMARK    5  A    between atoms: C_10  and  N_19
REMARK    6  A    between atoms: C_22  and  S_23
REMARK    7  A    between atoms: S_23  and  C_24
REMARK                            x       y       z     vdW  Elec       q    Type
REMARK                         _______ _______ _______ _____ _____    ______ ____
ROOT
ATOM      1  C   UNL     1       0.641   3.765  -1.345  0.00  0.00    +0.052 C 
ATOM      2  C   UNL     1      -0.413   2.776  -1.771  0.00  0.00    -0.009 A 
ATOM      3  C   UNL     1      -0.742   1.585  -1.213  0.00  0.00    -0.027 A 
ATOM      4  C   UNL     1      -1.751   0.833  -1.783  0.00  0.00    +0.017 A 
ATOM      5  C   UNL     1      -2.391   1.314  -2.878  0.00  0.00    +0.003 A 
ATOM      6  S   UNL     1      -1.553   2.868  -3.142  0.00  0.00    -0.097 S 
ENDROOT
BRANCH   5   7
ATOM      7  C   UNL     1      -3.512   0.693  -3.670  0.00  0.00    +0.108 C 
ATOM      8  C   UNL     1      -4.704   1.610  -3.650  0.00  0.00    +0.099 C 
ATOM      9  C   UNL     1      -4.986   2.390  -4.721  0.00  0.00    +0.198 C 
ATOM     10  O   UNL     1      -4.217   2.374  -5.821  0.00  0.00    -0.445 OA
ATOM     11  C   UNL     1      -3.428   1.312  -6.072  0.00  0.00    +0.115 C 
ATOM     12  C   UNL     1      -3.057   0.468  -5.092  0.00  0.00    +0.046 C 
ATOM     13  C   UNL     1      -2.238  -0.647  -5.357  0.00  0.00    +0.163 C 
ATOM     14  O   UNL     1      -1.911  -1.377  -4.443  0.00  0.00    -0.292 OA
ATOM     15  C   UNL     1      -1.762  -0.950  -6.752  0.00  0.00    +0.080 C 
ATOM     16  C   UNL     1      -2.783  -0.401  -7.754  0.00  0.00    +0.016 C 
ATOM     17  C   UNL     1      -2.962   1.096  -7.493  0.00  0.00    +0.075 C 
BRANCH   9  18
ATOM     18  N   UNL     1      -6.083   3.215  -4.681  0.00  0.00    -0.328 N 
ATOM     19  H   UNL     1      -6.646   3.236  -3.891  0.00  0.00    +0.145 HD
ATOM     20  H   UNL     1      -6.294   3.778  -5.442  0.00  0.00    +0.145 HD
ENDBRANCH   9  18
BRANCH   8  21
ATOM     21  C   UNL     1      -5.544   1.659  -2.492  0.00  0.00    +0.101 C 
ATOM     22  N   UNL     1      -6.211   1.699  -1.573  0.00  0.00    -0.191 NA
ENDBRANCH   8  21
ENDBRANCH   5   7
BRANCH   3  23
ATOM     23  C   UNL     1      -0.013   1.086   0.008  0.00  0.00    +0.112 C 
BRANCH  23  24
ATOM     24  S   UNL     1      -0.862   1.671   1.500  0.00  0.00    -0.092 S 
BRANCH  24  25
ATOM     25  C   UNL     1       0.099   1.013   2.823  0.00  0.00    +0.160 A 
ATOM     26  N   UNL     1       1.182   0.261   2.776  0.00  0.00    -0.133 NA
ATOM     27  N   UNL     1       1.785  -0.144   3.945  0.00  0.00    -0.125 NA
ATOM     28  C   UNL     1       1.270   0.211   5.106  0.00  0.00    +0.180 A 
ATOM     29  S   UNL     1      -0.139   1.178   4.586  0.00  0.00    -0.025 S 
ATOM     30  N   UNL     1       1.707  -0.088   6.391  0.00  0.00    -0.336 N 
ATOM     31  H   UNL     1       1.220   0.247   7.159  0.00  0.00    +0.144 HD
ATOM     32  H   UNL     1       2.500  -0.633   6.519  0.00  0.00    +0.144 HD
ENDBRANCH  24  25
ENDBRANCH  23  24
ENDBRANCH   3  23
TORSDOF 6
