REMARK  Name = ZINC37184643
REMARK  7 active torsions:
REMARK  status: ('A' for Active; 'I' for Inactive)
REMARK    1  A    between atoms: C_1  and  C_2
REMARK    2  A    between atoms: C_7  and  N_8
REMARK    3  A    between atoms: N_8  and  C_9
REMARK    4  A    between atoms: C_9  and  C_11
REMARK    5  A    between atoms: C_9  and  C_12
REMARK    6  A    between atoms: C_15  and  S_18
REMARK    7  A    between atoms: S_18  and  N_21
REMARK                            x       y       z     vdW  Elec       q    Type
REMARK                         _______ _______ _______ _____ _____    ______ ____
ROOT
ATOM      1  C   UNL     1       0.048  -0.757   3.679  0.00  0.00    +0.098 C 
ATOM      2  C   UNL     1       1.493  -1.104   4.041  0.00  0.00    +0.033 C 
ENDROOT
BRANCH   1   3
ATOM      3  C   UNL     1      -0.554   0.091   4.769  0.00  0.00    -0.027 A 
ATOM      4  C   UNL     1      -0.283   1.446   4.820  0.00  0.00    +0.007 A 
ATOM      5  C   UNL     1      -0.834   2.224   5.821  0.00  0.00    +0.029 A 
ATOM      6  C   UNL     1      -1.657   1.648   6.770  0.00  0.00    +0.105 A 
ATOM      7  C   UNL     1      -1.929   0.294   6.719  0.00  0.00    +0.029 A 
ATOM      8  C   UNL     1      -1.381  -0.484   5.716  0.00  0.00    +0.007 A 
BRANCH   6   9
ATOM      9  S   UNL     1      -2.359   2.640   8.046  0.00  0.00    +0.056 S 
ATOM     10  O   UNL     1      -2.652   1.764   9.126  0.00  0.00    -0.153 OA
ATOM     11  O   UNL     1      -1.513   3.773   8.192  0.00  0.00    -0.153 OA
BRANCH   9  12
ATOM     12  N   UNL     1      -3.812   3.203   7.485  0.00  0.00    -0.204 NA
ATOM     13  H   UNL     1      -4.115   2.961   6.596  0.00  0.00    +0.144 HD
ATOM     14  H   UNL     1      -4.360   3.774   8.046  0.00  0.00    +0.144 HD
ENDBRANCH   9  12
ENDBRANCH   6   9
ENDBRANCH   1   3
BRANCH   1  15
ATOM     15  N   UNL     1       0.026  -0.016   2.415  0.00  0.00    -0.337 N 
ATOM     16  H   UNL     1       0.013   0.954   2.422  0.00  0.00    +0.147 HD
BRANCH  15  23
ATOM     17  C   UNL     1      -0.018   1.503   0.010  0.00  0.00    +0.045 C 
ATOM     18  C   UNL     1       0.002  -0.004   0.002  0.00  0.00    -0.030 A 
ATOM     19  C   UNL     1       0.006  -0.689  -1.198  0.00  0.00    +0.006 A 
ATOM     20  C   UNL     1       0.024  -2.071  -1.207  0.00  0.00    +0.020 A 
ATOM     21  C   UNL     1       0.040  -2.774  -0.014  0.00  0.00    +0.043 A 
ATOM     22  C   UNL     1       0.035  -2.095   1.189  0.00  0.00    +0.043 A 
ATOM     23  C   UNL     1       0.023  -0.706   1.201  0.00  0.00    +0.032 A 
ATOM     24 CL   UNL     1       0.063  -4.509  -0.031  0.00  0.00    -0.083 Cl
ENDBRANCH  15  23
ENDBRANCH   1  15
TORSDOF 5
