REMARK  Name = ZINC62203359
REMARK  6 active torsions:
REMARK  status: ('A' for Active; 'I' for Inactive)
REMARK    1  A    between atoms: C_1  and  C_2
REMARK    2  A    between atoms: C_5  and  C_9
REMARK    3  A    between atoms: C_6  and  C_8
REMARK    4  A    between atoms: C_11  and  C_23
REMARK    5  A    between atoms: C_16  and  N_22
REMARK    6  A    between atoms: C_17  and  C_20
REMARK                            x       y       z     vdW  Elec       q    Type
REMARK                         _______ _______ _______ _____ _____    ______ ____
ROOT
ATOM      1  C   UNL     1       0.511  -4.207   0.183  0.00  0.00    +0.077 A 
ATOM      2  C   UNL     1       0.649  -4.982  -0.972  0.00  0.00    +0.051 A 
ATOM      3  C   UNL     1       0.885  -6.338  -0.831  0.00  0.00    +0.044 A 
ATOM      4  N   UNL     1       0.972  -6.857   0.384  0.00  0.00    -0.216 NA
ATOM      5  C   UNL     1       0.836  -6.098   1.460  0.00  0.00    +0.254 A 
ATOM      6  N   UNL     1       0.616  -4.797   1.371  0.00  0.00    -0.211 NA
ATOM      7  N   UNL     1       0.935  -6.685   2.721  0.00  0.00    -0.183 N 
ATOM      8  C   UNL     1       1.169  -8.000   2.970  0.00  0.00    +0.140 A 
ATOM      9  C   UNL     1       1.190  -8.154   4.354  0.00  0.00    +0.111 A 
ATOM     10  C   UNL     1       0.960  -6.877   4.917  0.00  0.00    +0.155 A 
ATOM     11  N   UNL     1       0.816  -6.019   3.946  0.00  0.00    -0.169 NA
ATOM     12  C   UNL     1       1.040  -7.215  -2.046  0.00  0.00    +0.066 C 
ENDROOT
BRANCH   1  17
ATOM     13  C   UNL     1      -0.472   1.454  -0.196  0.00  0.00    +0.044 C 
ATOM     14  C   UNL     1      -0.214  -0.027  -0.097  0.00  0.00    -0.050 A 
ATOM     15  C   UNL     1       0.784  -0.606  -0.859  0.00  0.00    +0.004 A 
ATOM     16  C   UNL     1       1.024  -1.962  -0.773  0.00  0.00    +0.010 A 
ATOM     17  C   UNL     1       0.258  -2.749   0.086  0.00  0.00    +0.003 A 
ATOM     18  C   UNL     1      -0.747  -2.161   0.852  0.00  0.00    -0.041 A 
ATOM     19  C   UNL     1      -0.974  -0.802   0.761  0.00  0.00    +0.007 A 
ATOM     20  C   UNL     1      -1.579  -3.005   1.781  0.00  0.00    +0.044 C 
ENDBRANCH   1  17
BRANCH   8  21
ATOM     21  N   UNL     1       1.350  -8.995   2.031  0.00  0.00    -0.342 N 
ATOM     22  H   UNL     1       1.316  -8.781   1.085  0.00  0.00    +0.144 HD
ATOM     23  H   UNL     1       1.512  -9.908   2.316  0.00  0.00    +0.144 HD
ENDBRANCH   8  21
BRANCH   9  24
ATOM     24  C   UNL     1       1.404  -9.374   5.071  0.00  0.00    +0.104 C 
ATOM     25  N   UNL     1       1.574 -10.342   5.641  0.00  0.00    -0.191 NA
ENDBRANCH   9  24
TORSDOF 3
