REMARK  Name = ZINC01760941
REMARK  4 active torsions:
REMARK  status: ('A' for Active; 'I' for Inactive)
REMARK    1  A    between atoms: C_4  and  S_7
REMARK    2  A    between atoms: S_7  and  C_8
REMARK    3  A    between atoms: C_8  and  S_9
REMARK    4  A    between atoms: S_9  and  N_12
REMARK                            x       y       z     vdW  Elec       q    Type
REMARK                         _______ _______ _______ _____ _____    ______ ____
ROOT
ATOM      1  S   UNL     1      -0.074   5.604   0.031  0.00  0.00    -0.101 S 
ENDROOT
BRANCH   1   5
ATOM      2  C   UNL     1      -0.013   1.076   0.008  0.00  0.00    +0.000 A 
ATOM      3  C   UNL     1      -1.220   1.749   0.017  0.00  0.00    +0.001 A 
ATOM      4  C   UNL     1      -1.243   3.130   0.030  0.00  0.00    +0.015 A 
ATOM      5  C   UNL     1      -0.050   3.843   0.022  0.00  0.00    +0.009 A 
ATOM      6  C   UNL     1       1.162   3.163   0.007  0.00  0.00    +0.015 A 
ATOM      7  C   UNL     1       1.177   1.782   0.000  0.00  0.00    +0.001 A 
ENDBRANCH   1   5
BRANCH   1   8
ATOM      8  C   UNL     1      -1.840   6.019   0.050  0.00  0.00    +0.258 C 
BRANCH   8   9
ATOM      9  S   UNL     1      -2.514   5.719   1.707  0.00  0.00    +0.037 S 
ATOM     10  O   UNL     1      -2.516   4.326   1.989  0.00  0.00    -0.158 OA
ATOM     11  O   UNL     1      -1.965   6.645   2.634  0.00  0.00    -0.158 OA
BRANCH   9  12
ATOM     12  N   UNL     1      -4.114   6.130   1.596  0.00  0.00    -0.207 NA
ATOM     13  H   UNL     1      -4.476   6.450   0.755  0.00  0.00    +0.144 HD
ATOM     14  H   UNL     1      -4.690   6.051   2.373  0.00  0.00    +0.144 HD
ENDBRANCH   9  12
ENDBRANCH   8   9
ENDBRANCH   1   8
TORSDOF 4
