REMARK  Name = ZINC39159609
REMARK  3 active torsions:
REMARK  status: ('A' for Active; 'I' for Inactive)
REMARK    1  A    between atoms: C_12  and  S_14
REMARK    2  A    between atoms: S_14  and  C_15
REMARK    3  A    between atoms: C_15  and  C_16
REMARK                            x       y       z     vdW  Elec       q    Type
REMARK                         _______ _______ _______ _____ _____    ______ ____
ROOT
ATOM      1  C   UNL     1      -0.017   1.399   0.010  0.00  0.00    +0.028 A 
ATOM      2  C   UNL     1       1.146   2.130   0.003  0.00  0.00    +0.032 A 
ATOM      3  C   UNL     1       2.376   1.469  -0.013  0.00  0.00    +0.092 A 
ATOM      4  C   UNL     1       2.402   0.070  -0.020  0.00  0.00    +0.091 A 
ATOM      5  C   UNL     1       1.212  -0.671  -0.013  0.00  0.00    +0.085 A 
ATOM      6  C   UNL     1       0.002  -0.004   0.002  0.00  0.00    +0.062 A 
ATOM      7  N   UNL     1      -1.138  -0.843   0.008  0.00  0.00    -0.271 N 
ATOM      8  H   UNL     1      -2.070  -0.575   0.018  0.00  0.00    +0.161 HD
ATOM      9  S   UNL     1      -0.527  -2.395  -0.007  0.00  0.00    +0.046 S 
ATOM     10  N   UNL     1       1.111  -2.082  -0.020  0.00  0.00    -0.270 N 
ATOM     11  N   UNL     1       3.741  -0.294  -0.035  0.00  0.00    -0.331 N 
ATOM     12  C   UNL     1       4.472   0.861  -0.036  0.00  0.00    +0.168 A 
ATOM     13  N   UNL     1       3.668   1.896  -0.023  0.00  0.00    -0.222 NA
ATOM     14  H   UNL     1       4.092  -1.198  -0.043  0.00  0.00    +0.168 HD
ATOM     15  H   UNL     1       1.836  -2.726  -0.031  0.00  0.00    +0.162 HD
ENDROOT
BRANCH  12  16
ATOM     16  S   UNL     1       6.232   0.947  -0.051  0.00  0.00    -0.080 S 
BRANCH  16  17
ATOM     17  C   UNL     1       6.585   2.726  -0.046  0.00  0.00    +0.151 C 
BRANCH  17  18
ATOM     18  C   UNL     1       8.077   2.942  -0.058  0.00  0.00    +0.119 A 
ATOM     19  N   UNL     1       8.809   3.055  -1.130  0.00  0.00    -0.229 NA
ATOM     20  H   UNL     1       8.564   3.009   1.970  0.00  0.00    +0.167 HD
ATOM     21  C   UNL     1      10.095   3.239  -0.780  0.00  0.00    +0.117 A 
ATOM     22  C   UNL     1      10.156   3.238   0.610  0.00  0.00    +0.068 A 
ATOM     23  N   UNL     1       8.860   3.054   1.047  0.00  0.00    -0.341 N 
ATOM     24  C   UNL     1      11.383   3.411   1.263  0.00  0.00    +0.030 A 
ATOM     25  C   UNL     1      12.528   3.581   0.572  0.00  0.00    +0.033 A 
ATOM     26  C   UNL     1      12.548   3.594  -0.853  0.00  0.00    +0.102 A 
ATOM     27  C   UNL     1      11.335   3.423  -1.559  0.00  0.00    +0.127 A 
ATOM     28  N   UNL     1      11.470   3.452  -2.884  0.00  0.00    -0.189 NA
ATOM     29  S   UNL     1      13.042   3.681  -3.147  0.00  0.00    +0.117 S 
ATOM     30  N   UNL     1      13.613   3.753  -1.644  0.00  0.00    -0.191 NA
ENDBRANCH  17  18
ENDBRANCH  16  17
ENDBRANCH  12  16
TORSDOF 3
