REMARK  Name = ZINC10612932
REMARK  8 active torsions:
REMARK  status: ('A' for Active; 'I' for Inactive)
REMARK    1  A    between atoms: C_1  and  C_2
REMARK    2  A    between atoms: C_5  and  N_8
REMARK    3  A    between atoms: C_17  and  S_19
REMARK    4  A    between atoms: S_19  and  C_20
REMARK    5  A    between atoms: C_20  and  C_21
REMARK    6  A    between atoms: N_23  and  C_24
REMARK    7  A    between atoms: C_27  and  N_30
REMARK    8  A    between atoms: C_31  and  C_33
REMARK                            x       y       z     vdW  Elec       q    Type
REMARK                         _______ _______ _______ _____ _____    ______ ____
ROOT
ATOM      1  N   UNL     1     -10.627   6.966   1.193  0.00  0.00    -0.214 N 
ATOM      2  C   UNL     1      -9.445   7.644   1.150  0.00  0.00    +0.171 A 
ATOM      3  C   UNL     1      -9.764   9.011   1.215  0.00  0.00    +0.103 A 
ATOM      4  C   UNL     1     -11.168   9.107   1.297  0.00  0.00    +0.150 A 
ATOM      5  N   UNL     1     -11.665   7.902   1.284  0.00  0.00    -0.172 NA
ATOM      6  C   UNL     1      -8.709   9.957   1.188  0.00  0.00    +0.263 A 
ATOM      7  O   UNL     1      -8.940  11.152   1.242  0.00  0.00    -0.267 OA
ATOM      8  N   UNL     1      -7.440   9.499   1.105  0.00  0.00    -0.301 N 
ATOM      9  H   UNL     1      -6.700  10.127   1.089  0.00  0.00    +0.171 HD
ATOM     10  C   UNL     1      -7.194   8.158   1.040  0.00  0.00    +0.172 A 
ATOM     11  N   UNL     1      -8.163   7.269   1.064  0.00  0.00    -0.204 NA
ENDROOT
BRANCH   1  16
ATOM     12  C   UNL     1     -11.235   1.327   1.033  0.00  0.00    +0.044 C 
ATOM     13  C   UNL     1     -11.073   2.825   1.076  0.00  0.00    -0.050 A 
ATOM     14  C   UNL     1     -11.935   3.590   1.839  0.00  0.00    +0.005 A 
ATOM     15  C   UNL     1     -11.790   4.963   1.881  0.00  0.00    +0.028 A 
ATOM     16  C   UNL     1     -10.777   5.574   1.154  0.00  0.00    +0.068 A 
ATOM     17  C   UNL     1      -9.917   4.804   0.383  0.00  0.00    +0.028 A 
ATOM     18  C   UNL     1     -10.064   3.431   0.351  0.00  0.00    +0.005 A 
ENDBRANCH   1  16
BRANCH  10  19
ATOM     19  S   UNL     1      -5.527   7.600   0.926  0.00  0.00    -0.078 S 
BRANCH  19  20
ATOM     20  C   UNL     1      -5.796   5.811   0.880  0.00  0.00    +0.173 C 
BRANCH  20  21
ATOM     21  C   UNL     1      -4.468   5.105   0.780  0.00  0.00    +0.227 C 
ATOM     22  O   UNL     1      -3.441   5.749   0.744  0.00  0.00    -0.275 OA
ATOM     23  N   UNL     1      -4.422   3.759   0.732  0.00  0.00    -0.285 N 
ATOM     24  H   UNL     1      -5.237   3.243   0.828  0.00  0.00    +0.155 HD
BRANCH  23  25
ATOM     25  C   UNL     1      -3.197   3.107   0.542  0.00  0.00    +0.034 A 
ATOM     26  C   UNL     1      -3.143   1.935  -0.201  0.00  0.00    +0.025 A 
ATOM     27  C   UNL     1      -1.936   1.292  -0.388  0.00  0.00    +0.025 A 
ATOM     28  C   UNL     1      -0.776   1.817   0.166  0.00  0.00    +0.033 A 
ATOM     29  C   UNL     1      -0.831   2.986   0.914  0.00  0.00    +0.025 A 
ATOM     30  C   UNL     1      -2.038   3.632   1.096  0.00  0.00    +0.025 A 
BRANCH  28  31
ATOM     31  N   UNL     1       0.449   1.165  -0.025  0.00  0.00    -0.286 N 
ATOM     32  C   UNL     1       0.703   0.536  -1.189  0.00  0.00    +0.214 C 
ATOM     33  O   UNL     1      -0.157   0.466  -2.042  0.00  0.00    -0.276 OA
ATOM     34  C   UNL     1       2.057  -0.082  -1.432  0.00  0.00    +0.109 C 
ATOM     35  H   UNL     1       1.113   1.163   0.683  0.00  0.00    +0.155 HD
ENDBRANCH  28  31
ENDBRANCH  23  25
ENDBRANCH  20  21
ENDBRANCH  19  20
ENDBRANCH  10  19
TORSDOF 6
