REMARK  Name = ZINC18750444
REMARK  7 active torsions:
REMARK  status: ('A' for Active; 'I' for Inactive)
REMARK    1  A    between atoms: C_1  and  C_2
REMARK    2  A    between atoms: C_2  and  C_4
REMARK    3  A    between atoms: C_2  and  O_21
REMARK    4  A    between atoms: C_15  and  C_17
REMARK    5  A    between atoms: O_21  and  C_22
REMARK    6  A    between atoms: C_22  and  C_24
REMARK    7  A    between atoms: C_29  and  N_30
REMARK                            x       y       z     vdW  Elec       q    Type
REMARK                         _______ _______ _______ _____ _____    ______ ____
ROOT
ATOM      1  C   UNL     1      -3.991  -2.196  -0.494  0.00  0.00    +0.261 C 
ATOM      2  O   UNL     1      -2.922  -2.712  -0.743  0.00  0.00    -0.271 OA
ATOM      3  N   UNL     1      -5.136  -2.846  -0.782  0.00  0.00    -0.258 N 
ATOM      4  C   UNL     1      -6.444  -2.198  -0.599  0.00  0.00    +0.209 C 
ATOM      5  C   UNL     1      -7.404  -3.183   0.009  0.00  0.00    +0.235 C 
ATOM      6  O   UNL     1      -8.309  -2.781   0.709  0.00  0.00    -0.274 OA
ATOM      7  N   UNL     1      -7.268  -4.504  -0.210  0.00  0.00    -0.283 N 
ATOM      8  C   UNL     1      -6.204  -4.997  -0.972  0.00  0.00    +0.056 A 
ATOM      9  C   UNL     1      -5.119  -4.166  -1.259  0.00  0.00    +0.058 A 
ATOM     10  C   UNL     1      -4.054  -4.644  -2.001  0.00  0.00    +0.026 A 
ATOM     11  C   UNL     1      -4.068  -5.949  -2.461  0.00  0.00    +0.014 A 
ATOM     12  C   UNL     1      -5.143  -6.772  -2.181  0.00  0.00    +0.057 A 
ATOM     13  C   UNL     1      -6.211  -6.301  -1.439  0.00  0.00    +0.037 A 
ATOM     14  H   UNL     1      -7.916  -5.121   0.165  0.00  0.00    +0.155 HD
ENDROOT
BRANCH  12  15
ATOM     15  C   UNL     1      -5.151  -8.191  -2.689  0.00  0.00    +0.417 C 
ATOM     16  F   UNL     1      -3.976  -8.436  -3.408  0.00  0.00    -0.166 F 
ATOM     17  F   UNL     1      -5.228  -9.074  -1.606  0.00  0.00    -0.166 F 
ATOM     18  F   UNL     1      -6.257  -8.381  -3.525  0.00  0.00    -0.166 F 
ENDBRANCH  12  15
BRANCH   1  20
ATOM     19  C   UNL     1      -4.518  -0.949   1.584  0.00  0.00    +0.062 C 
ATOM     20  C   UNL     1      -4.040  -0.828   0.135  0.00  0.00    +0.259 C 
BRANCH  20  21
ATOM     21  O   UNL     1      -2.714  -0.236   0.112  0.00  0.00    -0.449 OA
BRANCH  21  22
ATOM     22  C   UNL     1      -2.644   1.107   0.032  0.00  0.00    +0.342 C 
ATOM     23  O   UNL     1      -3.664   1.767  -0.016  0.00  0.00    -0.245 OA
BRANCH  22  24
ATOM     24  C   UNL     1      -1.333   1.776   0.004  0.00  0.00    +0.080 A 
ATOM     25  C   UNL     1      -0.159   1.018  -0.054  0.00  0.00    +0.019 A 
ATOM     26  C   UNL     1       1.064   1.649  -0.085  0.00  0.00    +0.039 A 
ATOM     27  C   UNL     1       1.140   3.035  -0.056  0.00  0.00    +0.125 A 
ATOM     28  C   UNL     1      -0.012   3.797   0.006  0.00  0.00    +0.061 A 
ATOM     29  C   UNL     1      -1.254   3.178   0.039  0.00  0.00    +0.041 A 
ATOM     30  F   UNL     1       2.346   3.643  -0.087  0.00  0.00    -0.205 F 
BRANCH  29  31
ATOM     31  N   UNL     1      -2.413   3.940   0.101  0.00  0.00    -0.357 N 
ATOM     32  H   UNL     1      -2.355   4.904   0.197  0.00  0.00    +0.142 HD
ATOM     33  H   UNL     1      -3.280   3.510   0.048  0.00  0.00    +0.142 HD
ENDBRANCH  29  31
ENDBRANCH  22  24
ENDBRANCH  21  22
ENDBRANCH  20  21
ENDBRANCH   1  20
TORSDOF 6
