REMARK  Name = ZINC37064249
REMARK  4 active torsions:
REMARK  status: ('A' for Active; 'I' for Inactive)
REMARK    1  A    between atoms: C_3  and  N_9
REMARK    2  A    between atoms: N_9  and  S_10
REMARK    3  A    between atoms: S_10  and  C_13
REMARK    4  A    between atoms: C_18  and  N_19
REMARK                            x       y       z     vdW  Elec       q    Type
REMARK                         _______ _______ _______ _____ _____    ______ ____
ROOT
ATOM      1  S   UNL     1       3.692   3.673   0.714  0.00  0.00    +0.074 S 
ATOM      2  O   UNL     1       4.950   4.299   0.497  0.00  0.00    -0.150 OA
ATOM      3  O   UNL     1       2.466   4.269   0.313  0.00  0.00    -0.150 OA
ENDROOT
BRANCH   1   4
ATOM      4  C   UNL     1       3.567   3.381   2.447  0.00  0.00    +0.129 A 
ATOM      5  C   UNL     1       2.434   3.772   3.134  0.00  0.00    +0.032 A 
ATOM      6  C   UNL     1       2.334   3.542   4.493  0.00  0.00    +0.017 A 
ATOM      7  C   UNL     1       3.368   2.920   5.171  0.00  0.00    +0.020 A 
ATOM      8  C   UNL     1       4.504   2.527   4.489  0.00  0.00    +0.040 A 
ATOM      9  C   UNL     1       4.604   2.751   3.122  0.00  0.00    +0.053 A 
ATOM     10 BR   UNL     1       3.227   2.609   7.031  0.00  0.00    -0.050 Br
BRANCH   9  11
ATOM     11  N   UNL     1       5.749   2.350   2.429  0.00  0.00    -0.356 N 
ATOM     12  H   UNL     1       5.782   2.426   1.463  0.00  0.00    +0.142 HD
ATOM     13  H   UNL     1       6.510   1.995   2.915  0.00  0.00    +0.142 HD
ENDBRANCH   9  11
ENDBRANCH   1   4
BRANCH   1  14
ATOM     14  N   UNL     1       3.765   2.195  -0.029  0.00  0.00    -0.213 N 
ATOM     15  H   UNL     1       4.539   1.958  -0.563  0.00  0.00    +0.174 HD
BRANCH  14  18
ATOM     16  C   UNL     1       0.362   0.848   0.327  0.00  0.00    +0.003 A 
ATOM     17  C   UNL     1       1.403   1.746   0.185  0.00  0.00    +0.027 A 
ATOM     18  C   UNL     1       2.711   1.287   0.115  0.00  0.00    +0.085 A 
ATOM     19  C   UNL     1       2.971  -0.077   0.188  0.00  0.00    +0.164 A 
ATOM     20  C   UNL     1       1.925  -0.971   0.330  0.00  0.00    +0.078 A 
ATOM     21  C   UNL     1       0.622  -0.508   0.399  0.00  0.00    +0.023 A 
ATOM     22 CL   UNL     1       2.246  -2.675   0.421  0.00  0.00    -0.081 Cl
ATOM     23  F   UNL     1       4.242  -0.528   0.120  0.00  0.00    -0.202 F 
ENDBRANCH  14  18
ENDBRANCH   1  14
TORSDOF 4
