REMARK  Name = ZINC06846682
REMARK  5 active torsions:
REMARK  status: ('A' for Active; 'I' for Inactive)
REMARK    1  A    between atoms: C_1  and  C_2
REMARK    2  A    between atoms: C_2  and  C_3
REMARK    3  A    between atoms: C_19  and  C_22
REMARK    4  A    between atoms: N_24  and  C_25
REMARK    5  A    between atoms: C_25  and  C_26
REMARK                            x       y       z     vdW  Elec       q    Type
REMARK                         _______ _______ _______ _____ _____    ______ ____
ROOT
ATOM      1  C   UNL     1      -2.187  -2.920   2.507  0.00  0.00    +0.191 C 
ATOM      2  C   UNL     1      -3.304  -2.749   1.468  0.00  0.00    +0.159 C 
ATOM      3  N   UNL     1      -2.684  -2.814   0.133  0.00  0.00    -0.248 N 
ATOM      4  C   UNL     1      -1.464  -2.141  -0.054  0.00  0.00    +0.080 A 
ATOM      5  C   UNL     1      -0.979  -1.925  -1.334  0.00  0.00    +0.027 A 
ATOM      6  C   UNL     1       0.223  -1.265  -1.513  0.00  0.00    +0.002 A 
ATOM      7  C   UNL     1       0.940  -0.823  -0.416  0.00  0.00    +0.004 A 
ATOM      8  C   UNL     1       0.460  -1.035   0.862  0.00  0.00    +0.047 A 
ATOM      9  C   UNL     1      -0.745  -1.694   1.051  0.00  0.00    +0.142 A 
ATOM     10  O   UNL     1      -1.211  -1.894   2.313  0.00  0.00    -0.485 OA
ATOM     11  C   UNL     1      -3.265  -3.497  -0.873  0.00  0.00    +0.309 C 
ATOM     12  O   UNL     1      -2.661  -3.680  -1.913  0.00  0.00    -0.252 OA
ATOM     13  N   UNL     1      -4.517  -3.976  -0.728  0.00  0.00    -0.285 N 
ATOM     14  C   UNL     1      -5.439  -3.376   0.245  0.00  0.00    +0.110 C 
ATOM     15  C   UNL     1      -5.979  -4.481   1.159  0.00  0.00    +0.032 C 
ATOM     16  C   UNL     1      -6.600  -5.587   0.304  0.00  0.00    +0.078 C 
ATOM     17  C   UNL     1      -5.528  -6.193  -0.606  0.00  0.00    +0.032 C 
ATOM     18  C   UNL     1      -4.986  -5.104  -1.544  0.00  0.00    +0.110 C 
ENDROOT
BRANCH  16  19
ATOM     19  C   UNL     1      -7.162  -6.660   1.201  0.00  0.00    +0.216 C 
ATOM     20  O   UNL     1      -7.074  -6.550   2.406  0.00  0.00    -0.276 OA
ATOM     21  N   UNL     1      -7.761  -7.741   0.665  0.00  0.00    -0.311 N 
ATOM     22  H   UNL     1      -7.832  -7.829  -0.299  0.00  0.00    +0.149 HD
BRANCH  21  23
ATOM     23  C   UNL     1      -8.308  -8.784   1.537  0.00  0.00    +0.139 C 
BRANCH  23  24
ATOM     24  C   UNL     1      -8.919  -9.873   0.695  0.00  0.00    -0.030 A 
ATOM     25  C   UNL     1     -10.250  -9.799   0.328  0.00  0.00    +0.008 A 
ATOM     26  C   UNL     1     -10.812 -10.797  -0.445  0.00  0.00    +0.038 A 
ATOM     27  C   UNL     1     -10.041 -11.873  -0.852  0.00  0.00    +0.123 A 
ATOM     28  C   UNL     1      -8.709 -11.947  -0.484  0.00  0.00    +0.038 A 
ATOM     29  C   UNL     1      -8.148 -10.944   0.284  0.00  0.00    +0.008 A 
ATOM     30  F   UNL     1     -10.590 -12.850  -1.607  0.00  0.00    -0.205 F 
ENDBRANCH  23  24
ENDBRANCH  21  23
ENDBRANCH  16  19
BRANCH   1  32
ATOM     31  C   UNL     1      -1.684  -3.097   4.948  0.00  0.00    +0.007 C 
ATOM     32  C   UNL     1      -2.775  -2.809   3.915  0.00  0.00    +0.043 C 
ENDBRANCH   1  32
TORSDOF 4
