REMARK  Name = ZINC57866412
REMARK  5 active torsions:
REMARK  status: ('A' for Active; 'I' for Inactive)
REMARK    1  A    between atoms: C_3  and  C_8
REMARK    2  A    between atoms: C_5  and  N_7
REMARK    3  A    between atoms: N_16  and  C_17
REMARK    4  A    between atoms: C_17  and  C_18
REMARK    5  A    between atoms: C_18  and  N_20
REMARK                            x       y       z     vdW  Elec       q    Type
REMARK                         _______ _______ _______ _____ _____    ______ ____
ROOT
ATOM      1  C   UNL     1       3.655   2.173  -0.028  0.00  0.00    +0.142 A 
ATOM      2  N   UNL     1       4.842   1.656  -0.232  0.00  0.00    -0.227 NA
ATOM      3  C   UNL     1       5.782   2.631  -0.163  0.00  0.00    +0.093 A 
ATOM      4  C   UNL     1       7.175   2.631  -0.301  0.00  0.00    +0.079 A 
ATOM      5  C   UNL     1       7.878   3.810  -0.174  0.00  0.00    +0.168 A 
ATOM      6  C   UNL     1       7.205   5.007   0.091  0.00  0.00    +0.168 A 
ATOM      7  C   UNL     1       5.830   5.018   0.229  0.00  0.00    +0.077 A 
ATOM      8  C   UNL     1       5.112   3.837   0.103  0.00  0.00    +0.073 A 
ATOM      9  N   UNL     1       3.767   3.522   0.179  0.00  0.00    -0.317 N 
ATOM     10  O   UNL     1       8.125   6.014   0.168  0.00  0.00    -0.453 OA
ATOM     11  C   UNL     1       9.395   5.362   0.356  0.00  0.00    +0.466 C 
ATOM     12  O   UNL     1       9.215   4.074  -0.263  0.00  0.00    -0.453 OA
ENDROOT
BRANCH   1  15
ATOM     13  C   UNL     1       0.091   1.200   0.656  0.00  0.00    +0.002 A 
ATOM     14  C   UNL     1       1.275   1.909   0.657  0.00  0.00    +0.011 A 
ATOM     15  C   UNL     1       2.386   1.415  -0.028  0.00  0.00    +0.019 A 
ATOM     16  C   UNL     1       2.294   0.203  -0.712  0.00  0.00    +0.034 A 
ATOM     17  C   UNL     1       1.101  -0.502  -0.708  0.00  0.00    +0.025 A 
ATOM     18  C   UNL     1      -0.000  -0.000  -0.022  0.00  0.00    +0.023 A 
BRANCH  17  19
ATOM     19  N   UNL     1       1.004  -1.716  -1.392  0.00  0.00    -0.358 N 
ATOM     20  H   UNL     1       1.771  -2.065  -1.871  0.00  0.00    +0.142 HD
ATOM     21  H   UNL     1       0.168  -2.209  -1.389  0.00  0.00    +0.142 HD
ENDBRANCH  17  19
ENDBRANCH   1  15
BRANCH   9  22
ATOM     22  C   UNL     1       2.669   4.457   0.434  0.00  0.00    +0.182 C 
BRANCH  22  23
ATOM     23  C   UNL     1       2.512   4.653   1.920  0.00  0.00    +0.066 C 
ATOM     24  S   UNL     1       3.480   3.884   2.935  0.00  0.00    -0.039 S 
BRANCH  23  25
ATOM     25  N   UNL     1       1.556   5.477   2.394  0.00  0.00    -0.354 N 
ATOM     26  H   UNL     1       0.969   5.943   1.779  0.00  0.00    +0.143 HD
ATOM     27  H   UNL     1       1.456   5.604   3.350  0.00  0.00    +0.143 HD
ENDBRANCH  23  25
ENDBRANCH  22  23
ENDBRANCH   9  22
TORSDOF 5
