REMARK  Name = ZINC04125127
REMARK  5 active torsions:
REMARK  status: ('A' for Active; 'I' for Inactive)
REMARK    1  A    between atoms: C_1  and  C_2
REMARK    2  A    between atoms: C_6  and  O_28
REMARK    3  A    between atoms: C_10  and  O_27
REMARK    4  A    between atoms: C_13  and  C_26
REMARK    5  A    between atoms: C_22  and  C_25
REMARK                            x       y       z     vdW  Elec       q    Type
REMARK                         _______ _______ _______ _____ _____    ______ ____
ROOT
ATOM      1  C   UNL     1      -0.019   1.525   0.010  0.00  0.00    +0.007 C 
ATOM      2  C   UNL     1       0.002  -0.004   0.002  0.00  0.00    -0.013 C 
ATOM      3  C   UNL     1      -1.433  -0.536   0.023  0.00  0.00    +0.008 C 
ATOM      4  C   UNL     1      -1.371  -2.058  -0.086  0.00  0.00    +0.065 C 
ATOM      5  C   UNL     1      -0.648  -2.647   1.130  0.00  0.00    +0.173 C 
ATOM      6  C   UNL     1       0.731  -2.032   1.316  0.00  0.00    +0.080 C 
ATOM      7  C   UNL     1       0.732  -0.513   1.246  0.00  0.00    +0.015 C 
ATOM      8  C   UNL     1       1.358  -2.519   2.622  0.00  0.00    +0.079 C 
ATOM      9  C   UNL     1       2.696  -1.828   2.869  0.00  0.00    +0.036 C 
ATOM     10  C   UNL     1       2.582  -0.437   3.460  0.00  0.00    +0.006 C 
ATOM     11  C   UNL     1       1.674  -0.401   4.682  0.00  0.00    -0.014 C 
ATOM     12  C   UNL     1       0.313  -1.006   4.366  0.00  0.00    +0.012 C 
ATOM     13  C   UNL     1       0.435  -2.423   3.821  0.00  0.00    +0.053 C 
ATOM     14  C   UNL     1      -0.957  -2.976   3.525  0.00  0.00    +0.078 C 
ATOM     15  O   UNL     1      -1.448  -2.475   2.288  0.00  0.00    -0.342 OA
ATOM     16  C   UNL     1      -1.929  -2.506   4.622  0.00  0.00    +0.036 C 
ATOM     17  C   UNL     1      -1.477  -3.025   5.984  0.00  0.00    +0.006 C 
ATOM     18  C   UNL     1      -1.479  -4.556   5.972  0.00  0.00    -0.014 C 
ATOM     19  C   UNL     1      -0.523  -5.050   4.888  0.00  0.00    +0.006 C 
ATOM     20  C   UNL     1      -0.948  -4.503   3.525  0.00  0.00    +0.036 C 
ATOM     21  C   UNL     1      -1.017  -5.075   7.335  0.00  0.00    +0.007 C 
ATOM     22  C   UNL     1       2.328  -1.127   5.857  0.00  0.00    +0.007 C 
ENDROOT
BRANCH   8  23
ATOM     23  O   UNL     1       1.681  -3.922   2.434  0.00  0.00    -0.388 OA
ATOM     24  H   UNL     1       2.301  -4.089   1.711  0.00  0.00    +0.210 HD
ENDBRANCH   8  23
BRANCH   5  25
ATOM     25  O   UNL     1      -0.493  -4.052   0.858  0.00  0.00    -0.364 OA
ATOM     26  H   UNL     1      -1.328  -4.522   0.728  0.00  0.00    +0.213 HD
ENDBRANCH   5  25
TORSDOF 2
