REMARK  Name = ZINC51330074
REMARK  6 active torsions:
REMARK  status: ('A' for Active; 'I' for Inactive)
REMARK    1  A    between atoms: C_1  and  C_2
REMARK    2  A    between atoms: C_3  and  N_15
REMARK    3  A    between atoms: C_4  and  N_14
REMARK    4  A    between atoms: N_6  and  C_8
REMARK    5  A    between atoms: C_16  and  C_17
REMARK    6  A    between atoms: C_20  and  N_23
REMARK                            x       y       z     vdW  Elec       q    Type
REMARK                         _______ _______ _______ _____ _____    ______ ____
ROOT
ATOM      1  C   UNL     1      -0.018   1.503   0.010  0.00  0.00    +0.064 C 
ATOM      2  C   UNL     1       0.002  -0.004   0.002  0.00  0.00    +0.040 C 
ATOM      3  C   UNL     1      -1.200  -0.875   0.003  0.00  0.00    +0.063 C 
ATOM      4  C   UNL     1      -0.653  -2.289  -0.008  0.00  0.00    +0.085 C 
ATOM      5  N   UNL     1       0.807  -2.111  -0.014  0.00  0.00    -0.262 N 
ATOM      6  N   UNL     1       1.084  -0.744  -0.013  0.00  0.00    -0.268 N 
ATOM      7  H   UNL     1       1.983  -0.379  -0.019  0.00  0.00    +0.170 HD
ENDROOT
BRANCH   5   8
ATOM      8  C   UNL     1       1.755  -3.137  -0.025  0.00  0.00    +0.046 A 
ATOM      9  C   UNL     1       1.344  -4.464  -0.036  0.00  0.00    +0.024 A 
ATOM     10  C   UNL     1       2.284  -5.476  -0.047  0.00  0.00    +0.002 A 
ATOM     11  C   UNL     1       3.633  -5.169  -0.046  0.00  0.00    +0.000 A 
ATOM     12  C   UNL     1       4.045  -3.849  -0.035  0.00  0.00    +0.002 A 
ATOM     13  C   UNL     1       3.110  -2.832  -0.029  0.00  0.00    +0.024 A 
ENDBRANCH   5   8
BRANCH   4  14
ATOM     14  N   UNL     1      -1.080  -3.015   1.196  0.00  0.00    +0.395 N 
ATOM     15  H   UNL     1      -2.087  -3.074   1.213  0.00  0.00    -0.087 HD
ATOM     16  H   UNL     1      -0.689  -3.945   1.185  0.00  0.00    -0.087 HD
ATOM     17  H   UNL     1      -0.758  -2.524   2.016  0.00  0.00    -0.087 HD
ENDBRANCH   4  14
BRANCH   3  18
ATOM     18  N   UNL     1      -2.454  -0.503   0.011  0.00  0.00    -0.258 NA
ATOM     19  C   UNL     1      -3.428  -1.428   0.011  0.00  0.00    +0.119 C 
BRANCH  19  20
ATOM     20  C   UNL     1      -4.776  -1.029   0.020  0.00  0.00    -0.007 A 
ATOM     21  C   UNL     1      -5.113   0.343   0.023  0.00  0.00    +0.011 A 
ATOM     22  C   UNL     1      -6.426   0.717   0.032  0.00  0.00    +0.033 A 
ATOM     23  C   UNL     1      -7.428  -0.245   0.037  0.00  0.00    +0.126 A 
ATOM     24  C   UNL     1      -7.110  -1.597   0.035  0.00  0.00    +0.033 A 
ATOM     25  C   UNL     1      -5.805  -1.997   0.020  0.00  0.00    +0.011 A 
BRANCH  23  26
ATOM     26  N   UNL     1      -8.849   0.176   0.047  0.00  0.00    +0.056 N 
ATOM     27  O   UNL     1      -9.157   1.456   0.050  0.00  0.00    -0.126 OA
ATOM     28  O   UNL     1      -9.804  -0.731   0.052  0.00  0.00    -0.126 OA
ENDBRANCH  23  26
ENDBRANCH  19  20
ENDBRANCH   3  18
TORSDOF 5
