REMARK  Name = ZINC45147744
REMARK  5 active torsions:
REMARK  status: ('A' for Active; 'I' for Inactive)
REMARK    1  A    between atoms: C_1  and  C_2
REMARK    2  A    between atoms: C_2  and  C_3
REMARK    3  A    between atoms: N_9  and  S_10
REMARK    4  A    between atoms: S_10  and  C_13
REMARK    5  A    between atoms: C_14  and  N_20
REMARK                            x       y       z     vdW  Elec       q    Type
REMARK                         _______ _______ _______ _____ _____    ______ ____
ROOT
ATOM      1  S   UNL     1      -1.126   1.366   2.715  0.00  0.00    +0.066 S 
ATOM      2  O   UNL     1      -1.500   1.367   4.086  0.00  0.00    -0.153 OA
ATOM      3  O   UNL     1       0.229   1.282   2.296  0.00  0.00    -0.153 OA
ENDROOT
BRANCH   1   4
ATOM      4  C   UNL     1      -1.781   2.843   2.013  0.00  0.00    +0.161 A 
ATOM      5  C   UNL     1      -3.076   3.243   2.317  0.00  0.00    +0.054 A 
ATOM      6  C   UNL     1      -3.588   4.409   1.761  0.00  0.00    +0.025 A 
ATOM      7  C   UNL     1      -2.809   5.168   0.909  0.00  0.00    +0.005 A 
ATOM      8  C   UNL     1      -1.521   4.769   0.608  0.00  0.00    +0.040 A 
ATOM      9  C   UNL     1      -1.004   3.610   1.164  0.00  0.00    +0.151 A 
ATOM     10  F   UNL     1       0.258   3.225   0.872  0.00  0.00    -0.203 F 
BRANCH   5  11
ATOM     11  N   UNL     1      -3.862   2.474   3.178  0.00  0.00    -0.356 N 
ATOM     12  H   UNL     1      -3.549   1.606   3.475  0.00  0.00    +0.142 HD
ATOM     13  H   UNL     1      -4.721   2.809   3.479  0.00  0.00    +0.142 HD
ENDBRANCH   5  11
ENDBRANCH   1   4
BRANCH   1  19
ATOM     14  C   UNL     1      -1.545  -0.381   0.669  0.00  0.00    +0.105 C 
ATOM     15  C   UNL     1      -1.345  -1.900   0.733  0.00  0.00    +0.180 C 
ATOM     16  O   UNL     1      -2.501  -2.502   1.321  0.00  0.00    -0.377 OA
ATOM     17  C   UNL     1      -2.748  -2.100   2.670  0.00  0.00    +0.177 C 
ATOM     18  C   UNL     1      -3.020  -0.592   2.705  0.00  0.00    +0.138 C 
ATOM     19  N   UNL     1      -1.920   0.095   2.010  0.00  0.00    -0.169 NA
BRANCH  14  21
ATOM     20  C   UNL     1       0.076  -0.111  -1.213  0.00  0.00    +0.005 C 
ATOM     21  C   UNL     1      -0.243   0.291   0.228  0.00  0.00    +0.019 C 
ENDBRANCH  14  21
ENDBRANCH   1  19
TORSDOF 4
