REMARK  Name = ZINC39693127
REMARK  10 active torsions:
REMARK  status: ('A' for Active; 'I' for Inactive)
REMARK    1  A    between atoms: C_1  and  C_2
REMARK    2  A    between atoms: C_2  and  C_3
REMARK    3  A    between atoms: C_2  and  N_4
REMARK    4  A    between atoms: C_5  and  S_10
REMARK    5  A    between atoms: S_10  and  C_11
REMARK    6  A    between atoms: C_11  and  C_12
REMARK    7  A    between atoms: N_14  and  CA_15
REMARK    8  A    between atoms: CA_15  and  CB_17
REMARK    9  A    between atoms: CA_15  and  C_27
REMARK   10  A    between atoms: CB_17  and  CG_18
REMARK                            x       y       z     vdW  Elec       q    Type
REMARK                         _______ _______ _______ _____ _____    ______ ____
ROOT
ATOM      1  C   UNK A   0       3.732  -3.924  -1.379  0.00  0.00    +0.224 C 
ATOM      2  O   UNK A   0       4.459  -3.857  -0.411  0.00  0.00    -0.275 OA
ATOM      3  N   TRP A   1       3.679  -5.059  -2.104  0.00  0.00    -0.301 N 
ATOM      4  H   TRP A   1       3.098  -5.113  -2.879  0.00  0.00    +0.150 HD
ENDROOT
BRANCH   1   5
ATOM      5  C   UNK A   0       2.889  -2.739  -1.772  0.00  0.00    +0.167 C 
BRANCH   5   6
ATOM      6  S   UNK A   0       3.181  -1.377  -0.611  0.00  0.00    -0.117 S 
BRANCH   6   8
ATOM      7  N   UNK A   0       0.690  -0.478  -1.207  0.00  0.00    -0.228 NA
ATOM      8  C   UNK A   0       2.107  -0.046  -1.215  0.00  0.00    +0.184 C 
ATOM      9  N   UNK A   0       2.384   0.243  -2.647  0.00  0.00    -0.323 NA
ATOM     10  N   UNK A   0       1.120   0.837  -3.110  0.00  0.00    +0.409 N 
ATOM     11  N   UNK A   0       0.078   0.082  -2.411  0.00  0.00    -0.280 NA
ATOM     12  H   UNK A   0       3.147   0.896  -2.743  0.00  0.00    +0.106 HD
ATOM     13  H   UNK A   0       1.077   1.813  -2.856  0.00  0.00    -0.032 HD
ATOM     14  H   UNK A   0      -0.704   0.675  -2.177  0.00  0.00    +0.121 HD
ATOM     15  H   UNK A   0       1.024   0.727  -4.108  0.00  0.00    -0.032 HD
BRANCH   7  17
ATOM     16  C   UNK A   0      -0.019   1.526   0.010  0.00  0.00    +0.025 C 
ATOM     17  C   UNK A   0       0.002  -0.004   0.002  0.00  0.00    +0.067 C 
ATOM     18  C   UNK A   0      -1.433  -0.534   0.013  0.00  0.00    +0.025 C 
ENDBRANCH   7  17
ENDBRANCH   6   8
ENDBRANCH   5   6
ENDBRANCH   1   5
BRANCH   3  19
ATOM     19  CA  TRP A   1       4.499  -6.212  -1.722  0.00  0.00    +0.191 C 
BRANCH  19  20
ATOM     20  C   TRP A   1       5.876  -6.067  -2.317  0.00  0.00    +0.376 C 
ATOM     21  O   TRP A   1       6.147  -5.093  -2.997  0.00  0.00    -0.244 OA
ATOM     22  OXT TRP A   1       6.719  -6.926  -2.118  0.00  0.00    -0.244 OA
ENDBRANCH  19  20
BRANCH  19  23
ATOM     23  CB  TRP A   1       3.850  -7.495  -2.244  0.00  0.00    +0.071 C 
BRANCH  23  24
ATOM     24  CG  TRP A   1       2.525  -7.703  -1.557  0.00  0.00    -0.020 A 
ATOM     25  CD2 TRP A   1       1.238  -7.123  -1.950  0.00  0.00    +0.003 A 
ATOM     26  CE3 TRP A   1       0.832  -6.273  -2.980  0.00  0.00    +0.010 A 
ATOM     27  CZ3 TRP A   1      -0.481  -5.906  -3.079  0.00  0.00    +0.001 A 
ATOM     28  CH2 TRP A   1      -1.413  -6.371  -2.162  0.00  0.00    +0.002 A 
ATOM     29  CZ2 TRP A   1      -1.034  -7.210  -1.138  0.00  0.00    +0.026 A 
ATOM     30  CE2 TRP A   1       0.297  -7.598  -1.019  0.00  0.00    +0.047 A 
ATOM     31  NE1 TRP A   1       0.974  -8.404  -0.132  0.00  0.00    -0.360 N 
ATOM     32  CD1 TRP A   1       2.298  -8.460  -0.471  0.00  0.00    +0.087 A 
ATOM     33  HE1 TRP A   1       0.571  -8.867   0.619  0.00  0.00    +0.165 HD
ENDBRANCH  23  24
ENDBRANCH  19  23
ENDBRANCH   3  19
TORSDOF 8
