REMARK  Name = ZINC44869670
REMARK  7 active torsions:
REMARK  status: ('A' for Active; 'I' for Inactive)
REMARK    1  A    between atoms: C_1  and  C_2
REMARK    2  A    between atoms: C_2  and  C_3
REMARK    3  A    between atoms: C_3  and  C_5
REMARK    4  A    between atoms: C_3  and  C_9
REMARK    5  A    between atoms: N_6  and  O_7
REMARK    6  A    between atoms: C_15  and  C_18
REMARK    7  A    between atoms: C_18  and  O_19
REMARK                            x       y       z     vdW  Elec       q    Type
REMARK                         _______ _______ _______ _____ _____    ______ ____
ROOT
ATOM      1  C   UNL     1       0.114  -0.036   2.398  0.00  0.00    +0.226 C 
ATOM      2  O   UNL     1      -0.140  -0.841   3.268  0.00  0.00    -0.275 OA
ATOM      3  N   UNL     1      -0.195   1.265   2.573  0.00  0.00    -0.301 N 
ATOM      4  C   UNL     1       0.203   2.269   1.577  0.00  0.00    +0.108 C 
ATOM      5  C   UNL     1       0.977   3.386   2.285  0.00  0.00    +0.019 C 
ATOM      6  C   UNL     1       0.129   3.940   3.432  0.00  0.00    +0.009 C 
ATOM      7  C   UNL     1      -0.150   2.828   4.446  0.00  0.00    +0.032 C 
ATOM      8  C   UNL     1      -0.941   1.704   3.760  0.00  0.00    +0.113 C 
ENDROOT
BRANCH   1   9
ATOM      9  C   UNL     1       0.774  -0.488   1.121  0.00  0.00    +0.141 C 
BRANCH   9  10
ATOM     10  C   UNL     1       2.264  -0.572   1.328  0.00  0.00    +0.144 C 
ATOM     11  N   UNL     1       2.810  -1.699   1.647  0.00  0.00    -0.076 NA
ATOM     12  N   UNL     1       3.044   0.553   1.178  0.00  0.00    -0.343 N 
ATOM     13  H   UNL     1       2.635   1.399   0.938  0.00  0.00    +0.144 HD
ATOM     14  H   UNL     1       4.004   0.499   1.311  0.00  0.00    +0.144 HD
BRANCH  11  15
ATOM     15  O   UNL     1       4.210  -1.777   1.842  0.00  0.00    -0.408 OA
ATOM     16  H   UNL     1       4.525  -2.660   2.078  0.00  0.00    +0.328 HD
ENDBRANCH  11  15
ENDBRANCH   9  10
BRANCH   9  18
ATOM     17  C   UNL     1      -1.250  -1.753   0.382  0.00  0.00    +0.005 C 
ATOM     18  C   UNL     1       0.235  -1.866   0.729  0.00  0.00    +0.017 C 
ENDBRANCH   9  18
ENDBRANCH   1   9
BRANCH   7  19
ATOM     19  C   UNL     1      -0.969   3.391   5.609  0.00  0.00    +0.160 C 
BRANCH  19  20
ATOM     20  O   UNL     1      -0.191   4.359   6.315  0.00  0.00    -0.395 OA
ATOM     21  H   UNL     1      -0.648   4.759   7.068  0.00  0.00    +0.209 HD
ENDBRANCH  19  20
ENDBRANCH   7  19
TORSDOF 6
