REMARK  Name = ZINC37010626
REMARK  7 active torsions:
REMARK  status: ('A' for Active; 'I' for Inactive)
REMARK    1  A    between atoms: C_1  and  C_2
REMARK    2  A    between atoms: C_2  and  C_4
REMARK    3  A    between atoms: C_2  and  N_21
REMARK    4  A    between atoms: C_7  and  S_10
REMARK    5  A    between atoms: S_10  and  N_13
REMARK    6  A    between atoms: C_16  and  C_19
REMARK    7  A    between atoms: C_19  and  O_20
REMARK                            x       y       z     vdW  Elec       q    Type
REMARK                         _______ _______ _______ _____ _____    ______ ____
ROOT
ATOM      1  C   UNL     1       0.707  -0.490  -1.238  0.00  0.00    -0.062 A 
ATOM      2  C   UNL     1       2.089  -0.511  -1.284  0.00  0.00    +0.004 A 
ATOM      3  C   UNL     1       2.736  -0.957  -2.421  0.00  0.00    +0.029 A 
ATOM      4  C   UNL     1       2.002  -1.382  -3.512  0.00  0.00    +0.105 A 
ATOM      5  C   UNL     1       0.620  -1.362  -3.466  0.00  0.00    +0.029 A 
ATOM      6  C   UNL     1      -0.027  -0.920  -2.327  0.00  0.00    +0.004 A 
ENDROOT
BRANCH   4   7
ATOM      7  S   UNL     1       2.826  -1.949  -4.962  0.00  0.00    +0.061 S 
ATOM      8  O   UNL     1       1.916  -1.778  -6.040  0.00  0.00    -0.153 OA
ATOM      9  O   UNL     1       4.117  -1.356  -4.954  0.00  0.00    -0.153 OA
BRANCH   7  10
ATOM     10  N   UNL     1       3.054  -3.580  -4.790  0.00  0.00    -0.177 NA
ATOM     11  C   UNL     1       4.272  -4.103  -4.155  0.00  0.00    +0.110 C 
ATOM     12  C   UNL     1       3.868  -5.046  -3.017  0.00  0.00    +0.023 C 
ATOM     13  C   UNL     1       2.931  -6.125  -3.562  0.00  0.00    +0.017 C 
ATOM     14  C   UNL     1       1.664  -5.470  -4.118  0.00  0.00    +0.023 C 
ATOM     15  C   UNL     1       2.040  -4.532  -5.263  0.00  0.00    +0.110 C 
BRANCH  13  16
ATOM     16  C   UNL     1       2.553  -7.089  -2.435  0.00  0.00    +0.159 C 
BRANCH  16  17
ATOM     17  O   UNL     1       1.773  -8.162  -2.967  0.00  0.00    -0.395 OA
ATOM     18  H   UNL     1       1.498  -8.813  -2.308  0.00  0.00    +0.209 HD
ENDBRANCH  16  17
ENDBRANCH  13  16
ENDBRANCH   7  10
ENDBRANCH   4   7
BRANCH   1  20
ATOM     19  C   UNL     1      -0.019   1.526   0.010  0.00  0.00    -0.009 C 
ATOM     20  C   UNL     1       0.002  -0.004   0.002  0.00  0.00    -0.047 C 
BRANCH  20  21
ATOM     21  N   UNL     1       0.713  -0.491   1.192  0.00  0.00    +0.382 N 
ATOM     22  H   UNL     1       0.240  -0.165   2.022  0.00  0.00    -0.089 HD
ATOM     23  H   UNL     1       0.726  -1.500   1.187  0.00  0.00    -0.089 HD
ATOM     24  H   UNL     1       1.659  -0.141   1.185  0.00  0.00    -0.089 HD
ENDBRANCH  20  21
ENDBRANCH   1  20
TORSDOF 6
