REMARK  Name = ZINC42015379
REMARK  5 active torsions:
REMARK  status: ('A' for Active; 'I' for Inactive)
REMARK    1  A    between atoms: C_1  and  C_2
REMARK    2  A    between atoms: C_7  and  N_8
REMARK    3  A    between atoms: C_9  and  C_13
REMARK    4  A    between atoms: C_16  and  N_20
REMARK    5  A    between atoms: C_18  and  N_19
REMARK                            x       y       z     vdW  Elec       q    Type
REMARK                         _______ _______ _______ _____ _____    ______ ____
ROOT
ATOM      1  N   UNL     1       0.270   0.153   2.364  0.00  0.00    -0.192 N 
ATOM      2  C   UNL     1       0.347  -0.334   3.637  0.00  0.00    +0.189 A 
ATOM      3  N   UNL     1       0.196   0.694   4.449  0.00  0.00    -0.108 NA
ATOM      4  N   UNL     1       0.032   1.776   3.779  0.00  0.00    -0.022 NA
ATOM      5  N   UNL     1       0.070   1.536   2.513  0.00  0.00    -0.039 NA
ENDROOT
BRANCH   1  12
ATOM      6  C   UNL     1      -1.688   0.599   0.348  0.00  0.00    +0.046 C 
ATOM      7  C   UNL     1      -0.560  -0.382   0.158  0.00  0.00    -0.024 A 
ATOM      8  C   UNL     1      -0.452  -1.091  -1.022  0.00  0.00    +0.020 A 
ATOM      9  C   UNL     1       0.584  -1.991  -1.197  0.00  0.00    +0.018 A 
ATOM     10  C   UNL     1       1.514  -2.184  -0.191  0.00  0.00    +0.017 A 
ATOM     11  C   UNL     1       1.410  -1.478   0.991  0.00  0.00    +0.029 A 
ATOM     12  C   UNL     1       0.374  -0.569   1.167  0.00  0.00    +0.072 A 
ATOM     13 BR   UNL     1       0.729  -2.960  -2.815  0.00  0.00    -0.050 Br
ENDBRANCH   1  12
BRANCH   2  14
ATOM     14  C   UNL     1       0.558  -1.742   4.029  0.00  0.00    +0.042 A 
ATOM     15  C   UNL     1      -0.198  -2.755   3.437  0.00  0.00    +0.015 A 
ATOM     16  C   UNL     1       0.001  -4.067   3.804  0.00  0.00    +0.023 A 
ATOM     17  C   UNL     1       0.955  -4.389   4.766  0.00  0.00    +0.026 A 
ATOM     18  C   UNL     1       1.711  -3.389   5.362  0.00  0.00    +0.046 A 
ATOM     19  C   UNL     1       1.523  -2.066   4.995  0.00  0.00    +0.037 A 
BRANCH  19  20
ATOM     20  N   UNL     1       2.285  -1.061   5.587  0.00  0.00    -0.357 N 
ATOM     21  H   UNL     1       2.211  -0.147   5.271  0.00  0.00    +0.142 HD
ATOM     22  H   UNL     1       2.888  -1.276   6.315  0.00  0.00    +0.142 HD
ENDBRANCH  19  20
BRANCH  17  23
ATOM     23  N   UNL     1       1.150  -5.720   5.133  0.00  0.00    -0.358 N 
ATOM     24  H   UNL     1       0.622  -6.420   4.718  0.00  0.00    +0.142 HD
ATOM     25  H   UNL     1       1.814  -5.946   5.803  0.00  0.00    +0.142 HD
ENDBRANCH  17  23
ENDBRANCH   2  14
TORSDOF 4
