REMARK  Name = ZINC44858774
REMARK  8 active torsions:
REMARK  status: ('A' for Active; 'I' for Inactive)
REMARK    1  A    between atoms: C_1  and  C_2
REMARK    2  A    between atoms: C_2  and  C_3
REMARK    3  A    between atoms: C_3  and  C_4
REMARK    4  A    between atoms: C_4  and  C_6
REMARK    5  A    between atoms: C_4  and  C_9
REMARK    6  A    between atoms: C_6  and  N_8
REMARK    7  A    between atoms: C_13  and  C_20
REMARK    8  A    between atoms: C_17  and  C_19
REMARK                            x       y       z     vdW  Elec       q    Type
REMARK                         _______ _______ _______ _____ _____    ______ ____
ROOT
ATOM      1  C   UNL     1       1.179  -3.184  -1.091  0.00  0.00    +0.225 C 
ATOM      2  O   UNL     1       1.015  -2.071  -1.543  0.00  0.00    -0.275 OA
ATOM      3  N   UNL     1       1.382  -4.226  -1.921  0.00  0.00    -0.297 N 
ATOM      4  C   UNL     1       1.432  -5.599  -1.401  0.00  0.00    +0.120 C 
ATOM      5  C   UNL     1       2.735  -6.256  -1.869  0.00  0.00    +0.092 C 
ATOM      6  C   UNL     1       2.833  -6.157  -3.393  0.00  0.00    +0.016 C 
ATOM      7  C   UNL     1       2.858  -4.684  -3.810  0.00  0.00    +0.023 C 
ATOM      8  C   UNL     1       1.551  -4.010  -3.365  0.00  0.00    +0.073 C 
ATOM      9  C   UNL     1       1.621  -2.510  -3.655  0.00  0.00    +0.028 C 
ENDROOT
BRANCH   5  10
ATOM     10  C   UNL     1       3.908  -5.548  -1.242  0.00  0.00    +0.215 C 
ATOM     11  O   UNL     1       3.868  -4.350  -1.061  0.00  0.00    -0.276 OA
ATOM     12  N   UNL     1       5.003  -6.248  -0.882  0.00  0.00    -0.329 N 
ATOM     13  H   UNL     1       5.035  -7.206  -1.027  0.00  0.00    +0.145 HD
ATOM     14  H   UNL     1       5.758  -5.792  -0.478  0.00  0.00    +0.145 HD
ENDBRANCH   5  10
BRANCH   1  15
ATOM     15  C   UNL     1       1.156  -3.403   0.400  0.00  0.00    +0.126 C 
BRANCH  15  16
ATOM     16  C   UNL     1       2.560  -3.324   0.942  0.00  0.00    +0.058 C 
ATOM     17  S   UNL     1       3.170  -4.553   1.762  0.00  0.00    -0.040 S 
BRANCH  16  18
ATOM     18  N   UNL     1       3.301  -2.218   0.734  0.00  0.00    -0.355 N 
ATOM     19  H   UNL     1       2.931  -1.472   0.236  0.00  0.00    +0.143 HD
ATOM     20  H   UNL     1       4.205  -2.167   1.082  0.00  0.00    +0.143 HD
ENDBRANCH  16  18
ENDBRANCH  15  16
BRANCH  15  21
ATOM     21  C   UNL     1       0.294  -2.325   1.060  0.00  0.00    +0.019 C 
BRANCH  21  23
ATOM     22  C   UNL     1      -0.694  -1.540   3.217  0.00  0.00    +0.004 C 
ATOM     23  C   UNL     1       0.168  -2.618   2.557  0.00  0.00    -0.002 C 
ENDBRANCH  21  23
ENDBRANCH  15  21
ENDBRANCH   1  15
TORSDOF 6
