REMARK  Name = ZINC09324719
REMARK  6 active torsions:
REMARK  status: ('A' for Active; 'I' for Inactive)
REMARK    1  A    between atoms: C_1  and  C_2
REMARK    2  A    between atoms: C_5  and  C_8
REMARK    3  A    between atoms: C_11  and  C_13
REMARK    4  A    between atoms: C_16  and  C_27
REMARK    5  A    between atoms: C_22  and  N_26
REMARK    6  A    between atoms: C_23  and  C_24
REMARK                            x       y       z     vdW  Elec       q    Type
REMARK                         _______ _______ _______ _____ _____    ______ ____
ROOT
ATOM      1  C   UNL     1       0.100  -7.510  -1.672  0.00  0.00    +0.137 C 
ATOM      2  C   UNL     1      -1.121  -7.479  -2.554  0.00  0.00    +0.052 A 
ATOM      3  C   UNL     1      -2.446  -7.738  -2.230  0.00  0.00    +0.068 A 
ATOM      4  N   UNL     1      -3.168  -7.590  -3.316  0.00  0.00    -0.176 NA
ATOM      5  N   UNL     1      -2.314  -7.229  -4.370  0.00  0.00    -0.246 N 
ATOM      6  H   UNL     1      -2.580  -7.055  -5.286  0.00  0.00    +0.192 HD
ATOM      7  C   UNL     1      -1.064  -7.168  -3.884  0.00  0.00    +0.223 A 
ATOM      8  O   UNL     1       0.098  -6.864  -4.515  0.00  0.00    -0.423 OA
ATOM      9  C   UNL     1       1.249  -7.140  -3.870  0.00  0.00    +0.201 C 
ATOM     10  C   UNL     1       1.321  -7.448  -2.555  0.00  0.00    +0.101 C 
ATOM     11  C   UNL     1      -2.966  -8.123  -0.869  0.00  0.00    +0.068 C 
ENDROOT
BRANCH   1  15
ATOM     12  C   UNL     1       0.058  -4.251  -0.021  0.00  0.00    +0.135 A 
ATOM     13  C   UNL     1       0.069  -5.054   1.075  0.00  0.00    +0.050 A 
ATOM     14  C   UNL     1       0.086  -6.383   0.605  0.00  0.00    +0.046 A 
ATOM     15  C   UNL     1       0.085  -6.325  -0.742  0.00  0.00    +0.119 A 
ATOM     16  O   UNL     1       0.062  -5.035  -1.116  0.00  0.00    -0.459 OA
BRANCH  12  21
ATOM     17  C   UNL     1      -0.018   1.503   0.010  0.00  0.00    +0.044 C 
ATOM     18  C   UNL     1       0.002  -0.004   0.002  0.00  0.00    -0.050 A 
ATOM     19  C   UNL     1       0.006  -0.686  -1.202  0.00  0.00    +0.004 A 
ATOM     20  C   UNL     1       0.024  -2.066  -1.216  0.00  0.00    +0.012 A 
ATOM     21  C   UNL     1       0.039  -2.773  -0.013  0.00  0.00    +0.017 A 
ATOM     22  C   UNL     1       0.036  -2.079   1.198  0.00  0.00    +0.012 A 
ATOM     23  C   UNL     1       0.023  -0.699   1.198  0.00  0.00    +0.004 A 
ENDBRANCH  12  21
ENDBRANCH   1  15
BRANCH   9  24
ATOM     24  N   UNL     1       2.418  -7.105  -4.590  0.00  0.00    -0.328 N 
ATOM     25  H   UNL     1       2.399  -6.886  -5.535  0.00  0.00    +0.145 HD
ATOM     26  H   UNL     1       3.262  -7.298  -4.154  0.00  0.00    +0.145 HD
ENDBRANCH   9  24
BRANCH  10  27
ATOM     27  C   UNL     1       2.603  -7.727  -1.980  0.00  0.00    +0.101 C 
ATOM     28  N   UNL     1       3.619  -7.948  -1.524  0.00  0.00    -0.191 NA
ENDBRANCH  10  27
TORSDOF 4
