REMARK  Name = ZINC11953974
REMARK  7 active torsions:
REMARK  status: ('A' for Active; 'I' for Inactive)
REMARK    1  A    between atoms: C_1  and  C_2
REMARK    2  A    between atoms: C_2  and  C_3
REMARK    3  A    between atoms: C_2  and  C_4
REMARK    4  A    between atoms: C_4  and  C_6
REMARK    5  A    between atoms: C_4  and  N_42
REMARK    6  A    between atoms: N_8  and  C_9
REMARK    7  A    between atoms: C_12  and  N_15
REMARK                            x       y       z     vdW  Elec       q    Type
REMARK                         _______ _______ _______ _____ _____    ______ ____
ROOT
ATOM      1  C   UNL     1       1.208   2.025   0.036  0.00  0.00    +0.033 A 
ATOM      2  C   UNL     1       2.399   1.318  -0.061  0.00  0.00    +0.025 A 
ATOM      3  C   UNL     1       3.605   1.990  -0.040  0.00  0.00    +0.026 A 
ATOM      4  C   UNL     1       3.627   3.373   0.090  0.00  0.00    +0.051 A 
ATOM      5  C   UNL     1       2.436   4.079   0.193  0.00  0.00    +0.026 A 
ATOM      6  C   UNL     1       1.230   3.408   0.166  0.00  0.00    +0.025 A 
ENDROOT
BRANCH   4   7
ATOM      7  N   UNL     1       4.849   4.053   0.116  0.00  0.00    -0.207 N 
ATOM      8  C   UNL     1       5.093   5.456  -0.265  0.00  0.00    +0.133 C 
ATOM      9  C   UNL     1       6.276   6.040   0.534  0.00  0.00    +0.045 C 
ATOM     10  C   UNL     1       7.385   4.946   0.466  0.00  0.00    +0.190 C 
ATOM     11  S   UNL     1       6.338   3.438   0.581  0.00  0.00    +0.046 S 
ATOM     12  O   UNL     1       6.177   3.039   1.935  0.00  0.00    -0.155 OA
ATOM     13  O   UNL     1       6.692   2.501  -0.427  0.00  0.00    -0.155 OA
ENDBRANCH   4   7
BRANCH   1  16
ATOM     14  C   UNL     1      -1.089   1.909  -0.578  0.00  0.00    +0.203 C 
ATOM     15  O   UNL     1      -1.019   3.040  -1.010  0.00  0.00    -0.277 OA
ATOM     16  N   UNL     1      -0.016   1.344   0.009  0.00  0.00    -0.287 N 
ATOM     17  H   UNL     1      -0.092   0.467   0.417  0.00  0.00    +0.155 HD
BRANCH  14  18
ATOM     18  C   UNL     1      -2.377   1.134  -0.700  0.00  0.00    +0.016 C 
BRANCH  18  21
ATOM     19  H   UNL     1      -3.615   2.673  -0.117  0.00  0.00    -0.089 HD
ATOM     20  H   UNL     1      -3.355   2.604  -1.758  0.00  0.00    -0.089 HD
ATOM     21  N   UNL     1      -3.510   2.051  -0.917  0.00  0.00    +0.386 N 
ATOM     22  H   UNL     1      -4.371   1.503  -1.030  0.00  0.00    -0.089 HD
ENDBRANCH  18  21
BRANCH  18  24
ATOM     23  C   UNL     1      -3.590  -0.615  -2.008  0.00  0.00    +0.006 C 
ATOM     24  C   UNL     1      -2.283   0.171  -1.885  0.00  0.00    -0.023 C 
ATOM     25  C   UNL     1      -2.042   0.965  -3.170  0.00  0.00    +0.006 C 
ENDBRANCH  18  24
ENDBRANCH  14  18
ENDBRANCH   1  16
TORSDOF 5
