REMARK  Name = ZINC48915211
REMARK  7 active torsions:
REMARK  status: ('A' for Active; 'I' for Inactive)
REMARK    1  A    between atoms: C_1  and  C_2
REMARK    2  A    between atoms: C_2  and  C_3
REMARK    3  A    between atoms: C_7  and  C_23
REMARK    4  A    between atoms: C_12  and  C_19
REMARK    5  A    between atoms: C_13  and  C_18
REMARK    6  A    between atoms: C_15  and  C_17
REMARK    7  A    between atoms: N_20  and  O_21
REMARK                            x       y       z     vdW  Elec       q    Type
REMARK                         _______ _______ _______ _____ _____    ______ ____
ROOT
ATOM      1  C   UNL     1      -2.690   0.187   0.021  0.00  0.00    +0.100 C 
ATOM      2  C   UNL     1      -2.164  -0.502   1.286  0.00  0.00    +0.182 C 
ATOM      3  O   UNL     1      -2.106  -1.913   1.063  0.00  0.00    -0.373 OA
ATOM      4  C   UNL     1      -1.207  -2.304   0.023  0.00  0.00    +0.132 C 
ATOM      5  C   UNL     1      -1.683  -1.708  -1.307  0.00  0.00    +0.138 C 
ATOM      6  N   UNL     1      -1.880  -0.261  -1.123  0.00  0.00    -0.308 N 
ATOM      7  C   UNL     1      -1.319   0.653  -2.001  0.00  0.00    +0.110 A 
ATOM      8  C   UNL     1      -2.010   1.014  -3.168  0.00  0.00    +0.059 A 
ATOM      9  C   UNL     1      -1.424   1.937  -4.038  0.00  0.00    -0.035 A 
ATOM     10  C   UNL     1      -0.183   2.457  -3.710  0.00  0.00    +0.025 A 
ATOM     11  C   UNL     1       0.436   2.052  -2.542  0.00  0.00    +0.015 A 
ATOM     12  N   UNL     1      -0.137   1.183  -1.731  0.00  0.00    -0.346 N 
ATOM     13  C   UNL     1       1.787   2.618  -2.186  0.00  0.00    +0.063 C 
ATOM     14  C   UNL     1      -2.126   2.357  -5.304  0.00  0.00    +0.044 C 
ATOM     15  C   UNL     1      -1.179  -3.830  -0.082  0.00  0.00    +0.039 C 
ATOM     16  H   UNL     1       0.323   0.923  -0.917  0.00  0.00    +0.167 HD
ENDROOT
BRANCH   8  17
ATOM     17  C   UNL     1      -3.333   0.429  -3.471  0.00  0.00    +0.166 C 
ATOM     18  N   UNL     1      -4.413   0.989  -3.010  0.00  0.00    -0.071 NA
ATOM     19  N   UNL     1      -3.422  -0.716  -4.245  0.00  0.00    -0.340 N 
ATOM     20  H   UNL     1      -2.617  -1.134  -4.588  0.00  0.00    +0.144 HD
ATOM     21  H   UNL     1      -4.291  -1.100  -4.444  0.00  0.00    +0.144 HD
BRANCH  18  22
ATOM     22  O   UNL     1      -5.681   0.429  -3.300  0.00  0.00    -0.408 OA
ATOM     23  H   UNL     1      -6.423   0.914  -2.916  0.00  0.00    +0.328 HD
ENDBRANCH  18  22
ENDBRANCH   8  17
BRANCH   1  25
ATOM     24  C   UNL     1      -3.514   2.181   1.280  0.00  0.00    +0.006 C 
ATOM     25  C   UNL     1      -2.571   1.705   0.174  0.00  0.00    +0.021 C 
ENDBRANCH   1  25
TORSDOF 3
