REMARK  Name = ZINC36853615
REMARK  3 active torsions:
REMARK  status: ('A' for Active; 'I' for Inactive)
REMARK    1  A    between atoms: C_1  and  C_2
REMARK    2  A    between atoms: C_5  and  N_9
REMARK    3  A    between atoms: N_9  and  C_10
REMARK                            x       y       z     vdW  Elec       q    Type
REMARK                         _______ _______ _______ _____ _____    ______ ____
ROOT
ATOM      1  N   UNL     1       0.057  -4.170  -0.021  0.00  0.00    -0.331 N 
ATOM      2  H   UNL     1       0.941  -4.123  -0.418  0.00  0.00    +0.147 HD
ENDROOT
BRANCH   1   7
ATOM      3  C   UNL     1      -4.321  -1.570  -2.522  0.00  0.00    +0.044 C 
ATOM      4  C   UNL     1      -3.158  -2.260  -1.858  0.00  0.00    -0.048 A 
ATOM      5  C   UNL     1      -2.638  -3.419  -2.406  0.00  0.00    +0.020 A 
ATOM      6  C   UNL     1      -1.572  -4.055  -1.800  0.00  0.00    +0.040 A 
ATOM      7  C   UNL     1      -1.021  -3.529  -0.638  0.00  0.00    +0.056 A 
ATOM      8  C   UNL     1      -1.545  -2.364  -0.090  0.00  0.00    +0.040 A 
ATOM      9  C   UNL     1      -2.608  -1.731  -0.705  0.00  0.00    +0.020 A 
ATOM     10 BR   UNL     1      -0.800  -1.644   1.492  0.00  0.00    -0.048 Br
ATOM     11 BR   UNL     1      -0.864  -5.639  -2.550  0.00  0.00    -0.048 Br
ENDBRANCH   1   7
BRANCH   1  12
ATOM     12  C   UNL     1      -0.147  -4.912   1.226  0.00  0.00    +0.166 C 
ATOM     13  C   UNL     1      -0.528  -6.376   0.929  0.00  0.00    +0.127 C 
ATOM     14  C   UNL     1       0.595  -7.170   1.560  0.00  0.00    +0.221 C 
ATOM     15  O   UNL     1       0.689  -8.378   1.558  0.00  0.00    -0.275 OA
ATOM     16  N   UNL     1       1.470  -6.325   2.121  0.00  0.00    -0.255 N 
ATOM     17  C   UNL     1       1.150  -5.028   1.995  0.00  0.00    +0.240 C 
ATOM     18  O   UNL     1       1.797  -4.097   2.426  0.00  0.00    -0.273 OA
ATOM     19  H   UNL     1       2.268  -6.626   2.583  0.00  0.00    +0.158 HD
ENDBRANCH   1  12
TORSDOF 2
