REMARK  Name = ZINC01728264
REMARK  5 active torsions:
REMARK  status: ('A' for Active; 'I' for Inactive)
REMARK    1  A    between atoms: N_10  and  C_11
REMARK    2  A    between atoms: C_14  and  C_22
REMARK    3  A    between atoms: C_16  and  O_21
REMARK    4  A    between atoms: C_18  and  O_20
REMARK    5  A    between atoms: C_22  and  O_23
REMARK                            x       y       z     vdW  Elec       q    Type
REMARK                         _______ _______ _______ _____ _____    ______ ____
ROOT
ATOM      1  C   UNL     1       4.018   3.284  -0.018  0.00  0.00    +0.122 C 
ATOM      2  C   UNL     1       4.900   3.576  -1.258  0.00  0.00    +0.036 C 
ATOM      3  C   UNL     1       5.738   4.797  -0.799  0.00  0.00    +0.048 C 
ATOM      4  C   UNL     1       6.042   4.513   0.686  0.00  0.00    +0.150 C 
ATOM      5  C   UNL     1       4.949   3.551   1.183  0.00  0.00    +0.166 C 
ENDROOT
BRANCH   1  15
ATOM      6  C   UNL     1      -0.016   1.316   0.009  0.00  0.00    +0.225 A 
ATOM      7  N   UNL     1       1.086   2.037   0.003  0.00  0.00    -0.216 NA
ATOM      8  C   UNL     1       2.275   1.449  -0.012  0.00  0.00    +0.165 A 
ATOM      9  C   UNL     1       2.341   0.041  -0.020  0.00  0.00    +0.145 A 
ATOM     10  C   UNL     1       1.142  -0.676  -0.013  0.00  0.00    +0.160 A 
ATOM     11  N   UNL     1       0.002  -0.004   0.002  0.00  0.00    -0.222 NA
ATOM     12 CL   UNL     1       1.148  -2.412  -0.021  0.00  0.00    -0.060 Cl
ATOM     13  N   UNL     1       3.654  -0.295  -0.035  0.00  0.00    -0.231 NA
ATOM     14  C   UNL     1       4.378   0.786  -0.036  0.00  0.00    +0.202 A 
ATOM     15  N   UNL     1       3.575   1.887  -0.022  0.00  0.00    -0.309 N 
ENDBRANCH   1  15
BRANCH   5  16
ATOM     16  O   UNL     1       5.537   2.328   1.629  0.00  0.00    -0.387 OA
ATOM     17  H   UNL     1       6.133   2.430   2.383  0.00  0.00    +0.210 HD
ENDBRANCH   5  16
BRANCH   4  18
ATOM     18  O   UNL     1       6.000   5.730   1.435  0.00  0.00    -0.389 OA
ATOM     19  H   UNL     1       6.163   5.615   2.381  0.00  0.00    +0.210 HD
ENDBRANCH   4  18
BRANCH   3  20
ATOM     20  C   UNL     1       7.037   4.892  -1.603  0.00  0.00    +0.162 C 
BRANCH  20  21
ATOM     21  O   UNL     1       7.773   6.042  -1.184  0.00  0.00    -0.395 OA
ATOM     22  H   UNL     1       8.610   6.166  -1.652  0.00  0.00    +0.209 HD
ENDBRANCH  20  21
ENDBRANCH   3  20
TORSDOF 5
