REMARK  Name = ZINC01201458
REMARK  9 active torsions:
REMARK  status: ('A' for Active; 'I' for Inactive)
REMARK    1  A    between atoms: C_1  and  C_2
REMARK    2  A    between atoms: C_3  and  C_19
REMARK    3  A    between atoms: C_4  and  C_10
REMARK    4  A    between atoms: C_13  and  O_18
REMARK    5  A    between atoms: C_14  and  O_16
REMARK    6  A    between atoms: O_16  and  C_17
REMARK    7  A    between atoms: N_21  and  C_22
REMARK    8  A    between atoms: C_27  and  O_28
REMARK    9  A    between atoms: O_28  and  C_29
REMARK                            x       y       z     vdW  Elec       q    Type
REMARK                         _______ _______ _______ _____ _____    ______ ____
ROOT
ATOM      1  C   UNL     1       8.089   1.827   0.608  0.00  0.00    +0.061 C 
ATOM      2  C   UNL     1       6.815   2.625   0.709  0.00  0.00    +0.017 C 
ATOM      3  C   UNL     1       5.803   2.373  -0.149  0.00  0.00    +0.056 C 
ATOM      4  C   UNL     1       4.540   3.199  -0.012  0.00  0.00    +0.139 C 
ATOM      5  N   UNL     1       4.520   4.216   1.053  0.00  0.00    -0.315 N 
ATOM      6  C   UNL     1       5.611   4.350   1.832  0.00  0.00    +0.135 C 
ATOM      7  S   UNL     1       5.602   5.529   3.074  0.00  0.00    -0.019 S 
ATOM      8  N   UNL     1       6.702   3.592   1.666  0.00  0.00    -0.300 N 
ATOM      9  H   UNL     1       3.740   4.776   1.190  0.00  0.00    +0.149 HD
ATOM     10  H   UNL     1       7.456   3.738   2.260  0.00  0.00    +0.154 HD
ENDROOT
BRANCH   4  11
ATOM     11  C   UNL     1       3.391   2.254   0.226  0.00  0.00    -0.019 A 
ATOM     12  C   UNL     1       3.240   1.648   1.460  0.00  0.00    +0.009 A 
ATOM     13  C   UNL     1       2.184   0.785   1.685  0.00  0.00    +0.049 A 
ATOM     14  C   UNL     1       1.280   0.516   0.670  0.00  0.00    +0.158 A 
ATOM     15  C   UNL     1       1.431   1.126  -0.571  0.00  0.00    +0.162 A 
ATOM     16  C   UNL     1       2.489   1.995  -0.789  0.00  0.00    +0.055 A 
BRANCH  15  17
ATOM     17  O   UNL     1       0.543   0.871  -1.569  0.00  0.00    -0.491 OA
ATOM     18  C   UNL     1       0.715   1.592  -2.791  0.00  0.00    +0.277 C 
ENDBRANCH  15  17
BRANCH  14  19
ATOM     19  O   UNL     1       0.244  -0.337   0.889  0.00  0.00    -0.503 OA
ATOM     20  H   UNL     1       0.444  -1.260   0.680  0.00  0.00    +0.292 HD
ENDBRANCH  14  19
ENDBRANCH   4  11
BRANCH   3  21
ATOM     21  C   UNL     1       5.919   1.371  -1.143  0.00  0.00    +0.248 C 
ATOM     22  O   UNL     1       6.188   1.679  -2.290  0.00  0.00    -0.270 OA
ATOM     23  N   UNL     1       5.730   0.076  -0.820  0.00  0.00    -0.279 N 
ATOM     24  H   UNL     1       5.435  -0.163   0.073  0.00  0.00    +0.155 HD
BRANCH  23  25
ATOM     25  C   UNL     1       5.959  -0.924  -1.772  0.00  0.00    +0.076 A 
ATOM     26  C   UNL     1       6.748  -0.660  -2.883  0.00  0.00    +0.027 A 
ATOM     27  C   UNL     1       6.978  -1.650  -3.819  0.00  0.00    +0.002 A 
ATOM     28  C   UNL     1       6.414  -2.903  -3.658  0.00  0.00    +0.004 A 
ATOM     29  C   UNL     1       5.622  -3.172  -2.557  0.00  0.00    +0.047 A 
ATOM     30  C   UNL     1       5.392  -2.186  -1.611  0.00  0.00    +0.141 A 
BRANCH  30  31
ATOM     31  O   UNL     1       4.613  -2.450  -0.528  0.00  0.00    -0.493 OA
ATOM     32  C   UNL     1       4.157  -3.795  -0.368  0.00  0.00    +0.277 C 
ENDBRANCH  30  31
ENDBRANCH  23  25
ENDBRANCH   3  21
TORSDOF 6
