REMARK  Name = ZINC39530485
REMARK  5 active torsions:
REMARK  status: ('A' for Active; 'I' for Inactive)
REMARK    1  A    between atoms: C_4  and  O_7
REMARK    2  A    between atoms: O_7  and  S_8
REMARK    3  A    between atoms: S_8  and  C_11
REMARK    4  A    between atoms: C_13  and  O_25
REMARK    5  A    between atoms: C_16  and  N_17
REMARK                            x       y       z     vdW  Elec       q    Type
REMARK                         _______ _______ _______ _____ _____    ______ ____
ROOT
ATOM      1  C   UNL     1       3.192  -2.273   2.002  0.00  0.00    +0.152 A 
ATOM      2  C   UNL     1       2.051  -2.014   2.737  0.00  0.00    +0.077 A 
ATOM      3  C   UNL     1       1.305  -3.062   3.253  0.00  0.00    +0.119 A 
ATOM      4  C   UNL     1       1.703  -4.373   3.032  0.00  0.00    +0.047 A 
ATOM      5  C   UNL     1       2.844  -4.634   2.298  0.00  0.00    +0.029 A 
ATOM      6  C   UNL     1       3.588  -3.585   1.776  0.00  0.00    +0.059 A 
ENDROOT
BRANCH   6   7
ATOM      7  N   UNL     1       4.741  -3.849   1.027  0.00  0.00    -0.329 N 
ATOM      8  C   UNL     1       6.054  -3.970   1.678  0.00  0.00    +0.086 C 
ATOM      9  C   UNL     1       6.715  -5.269   1.202  0.00  0.00    -0.060 C 
ATOM     10  N   UNL     1       6.762  -5.282  -0.266  0.00  0.00    +0.400 N 
ATOM     11  C   UNL     1       5.398  -5.309  -0.810  0.00  0.00    +0.119 C 
ATOM     12  C   UNL     1       4.672  -4.019  -0.432  0.00  0.00    +0.120 C 
ATOM     13  O   UNL     1       5.455  -5.426  -2.233  0.00  0.00    -0.250 OA
ATOM     14  H   UNL     1       7.237  -4.454  -0.594  0.00  0.00    -0.082 HD
ATOM     15  H   UNL     1       7.263  -6.100  -0.578  0.00  0.00    -0.082 HD
ENDBRANCH   6   7
BRANCH   1  16
ATOM     16  S   UNL     1       4.140  -0.941   1.346  0.00  0.00    +0.153 S 
ATOM     17  O   UNL     1       5.458  -1.436   1.154  0.00  0.00    -0.131 OA
ATOM     18  O   UNL     1       3.863   0.192   2.158  0.00  0.00    -0.131 OA
BRANCH  16  19
ATOM     19  O   UNL     1       3.586  -0.632  -0.037  0.00  0.00    -0.342 OA
BRANCH  19  23
ATOM     20  C   UNL     1      -0.017   1.378   0.010  0.00  0.00    +0.000 A 
ATOM     21  C   UNL     1       1.170   2.088   0.002  0.00  0.00    +0.004 A 
ATOM     22  C   UNL     1       2.377   1.417  -0.013  0.00  0.00    +0.048 A 
ATOM     23  C   UNL     1       2.399   0.030  -0.021  0.00  0.00    +0.157 A 
ATOM     24  C   UNL     1       1.207  -0.680  -0.013  0.00  0.00    +0.048 A 
ATOM     25  C   UNL     1       0.002  -0.004   0.002  0.00  0.00    +0.004 A 
ENDBRANCH  19  23
ENDBRANCH  16  19
ENDBRANCH   1  16
BRANCH   3  26
ATOM     26  O   UNL     1       0.182  -2.806   3.976  0.00  0.00    -0.507 OA
ATOM     27  H   UNL     1      -0.624  -2.753   3.445  0.00  0.00    +0.292 HD
ENDBRANCH   3  26
TORSDOF 5
