REMARK  Name = ZINC04108650
REMARK  8 active torsions:
REMARK  status: ('A' for Active; 'I' for Inactive)
REMARK    1  A    between atoms: C_1  and  O_2
REMARK    2  A    between atoms: O_2  and  C_3
REMARK    3  A    between atoms: C_5  and  C_11
REMARK    4  A    between atoms: C_8  and  O_9
REMARK    5  A    between atoms: N_12  and  N_13
REMARK    6  A    between atoms: C_14  and  C_16
REMARK    7  A    between atoms: C_16  and  N_17
REMARK    8  A    between atoms: N_17  and  C_18
REMARK                            x       y       z     vdW  Elec       q    Type
REMARK                         _______ _______ _______ _____ _____    ______ ____
ROOT
ATOM      1  N   UNL     1       7.492  -2.803   3.907  0.00  0.00    -0.206 N 
ATOM      2  C   UNL     1       6.867  -1.758   3.328  0.00  0.00    +0.249 C 
ATOM      3  O   UNL     1       7.435  -0.692   3.226  0.00  0.00    -0.272 OA
ATOM      4  H   UNL     1       7.038  -3.656   3.989  0.00  0.00    +0.177 HD
ENDROOT
BRANCH   1   6
ATOM      5  C   UNL     1       9.401  -3.661   4.948  0.00  0.00    +0.138 C 
ATOM      6  N   UNL     1       8.799  -2.656   4.391  0.00  0.00    -0.188 NA
BRANCH   5   9
ATOM      7  C   UNL     1      12.716  -4.438   6.533  0.00  0.00    +0.163 A 
ATOM      8  C   UNL     1      11.424  -4.587   6.063  0.00  0.00    +0.059 A 
ATOM      9  C   UNL     1      10.776  -3.507   5.457  0.00  0.00    -0.001 A 
ATOM     10  C   UNL     1      11.432  -2.279   5.340  0.00  0.00    +0.028 A 
ATOM     11  C   UNL     1      12.719  -2.137   5.818  0.00  0.00    +0.063 A 
ATOM     12  C   UNL     1      13.364  -3.211   6.414  0.00  0.00    +0.173 A 
ATOM     13 BR   UNL     1      13.606  -0.474   5.659  0.00  0.00    -0.046 Br
BRANCH   7  15
ATOM     14  C   UNL     1      12.627  -6.718   7.206  0.00  0.00    +0.277 C 
ATOM     15  O   UNL     1      13.351  -5.489   7.117  0.00  0.00    -0.491 OA
ENDBRANCH   7  15
BRANCH  12  16
ATOM     16  O   UNL     1      14.632  -3.066   6.883  0.00  0.00    -0.503 OA
ATOM     17  H   UNL     1      14.680  -2.779   7.805  0.00  0.00    +0.292 HD
ENDBRANCH  12  16
ENDBRANCH   5   9
ENDBRANCH   1   6
BRANCH   2  18
ATOM     18  C   UNL     1       5.461  -1.916   2.808  0.00  0.00    +0.199 C 
BRANCH  18  19
ATOM     19  N   UNL     1       5.009  -0.648   2.230  0.00  0.00    -0.335 N 
ATOM     20  H   UNL     1       5.599   0.122   2.229  0.00  0.00    +0.147 HD
BRANCH  19  21
ATOM     21  C   UNL     1       3.727  -0.548   1.679  0.00  0.00    +0.031 A 
ATOM     22  C   UNL     1       2.883  -1.651   1.680  0.00  0.00    +0.027 A 
ATOM     23  C   UNL     1       1.616  -1.553   1.137  0.00  0.00    +0.051 A 
ATOM     24  C   UNL     1       1.184  -0.356   0.590  0.00  0.00    +0.166 A 
ATOM     25  C   UNL     1       2.029   0.752   0.587  0.00  0.00    +0.168 A 
ATOM     26  C   UNL     1       3.299   0.653   1.131  0.00  0.00    +0.072 A 
ATOM     27  O   UNL     1       1.376   1.797  -0.001  0.00  0.00    -0.453 OA
ATOM     28  C   UNL     1      -0.017   1.436   0.010  0.00  0.00    +0.466 C 
ATOM     29  O   UNL     1       0.002  -0.004   0.002  0.00  0.00    -0.453 OA
ENDBRANCH  19  21
ENDBRANCH  18  19
ENDBRANCH   2  18
TORSDOF 7
