REMARK  Name = ZINC65035152
REMARK  7 active torsions:
REMARK  status: ('A' for Active; 'I' for Inactive)
REMARK    1  A    between atoms: C_1  and  C_2
REMARK    2  A    between atoms: C_6  and  C_29
REMARK    3  A    between atoms: C_7  and  N_8
REMARK    4  A    between atoms: N_8  and  S_9
REMARK    5  A    between atoms: S_9  and  C_12
REMARK    6  A    between atoms: C_15  and  C_17
REMARK    7  A    between atoms: C_20  and  C_22
REMARK                            x       y       z     vdW  Elec       q    Type
REMARK                         _______ _______ _______ _____ _____    ______ ____
ROOT
ATOM      1  C   UNL     1      -0.483   0.227   5.095  0.00  0.00    +0.112 C 
ATOM      2  C   UNL     1       0.400   0.726   5.961  0.00  0.00    +0.136 C 
ATOM      3  N   UNL     1      -0.149   1.611   6.803  0.00  0.00    -0.253 NA
ATOM      4  C   UNL     1      -1.423   1.798   6.601  0.00  0.00    +0.110 C 
ATOM      5  C   UNL     1      -1.799   0.903   5.435  0.00  0.00    +0.119 C 
ENDROOT
BRANCH   4   6
ATOM      6  C   UNL     1      -2.312   2.694   7.346  0.00  0.00    +0.263 A 
ATOM      7  N   UNL     1      -3.604   2.869   7.134  0.00  0.00    -0.106 NA
ATOM      8  N   UNL     1      -4.060   3.728   7.976  0.00  0.00    -0.102 NA
ATOM      9  C   UNL     1      -3.082   4.136   8.756  0.00  0.00    +0.304 A 
ATOM     10  O   UNL     1      -1.962   3.487   8.377  0.00  0.00    -0.411 OA
BRANCH   9  11
ATOM     11  C   UNL     1      -3.191   5.119   9.850  0.00  0.00    +0.303 C 
ATOM     12  O   UNL     1      -2.209   5.415  10.502  0.00  0.00    -0.265 OA
ATOM     13  N   UNL     1      -4.381   5.690  10.126  0.00  0.00    -0.294 N 
ATOM     14  C   UNL     1      -5.644   5.420   9.425  0.00  0.00    +0.108 C 
ATOM     15  C   UNL     1      -6.724   6.317  10.065  0.00  0.00    +0.020 C 
ATOM     16  C   UNL     1      -5.892   7.454  10.715  0.00  0.00    +0.020 C 
ATOM     17  C   UNL     1      -4.631   6.683  11.187  0.00  0.00    +0.108 C 
ENDBRANCH   9  11
ENDBRANCH   4   6
BRANCH   1  18
ATOM     18  S   UNL     1      -0.186  -0.957   3.824  0.00  0.00    +0.090 S 
ATOM     19  O   UNL     1      -1.320  -1.811   3.791  0.00  0.00    -0.149 OA
ATOM     20  O   UNL     1       1.132  -1.448   4.027  0.00  0.00    -0.149 OA
BRANCH  18  21
ATOM     21  N   UNL     1      -0.169  -0.137   2.385  0.00  0.00    -0.098 NA
BRANCH  21  28
ATOM     22  C   UNL     1       2.250   0.334   0.964  0.00  0.00    +0.046 C 
ATOM     23  C   UNL     1       1.205  -0.629   0.463  0.00  0.00    -0.026 A 
ATOM     24  C   UNL     1       1.408  -1.318  -0.716  0.00  0.00    +0.005 A 
ATOM     25  C   UNL     1       0.449  -2.202  -1.177  0.00  0.00    +0.001 A 
ATOM     26  C   UNL     1      -0.716  -2.399  -0.458  0.00  0.00    +0.005 A 
ATOM     27  C   UNL     1      -0.926  -1.713   0.722  0.00  0.00    -0.026 A 
ATOM     28  C   UNL     1       0.038  -0.828   1.190  0.00  0.00    +0.080 A 
ATOM     29  C   UNL     1      -2.196  -1.927   1.504  0.00  0.00    +0.046 C 
ENDBRANCH  21  28
ENDBRANCH  18  21
ENDBRANCH   1  18
TORSDOF 5
