REMARK  Name = ZINC49221201
REMARK  7 active torsions:
REMARK  status: ('A' for Active; 'I' for Inactive)
REMARK    1  A    between atoms: C_1  and  C_2
REMARK    2  A    between atoms: C_2  and  C_3
REMARK    3  A    between atoms: C_3  and  C_4
REMARK    4  A    between atoms: C_4  and  C_6
REMARK    5  A    between atoms: C_4  and  N_17
REMARK    6  A    between atoms: N_8  and  C_9
REMARK    7  A    between atoms: C_9  and  C_16
REMARK                            x       y       z     vdW  Elec       q    Type
REMARK                         _______ _______ _______ _____ _____    ______ ____
ROOT
ATOM      1  C   UNL     1       1.550  -2.512  -2.439  0.00  0.00    +0.234 C 
ATOM      2  O   UNL     1       0.991  -2.888  -3.448  0.00  0.00    -0.274 OA
ATOM      3  N   UNL     1       2.895  -2.528  -2.369  0.00  0.00    -0.307 N 
ATOM      4  H   UNL     1       3.342  -2.227  -1.562  0.00  0.00    +0.149 HD
ENDROOT
BRANCH   3   5
ATOM      5  C   UNL     1       3.683  -2.999  -3.510  0.00  0.00    +0.053 C 
ATOM      6  C   UNL     1       3.229  -4.414  -3.868  0.00  0.00    +0.049 C 
ATOM      7  C   UNL     1       4.397  -5.206  -4.519  0.00  0.00    +0.168 C 
ATOM      8  S   UNL     1       5.795  -4.612  -3.469  0.00  0.00    -0.029 S 
ATOM      9  O   UNL     1       6.976  -4.543  -4.257  0.00  0.00    -0.174 OA
ATOM     10  O   UNL     1       5.806  -5.341  -2.249  0.00  0.00    -0.174 OA
ATOM     11  C   UNL     1       5.179  -2.907  -3.150  0.00  0.00    +0.191 C 
ATOM     12  C   UNL     1       3.409  -2.084  -4.705  0.00  0.00    +0.033 C 
ENDBRANCH   3   5
BRANCH   1  13
ATOM     13  C   UNL     1       0.739  -2.027  -1.265  0.00  0.00    +0.160 C 
BRANCH  13  14
ATOM     14  N   UNL     1      -0.631  -2.534  -1.375  0.00  0.00    -0.288 N 
ATOM     15  C   UNL     1      -1.385  -2.212  -2.446  0.00  0.00    +0.298 C 
ATOM     16  O   UNL     1      -0.927  -1.502  -3.320  0.00  0.00    -0.253 OA
ATOM     17  N   UNL     1      -2.645  -2.678  -2.547  0.00  0.00    -0.313 N 
ATOM     18  H   UNL     1      -0.997  -3.100  -0.678  0.00  0.00    +0.151 HD
ATOM     19  H   UNL     1      -3.010  -3.245  -1.849  0.00  0.00    +0.146 HD
ATOM     20  H   UNL     1      -3.187  -2.447  -3.317  0.00  0.00    +0.146 HD
ENDBRANCH  13  14
BRANCH  13  21
ATOM     21  C   UNL     1       0.718  -0.497  -1.257  0.00  0.00    +0.031 C 
BRANCH  21  23
ATOM     22  C   UNL     1      -0.019   1.526   0.010  0.00  0.00    +0.004 C 
ATOM     23  C   UNL     1       0.002  -0.004   0.002  0.00  0.00    -0.001 C 
ENDBRANCH  21  23
ENDBRANCH  13  21
ENDBRANCH   1  13
TORSDOF 5
