REMARK  Name = ZINC04282843
REMARK  7 active torsions:
REMARK  status: ('A' for Active; 'I' for Inactive)
REMARK    1  A    between atoms: C_4  and  N_7
REMARK    2  A    between atoms: C_8  and  C_10
REMARK    3  A    between atoms: C_15  and  N_16
REMARK    4  A    between atoms: C_17  and  C_19
REMARK    5  A    between atoms: N_21  and  N_22
REMARK    6  A    between atoms: C_23  and  C_24
REMARK    7  A    between atoms: C_29  and  O_30
REMARK                            x       y       z     vdW  Elec       q    Type
REMARK                         _______ _______ _______ _____ _____    ______ ____
ROOT
ATOM      1  N   UNL     1       7.267   1.410  -0.171  0.00  0.00    -0.277 N 
ATOM      2  C   UNL     1       8.297   2.125  -0.664  0.00  0.00    +0.305 C 
ATOM      3  O   UNL     1       9.180   1.570  -1.286  0.00  0.00    -0.265 OA
ATOM      4  H   UNL     1       6.524   1.862   0.258  0.00  0.00    +0.155 HD
ENDROOT
BRANCH   1  10
ATOM      5  C   UNL     1       6.058  -0.684  -0.320  0.00  0.00    +0.058 A 
ATOM      6  C   UNL     1       6.075  -2.077  -0.420  0.00  0.00    +0.015 A 
ATOM      7  C   UNL     1       7.277  -2.747  -0.486  0.00  0.00    +0.001 A 
ATOM      8  C   UNL     1       8.472  -2.046  -0.444  0.00  0.00    +0.002 A 
ATOM      9  C   UNL     1       8.472  -0.670  -0.340  0.00  0.00    +0.024 A 
ATOM     10  C   UNL     1       7.270   0.023  -0.277  0.00  0.00    +0.046 A 
BRANCH   5  12
ATOM     11  N   UNL     1       3.618  -0.646  -0.169  0.00  0.00    -0.281 N 
ATOM     12  C   UNL     1       4.775   0.040  -0.253  0.00  0.00    +0.250 C 
ATOM     13  O   UNL     1       4.761   1.256  -0.274  0.00  0.00    -0.270 OA
ATOM     14  H   UNL     1       3.632  -1.611  -0.077  0.00  0.00    +0.155 HD
BRANCH  11  18
ATOM     15  C   UNL     1      -0.020   1.379  -0.309  0.00  0.00    +0.000 A 
ATOM     16  C   UNL     1       1.061   1.852  -1.030  0.00  0.00    +0.002 A 
ATOM     17  C   UNL     1       2.269   1.183  -0.986  0.00  0.00    +0.023 A 
ATOM     18  C   UNL     1       2.397   0.034  -0.216  0.00  0.00    +0.034 A 
ATOM     19  C   UNL     1       1.309  -0.439   0.507  0.00  0.00    +0.023 A 
ATOM     20  C   UNL     1       0.104   0.235   0.458  0.00  0.00    +0.002 A 
ENDBRANCH  11  18
ENDBRANCH   5  12
ENDBRANCH   1  10
BRANCH   2  21
ATOM     21  C   UNL     1       8.354   3.599  -0.446  0.00  0.00    +0.318 C 
ATOM     22  O   UNL     1       7.471   4.155   0.176  0.00  0.00    -0.263 OA
ATOM     23  N   UNL     1       9.384   4.315  -0.939  0.00  0.00    -0.199 N 
ATOM     24  H   UNL     1      10.089   3.871  -1.436  0.00  0.00    +0.178 HD
BRANCH  23  25
ATOM     25  N   UNL     1       9.437   5.699  -0.734  0.00  0.00    -0.187 NA
ATOM     26  C   UNL     1      10.430   6.389  -1.210  0.00  0.00    +0.142 C 
BRANCH  26  27
ATOM     27  C   UNL     1      10.485   7.845  -0.994  0.00  0.00    +0.037 A 
ATOM     28  C   UNL     1      11.552   8.591  -1.504  0.00  0.00    +0.028 A 
ATOM     29  C   UNL     1      11.597   9.954  -1.298  0.00  0.00    +0.019 A 
ATOM     30  C   UNL     1      10.590  10.587  -0.588  0.00  0.00    +0.019 A 
ATOM     31  C   UNL     1       9.530   9.861  -0.079  0.00  0.00    +0.047 A 
ATOM     32  C   UNL     1       9.466   8.492  -0.281  0.00  0.00    +0.126 A 
ATOM     33 BR   UNL     1      13.040  10.963  -1.988  0.00  0.00    -0.050 Br
BRANCH  32  34
ATOM     34  O   UNL     1       8.421   7.778   0.213  0.00  0.00    -0.506 OA
ATOM     35  H   UNL     1       8.564   7.443   1.109  0.00  0.00    +0.292 HD
ENDBRANCH  32  34
ENDBRANCH  26  27
ENDBRANCH  23  25
ENDBRANCH   2  21
TORSDOF 7
