REMARK  Name = ZINC63119350
REMARK  6 active torsions:
REMARK  status: ('A' for Active; 'I' for Inactive)
REMARK    1  A    between atoms: C_1  and  C_2
REMARK    2  A    between atoms: C_2  and  C_3
REMARK    3  A    between atoms: C_7  and  S_15
REMARK    4  A    between atoms: C_12  and  N_13
REMARK    5  A    between atoms: N_13  and  N_14
REMARK    6  A    between atoms: S_15  and  C_18
REMARK                            x       y       z     vdW  Elec       q    Type
REMARK                         _______ _______ _______ _____ _____    ______ ____
ROOT
ATOM      1  C   UNL     1       0.707  -0.490  -1.238  0.00  0.00    -0.006 A 
ATOM      2  C   UNL     1      -0.011  -0.813  -2.350  0.00  0.00    +0.017 A 
ATOM      3  C   UNL     1       0.687  -1.263  -3.489  0.00  0.00    +0.003 A 
ATOM      4  C   UNL     1       0.009  -1.611  -4.667  0.00  0.00    +0.037 A 
ATOM      5  C   UNL     1       0.717  -2.042  -5.749  0.00  0.00    +0.089 A 
ATOM      6  C   UNL     1       2.105  -2.142  -5.700  0.00  0.00    +0.029 A 
ATOM      7  C   UNL     1       2.794  -1.812  -4.573  0.00  0.00    +0.030 A 
ATOM      8  C   UNL     1       2.099  -1.363  -3.438  0.00  0.00    +0.073 A 
ATOM      9  N   UNL     1       2.751  -1.032  -2.317  0.00  0.00    -0.231 NA
ATOM     10  C   UNL     1       2.105  -0.605  -1.251  0.00  0.00    +0.136 A 
ENDROOT
BRANCH   5  11
ATOM     11  S   UNL     1      -0.136  -2.479  -7.228  0.00  0.00    -0.006 S 
ATOM     12  O   UNL     1       0.718  -3.413  -7.876  0.00  0.00    -0.170 OA
ATOM     13  O   UNL     1      -1.435  -2.863  -6.798  0.00  0.00    -0.170 OA
ATOM     14  C   UNL     1      -0.223  -0.942  -8.187  0.00  0.00    +0.200 C 
ENDBRANCH   5  11
BRANCH   1  16
ATOM     15  C   UNL     1      -0.019   1.526   0.010  0.00  0.00    +0.009 C 
ATOM     16  C   UNL     1       0.002  -0.004   0.002  0.00  0.00    +0.035 C 
ENDBRANCH   1  16
BRANCH  10  17
ATOM     17  N   UNL     1       2.823  -0.268  -0.114  0.00  0.00    -0.267 N 
ATOM     18  H   UNL     1       2.358   0.044   0.678  0.00  0.00    +0.167 HD
BRANCH  17  19
ATOM     19  N   UNL     1       4.185  -0.374  -0.110  0.00  0.00    -0.255 NA
ATOM     20  H   UNL     1       4.592   0.162  -0.861  0.00  0.00    +0.140 HD
ATOM     21  H   UNL     1       4.567  -0.095   0.781  0.00  0.00    +0.140 HD
ENDBRANCH  17  19
ENDBRANCH  10  17
TORSDOF 4
