REMARK  Name = ZINC19839225
REMARK  3 active torsions:
REMARK  status: ('A' for Active; 'I' for Inactive)
REMARK    1  A    between atoms: C_3  and  C_9
REMARK    2  A    between atoms: C_4  and  O_8
REMARK    3  A    between atoms: C_15  and  C_18
REMARK                            x       y       z     vdW  Elec       q    Type
REMARK                         _______ _______ _______ _____ _____    ______ ____
ROOT
ATOM      1  C   UNL     1       1.249  -2.159  -0.021  0.00  0.00    +0.250 C 
ATOM      2  O   UNL     1       2.306  -2.747  -0.141  0.00  0.00    -0.270 OA
ATOM      3  N   UNL     1       0.100  -2.854   0.088  0.00  0.00    -0.297 N 
ATOM      4  C   UNL     1      -1.196  -2.161   0.106  0.00  0.00    +0.108 C 
ATOM      5  C   UNL     1      -2.095  -2.768  -0.976  0.00  0.00    +0.020 C 
ATOM      6  C   UNL     1      -2.188  -4.281  -0.767  0.00  0.00    +0.016 C 
ATOM      7  C   UNL     1      -0.795  -4.902  -0.892  0.00  0.00    +0.092 C 
ATOM      8  C   UNL     1       0.118  -4.320   0.186  0.00  0.00    +0.120 C 
ENDROOT
BRANCH   1  11
ATOM      9  C   UNL     1       0.586   1.367   1.079  0.00  0.00    +0.021 A 
ATOM     10  C   UNL     1       0.605  -0.011   1.060  0.00  0.00    +0.018 A 
ATOM     11  C   UNL     1       1.224  -0.684   0.004  0.00  0.00    +0.078 A 
ATOM     12  C   UNL     1       1.822   0.048  -1.031  0.00  0.00    +0.130 A 
ATOM     13  C   UNL     1       1.793   1.434  -0.997  0.00  0.00    +0.066 A 
ATOM     14  C   UNL     1       1.177   2.088   0.053  0.00  0.00    +0.044 A 
ATOM     15 CL   UNL     1       1.145   3.824   0.089  0.00  0.00    -0.083 Cl
BRANCH  12  16
ATOM     16  O   UNL     1       2.426  -0.596  -2.061  0.00  0.00    -0.506 OA
ATOM     17  H   UNL     1       2.894  -0.018  -2.872  0.00  0.00    +0.292 HD
ENDBRANCH  12  16
ENDBRANCH   1  11
BRANCH   7  18
ATOM     18  C   UNL     1      -0.893  -6.396  -0.717  0.00  0.00    +0.215 C 
ATOM     19  O   UNL     1      -1.971  -6.913  -0.514  0.00  0.00    -0.276 OA
ATOM     20  N   UNL     1       0.217  -7.157  -0.788  0.00  0.00    -0.329 N 
ATOM     21  H   UNL     1       0.145  -8.247  -0.661  0.00  0.00    +0.145 HD
ATOM     22  H   UNL     1       1.195  -6.688  -0.973  0.00  0.00    +0.145 HD
ENDBRANCH   7  18
TORSDOF 3
