REMARK  Name = ZINC50866940
REMARK  4 active torsions:
REMARK  status: ('A' for Active; 'I' for Inactive)
REMARK    1  A    between atoms: C_1  and  C_2
REMARK    2  A    between atoms: C_2  and  C_3
REMARK    3  A    between atoms: C_5  and  N_16
REMARK    4  A    between atoms: C_7  and  C_9
REMARK                            x       y       z     vdW  Elec       q    Type
REMARK                         _______ _______ _______ _____ _____    ______ ____
ROOT
ATOM      1  C   UNL     1      -1.412  -0.526   0.013  0.00  0.00    +0.047 A 
ATOM      2  C   UNL     1      -1.838  -1.409  -0.962  0.00  0.00    +0.066 A 
ATOM      3  C   UNL     1      -3.156  -1.869  -0.916  0.00  0.00    +0.120 A 
ATOM      4  N   UNL     1      -3.954  -1.446   0.057  0.00  0.00    -0.210 NA
ATOM      5  C   UNL     1      -3.507  -0.597   0.976  0.00  0.00    +0.198 A 
ATOM      6  N   UNL     1      -2.257  -0.147   0.959  0.00  0.00    -0.230 NA
ENDROOT
BRANCH   5   7
ATOM      7  C   UNL     1      -4.419  -0.146   2.044  0.00  0.00    +0.174 A 
ATOM      8  C   UNL     1      -5.717  -0.525   2.198  0.00  0.00    +0.069 A 
ATOM      9  C   UNL     1      -6.202   0.143   3.339  0.00  0.00    +0.071 A 
ATOM     10  C   UNL     1      -5.186   0.890   3.821  0.00  0.00    +0.185 A 
ATOM     11  O   UNL     1      -4.110   0.709   3.040  0.00  0.00    -0.444 OA
ATOM     12 BR   UNL     1      -5.264   2.003   5.348  0.00  0.00    -0.007 Br
ATOM     13 BR   UNL     1      -7.946   0.018   4.058  0.00  0.00    -0.046 Br
ENDBRANCH   5   7
BRANCH   3  14
ATOM     14  N   UNL     1      -3.625  -2.755  -1.874  0.00  0.00    -0.343 N 
ATOM     15  H   UNL     1      -3.036  -3.059  -2.582  0.00  0.00    +0.144 HD
ATOM     16  H   UNL     1      -4.541  -3.070  -1.835  0.00  0.00    +0.144 HD
ENDBRANCH   3  14
BRANCH   1  18
ATOM     17  C   UNL     1      -0.019   1.526   0.010  0.00  0.00    +0.010 C 
ATOM     18  C   UNL     1       0.002  -0.004   0.002  0.00  0.00    +0.052 C 
ENDBRANCH   1  18
TORSDOF 3
