REMARK  Name = ZINC43461151
REMARK  5 active torsions:
REMARK  status: ('A' for Active; 'I' for Inactive)
REMARK    1  A    between atoms: C_3  and  C_18
REMARK    2  A    between atoms: C_5  and  C_7
REMARK    3  A    between atoms: C_7  and  N_8
REMARK    4  A    between atoms: C_16  and  N_17
REMARK    5  A    between atoms: C_18  and  N_19
REMARK                            x       y       z     vdW  Elec       q    Type
REMARK                         _______ _______ _______ _____ _____    ______ ____
ROOT
ATOM      1  C   UNL     1       1.229  -2.186  -0.020  0.00  0.00    +0.159 C 
ENDROOT
BRANCH   1   2
ATOM      2  N   UNL     1       1.250  -2.682   1.358  0.00  0.00    -0.310 N 
ATOM      3  C   UNL     1       2.358  -3.025   2.075  0.00  0.00    +0.202 A 
ATOM      4  N   UNL     1       2.011  -3.424   3.264  0.00  0.00    -0.231 NA
ATOM      5  C   UNL     1       0.664  -3.363   3.386  0.00  0.00    +0.147 A 
ATOM      6  C   UNL     1       0.159  -2.881   2.166  0.00  0.00    +0.166 A 
ATOM      7  N   UNL     1      -1.153  -2.723   2.027  0.00  0.00    -0.216 NA
ATOM      8  C   UNL     1      -1.972  -3.010   3.017  0.00  0.00    +0.225 A 
ATOM      9  N   UNL     1      -1.545  -3.462   4.181  0.00  0.00    -0.219 NA
ATOM     10  C   UNL     1      -0.251  -3.660   4.410  0.00  0.00    +0.147 A 
BRANCH  10  11
ATOM     11  N   UNL     1       0.187  -4.134   5.635  0.00  0.00    -0.341 N 
ATOM     12  H   UNL     1       1.135  -4.264   5.793  0.00  0.00    +0.144 HD
ATOM     13  H   UNL     1      -0.454  -4.335   6.334  0.00  0.00    +0.144 HD
ENDBRANCH  10  11
ENDBRANCH   1   2
BRANCH   1  18
ATOM     14  C   UNL     1      -0.017   1.378   0.010  0.00  0.00    +0.001 A 
ATOM     15  C   UNL     1       1.171   2.085   0.002  0.00  0.00    +0.002 A 
ATOM     16  C   UNL     1       2.377   1.411  -0.013  0.00  0.00    -0.065 A 
ATOM     17  C   UNL     1       2.396   0.028  -0.020  0.00  0.00    +0.007 A 
ATOM     18  C   UNL     1       1.209  -0.679  -0.012  0.00  0.00    -0.027 A 
ATOM     19  C   UNL     1       0.002  -0.004   0.002  0.00  0.00    +0.005 A 
BRANCH  16  20
ATOM     20  C   UNL     1       3.672   2.182  -0.022  0.00  0.00    -0.051 C 
BRANCH  20  21
ATOM     21  N   UNL     1       4.106   2.426   1.360  0.00  0.00    +0.381 N 
ATOM     22  H   UNL     1       3.401   2.959   1.845  0.00  0.00    -0.090 HD
ATOM     23  H   UNL     1       4.244   1.544   1.830  0.00  0.00    -0.090 HD
ATOM     24  H   UNL     1       4.973   2.942   1.353  0.00  0.00    -0.090 HD
ENDBRANCH  20  21
ENDBRANCH  16  20
ENDBRANCH   1  18
TORSDOF 5
