REMARK  Name = ZINC17109394
REMARK  5 active torsions:
REMARK  status: ('A' for Active; 'I' for Inactive)
REMARK    1  A    between atoms: C_1  and  C_2
REMARK    2  A    between atoms: C_4  and  C_9
REMARK    3  A    between atoms: C_4  and  C_10
REMARK    4  A    between atoms: C_10  and  C_18
REMARK    5  A    between atoms: C_12  and  C_17
REMARK                            x       y       z     vdW  Elec       q    Type
REMARK                         _______ _______ _______ _____ _____    ______ ____
ROOT
ATOM      1  C   UNL     1      -3.345  -1.776   0.607  0.00  0.00    +0.060 C 
ATOM      2  C   UNL     1      -1.930  -1.278   0.754  0.00  0.00    +0.007 C 
ATOM      3  C   UNL     1      -1.422  -0.488  -0.175  0.00  0.00    +0.019 C 
ATOM      4  C   UNL     1       0.002  -0.004   0.002  0.00  0.00    +0.078 C 
ATOM      5  N   UNL     1       0.720  -0.454   1.206  0.00  0.00    -0.288 N 
ATOM      6  C   UNL     1       0.075  -1.262   2.072  0.00  0.00    +0.304 C 
ATOM      7  O   UNL     1       0.655  -1.641   3.071  0.00  0.00    -0.252 OA
ATOM      8  N   UNL     1      -1.188  -1.657   1.861  0.00  0.00    -0.274 N 
ATOM      9  C   UNL     1      -0.019   1.526   0.010  0.00  0.00    +0.039 C 
ATOM     10  H   UNL     1       1.757  -0.130   1.381  0.00  0.00    +0.151 HD
ATOM     11  H   UNL     1      -1.632  -2.315   2.622  0.00  0.00    +0.156 HD
ENDROOT
BRANCH   4  12
ATOM     12  C   UNL     1       0.806  -0.453  -1.220  0.00  0.00    +0.078 C 
ATOM     13  C   UNL     1       2.230   0.032  -1.044  0.00  0.00    +0.019 C 
ATOM     14  C   UNL     1       2.738   0.821  -1.973  0.00  0.00    +0.007 C 
ATOM     15  N   UNL     1       1.995   1.200  -3.080  0.00  0.00    -0.274 N 
ATOM     16  C   UNL     1       0.732   0.804  -3.291  0.00  0.00    +0.304 C 
ATOM     17  O   UNL     1       0.152   1.183  -4.290  0.00  0.00    -0.252 OA
ATOM     18  N   UNL     1       0.088  -0.003  -2.424  0.00  0.00    -0.288 N 
ATOM     19  C   UNL     1       4.152   1.320  -1.827  0.00  0.00    +0.060 C 
ATOM     20  C   UNL     1       0.827  -1.982  -1.228  0.00  0.00    +0.039 C 
ATOM     21  H   UNL     1       2.438   1.858  -3.841  0.00  0.00    +0.156 HD
ATOM     22  H   UNL     1      -0.949  -0.326  -2.599  0.00  0.00    +0.151 HD
ENDBRANCH   4  12
TORSDOF 1
