REMARK  Name = ZINC30514062
REMARK  8 active torsions:
REMARK  status: ('A' for Active; 'I' for Inactive)
REMARK    1  A    between atoms: C_1  and  C_2
REMARK    2  A    between atoms: C_7  and  N_8
REMARK    3  A    between atoms: C_9  and  C_11
REMARK    4  A    between atoms: C_11  and  C_13
REMARK    5  A    between atoms: C_11  and  N_14
REMARK    6  A    between atoms: N_14  and  C_15
REMARK    7  A    between atoms: C_15  and  C_16
REMARK    8  A    between atoms: C_16  and  N_21
REMARK                            x       y       z     vdW  Elec       q    Type
REMARK                         _______ _______ _______ _____ _____    ______ ____
ROOT
ATOM      1  N   UNL     1      -0.154  -1.086   5.947  0.00  0.00    +0.388 N 
ATOM      2  H   UNL     1      -1.190  -1.435   6.067  0.00  0.00    -0.085 HD
ATOM      3  H   UNL     1       0.510  -1.950   5.800  0.00  0.00    -0.085 HD
ENDROOT
BRANCH   1   4
ATOM      4  C   UNL     1      -0.069  -0.199   4.779  0.00  0.00    +0.013 C 
ATOM      5  C   UNL     1      -1.359   0.614   4.661  0.00  0.00    -0.004 C 
BRANCH   4   7
ATOM      6  N   UNL     1       0.224  -0.422   2.333  0.00  0.00    -0.287 N 
ATOM      7  C   UNL     1       0.119  -1.026   3.533  0.00  0.00    +0.203 C 
ATOM      8  O   UNL     1       0.177  -2.235   3.611  0.00  0.00    -0.277 OA
ATOM      9  H   UNL     1       0.253   0.676   2.270  0.00  0.00    +0.155 HD
BRANCH   6  16
ATOM     10  C   UNL     1      -0.981   0.607  -0.032  0.00  0.00    +0.045 C 
ATOM     11  C   UNL     1      -0.280  -0.727  -0.010  0.00  0.00    -0.029 A 
ATOM     12  C   UNL     1      -0.213  -1.492  -1.158  0.00  0.00    +0.005 A 
ATOM     13  C   UNL     1       0.435  -2.714  -1.140  0.00  0.00    +0.000 A 
ATOM     14  C   UNL     1       1.008  -3.178   0.029  0.00  0.00    +0.002 A 
ATOM     15  C   UNL     1       0.940  -2.421   1.182  0.00  0.00    +0.023 A 
ATOM     16  C   UNL     1       0.295  -1.191   1.166  0.00  0.00    +0.036 A 
ENDBRANCH   6  16
ENDBRANCH   4   7
ENDBRANCH   1   4
BRANCH   1  17
ATOM     17  C   UNL     1       0.251  -0.383   7.172  0.00  0.00    -0.059 C 
BRANCH  17  18
ATOM     18  C   UNL     1       0.259  -1.366   8.344  0.00  0.00    +0.007 C 
ATOM     19  C   UNL     1       0.782  -0.666   9.616  0.00  0.00    +0.020 C 
ATOM     20  C   UNL     1       1.615  -1.757  10.334  0.00  0.00    +0.002 C 
ATOM     21  C   UNL     1       2.302  -2.493   9.157  0.00  0.00    +0.002 C 
ATOM     22  C   UNL     1       1.226  -2.527   8.052  0.00  0.00    +0.020 C 
BRANCH  18  23
ATOM     23  N   UNL     1      -1.096  -1.884   8.575  0.00  0.00    -0.297 NA
ATOM     24  C   UNL     1      -1.530  -2.731   7.461  0.00  0.00    +0.095 C 
ATOM     25  C   UNL     1      -2.704  -3.611   7.905  0.00  0.00    +0.084 C 
ATOM     26  S   UNL     1      -4.084  -2.526   8.386  0.00  0.00    -0.158 S 
ATOM     27  C   UNL     1      -3.292  -1.354   9.530  0.00  0.00    +0.084 C 
ATOM     28  C   UNL     1      -2.034  -0.795   8.855  0.00  0.00    +0.095 C 
ENDBRANCH  18  23
ENDBRANCH  17  18
ENDBRANCH   1  17
TORSDOF 6
