REMARK  Name = ZINC40334486
REMARK  5 active torsions:
REMARK  status: ('A' for Active; 'I' for Inactive)
REMARK    1  A    between atoms: C_1  and  C_2
REMARK    2  A    between atoms: C_6  and  C_21
REMARK    3  A    between atoms: N_9  and  S_10
REMARK    4  A    between atoms: S_10  and  C_13
REMARK    5  A    between atoms: C_18  and  N_19
REMARK                            x       y       z     vdW  Elec       q    Type
REMARK                         _______ _______ _______ _____ _____    ______ ____
ROOT
ATOM      1  S   UNL     1       1.411   0.697   2.304  0.00  0.00    +0.063 S 
ATOM      2  O   UNL     1       2.831   0.729   2.343  0.00  0.00    -0.153 OA
ATOM      3  O   UNL     1       0.630   1.859   2.062  0.00  0.00    -0.153 OA
ENDROOT
BRANCH   1  10
ATOM      4  C   UNL     1      -0.273   1.446   0.157  0.00  0.00    +0.026 C 
ATOM      5  C   UNL     1       0.052  -0.046   0.072  0.00  0.00    +0.077 C 
ATOM      6  C   UNL     1       0.699  -0.355  -1.282  0.00  0.00    +0.021 C 
ATOM      7  C   UNL     1       1.148  -1.818  -1.306  0.00  0.00    +0.015 C 
ATOM      8  C   UNL     1       2.190  -2.051  -0.209  0.00  0.00    +0.090 C 
ATOM      9  C   UNL     1       1.560  -1.762   1.157  0.00  0.00    +0.122 C 
ATOM     10  N   UNL     1       0.994  -0.406   1.142  0.00  0.00    -0.173 NA
BRANCH   8  11
ATOM     11  C   UNL     1       3.365  -1.133  -0.428  0.00  0.00    +0.215 C 
ATOM     12  O   UNL     1       3.672  -0.328   0.425  0.00  0.00    -0.276 OA
ATOM     13  N   UNL     1       4.074  -1.207  -1.571  0.00  0.00    -0.329 N 
ATOM     14  H   UNL     1       3.828  -1.852  -2.254  0.00  0.00    +0.145 HD
ATOM     15  H   UNL     1       4.830  -0.616  -1.712  0.00  0.00    +0.145 HD
ENDBRANCH   8  11
ENDBRANCH   1  10
BRANCH   1  16
ATOM     16  C   UNL     1       0.879   0.047   3.854  0.00  0.00    +0.127 A 
ATOM     17  C   UNL     1       1.809  -0.288   4.818  0.00  0.00    +0.045 A 
ATOM     18  C   UNL     1       1.393  -0.799   6.035  0.00  0.00    +0.020 A 
ATOM     19  C   UNL     1       0.044  -0.975   6.289  0.00  0.00    +0.017 A 
ATOM     20  C   UNL     1      -0.890  -0.641   5.328  0.00  0.00    +0.026 A 
ATOM     21  C   UNL     1      -0.475  -0.123   4.108  0.00  0.00    +0.051 A 
ATOM     22 BR   UNL     1       2.669  -1.258   7.352  0.00  0.00    -0.050 Br
BRANCH  21  23
ATOM     23  N   UNL     1      -1.419   0.222   3.136  0.00  0.00    -0.356 N 
ATOM     24  H   UNL     1      -1.129   0.606   2.294  0.00  0.00    +0.142 HD
ATOM     25  H   UNL     1      -2.363   0.076   3.304  0.00  0.00    +0.142 HD
ENDBRANCH  21  23
ENDBRANCH   1  16
TORSDOF 4
