REMARK  Name = ZINC47910592
REMARK  4 active torsions:
REMARK  status: ('A' for Active; 'I' for Inactive)
REMARK    1  A    between atoms: C_1  and  C_2
REMARK    2  A    between atoms: C_9  and  C_11
REMARK    3  A    between atoms: C_14  and  S_16
REMARK    4  A    between atoms: S_16  and  N_19
REMARK                            x       y       z     vdW  Elec       q    Type
REMARK                         _______ _______ _______ _____ _____    ______ ____
ROOT
ATOM      1  C   UNL     1       2.387  -0.140   2.953  0.00  0.00    +0.192 A 
ATOM      2  C   UNL     1       3.065   0.615   3.866  0.00  0.00    +0.057 A 
ATOM      3  C   UNL     1       3.783  -0.278   4.676  0.00  0.00    +0.072 A 
ATOM      4  C   UNL     1       3.516  -1.524   4.227  0.00  0.00    +0.258 A 
ATOM      5  O   UNL     1       2.671  -1.438   3.192  0.00  0.00    -0.432 OA
ENDROOT
BRANCH   1  13
ATOM      6  C   UNL     1       0.037   1.518  -0.037  0.00  0.00    +0.028 C 
ATOM      7  C   UNL     1      -0.003  -0.011   0.007  0.00  0.00    +0.073 C 
ATOM      8  C   UNL     1      -1.452  -0.482   0.161  0.00  0.00    +0.022 C 
ATOM      9  C   UNL     1      -1.474  -2.001   0.345  0.00  0.00    +0.003 C 
ATOM     10  C   UNL     1      -0.707  -2.374   1.616  0.00  0.00    +0.019 C 
ATOM     11  C   UNL     1       0.751  -1.924   1.479  0.00  0.00    +0.108 C 
ATOM     12  N   UNL     1       0.778  -0.490   1.156  0.00  0.00    -0.292 N 
ATOM     13  C   UNL     1       1.502   0.368   1.901  0.00  0.00    +0.282 C 
ATOM     14  O   UNL     1       1.420   1.566   1.700  0.00  0.00    -0.267 OA
ENDBRANCH   1  13
BRANCH   4  15
ATOM     15  S   UNL     1       4.168  -3.018   4.897  0.00  0.00    +0.089 S 
ATOM     16  O   UNL     1       4.114  -3.986   3.858  0.00  0.00    -0.150 OA
ATOM     17  O   UNL     1       5.380  -2.673   5.554  0.00  0.00    -0.150 OA
BRANCH  15  18
ATOM     18  N   UNL     1       3.120  -3.526   6.074  0.00  0.00    -0.201 NA
ATOM     19  H   UNL     1       3.024  -4.473   6.261  0.00  0.00    +0.144 HD
ATOM     20  H   UNL     1       2.602  -2.877   6.575  0.00  0.00    +0.144 HD
ENDBRANCH  15  18
ENDBRANCH   4  15
TORSDOF 3
