REMARK  Name = ZINC15856077
REMARK  9 active torsions:
REMARK  status: ('A' for Active; 'I' for Inactive)
REMARK    1  A    between atoms: C_1  and  C_2
REMARK    2  A    between atoms: C_2  and  C_4
REMARK    3  A    between atoms: C_2  and  O_13
REMARK    4  A    between atoms: N_9  and  C_10
REMARK    5  A    between atoms: C_10  and  C_11
REMARK    6  A    between atoms: C_10  and  C_12
REMARK    7  A    between atoms: O_13  and  C_14
REMARK    8  A    between atoms: C_14  and  C_16
REMARK    9  A    between atoms: C_16  and  C_17
REMARK                            x       y       z     vdW  Elec       q    Type
REMARK                         _______ _______ _______ _____ _____    ______ ____
ROOT
ATOM      1  O   UNL     1       0.671  -0.465  -1.174  0.00  0.00    -0.452 OA
ENDROOT
BRANCH   1   3
ATOM      2  C   UNL     1      -0.019   1.526   0.010  0.00  0.00    +0.062 C 
ATOM      3  C   UNL     1       0.002  -0.004   0.002  0.00  0.00    +0.259 C 
BRANCH   3   4
ATOM      4  C   UNL     1       0.731  -0.503   1.223  0.00  0.00    +0.261 C 
ATOM      5  O   UNL     1       1.774  -1.109   1.101  0.00  0.00    -0.271 OA
ATOM      6  N   UNL     1       0.223  -0.277   2.451  0.00  0.00    -0.237 N 
ATOM      7  C   UNL     1       0.875  -0.723   3.542  0.00  0.00    +0.306 C 
ATOM      8  O   UNL     1       1.921  -1.330   3.420  0.00  0.00    -0.252 OA
ATOM      9  N   UNL     1       0.367  -0.496   4.770  0.00  0.00    -0.297 N 
ATOM     10  H   UNL     1      -0.611   0.208   2.548  0.00  0.00    +0.159 HD
ATOM     11  H   UNL     1      -0.467  -0.011   4.868  0.00  0.00    +0.151 HD
BRANCH   9  12
ATOM     12  C   UNL     1       1.076  -0.981   5.957  0.00  0.00    +0.068 C 
ATOM     13  C   UNL     1       2.139   0.039   6.369  0.00  0.00    +0.027 C 
ATOM     14  C   UNL     1       0.080  -1.171   7.103  0.00  0.00    +0.027 C 
ENDBRANCH   9  12
ENDBRANCH   3   4
ENDBRANCH   1   3
BRANCH   1  15
ATOM     15  C   UNL     1      -0.085  -0.672  -2.263  0.00  0.00    +0.308 C 
ATOM     16  O   UNL     1      -1.276  -0.469  -2.220  0.00  0.00    -0.251 OA
BRANCH  15  17
ATOM     17  C   UNL     1       0.551  -1.158  -3.540  0.00  0.00    +0.127 C 
BRANCH  17  18
ATOM     18  C   UNL     1      -0.524  -1.312  -4.619  0.00  0.00    -0.017 C 
ATOM     19  C   UNL     1      -1.195   0.041  -4.866  0.00  0.00    +0.011 C 
ATOM     20  C   UNL     1      -2.269  -0.112  -5.944  0.00  0.00    -0.009 C 
ATOM     21  C   UNL     1      -1.624  -0.606  -7.241  0.00  0.00    +0.007 C 
ATOM     22  C   UNL     1      -0.953  -1.958  -6.994  0.00  0.00    -0.009 C 
ATOM     23  C   UNL     1       0.122  -1.805  -5.915  0.00  0.00    +0.011 C 
ATOM     24  C   UNL     1      -2.002  -2.971  -6.528  0.00  0.00    +0.021 C 
ATOM     25  C   UNL     1      -2.647  -2.477  -5.232  0.00  0.00    +0.027 C 
ATOM     26  C   UNL     1      -3.318  -1.125  -5.479  0.00  0.00    +0.021 C 
ATOM     27  C   UNL     1      -1.573  -2.324  -4.154  0.00  0.00    +0.025 C 
ATOM     28 BR   UNL     1      -3.994  -3.778  -4.634  0.00  0.00    -0.084 Br
ENDBRANCH  17  18
ENDBRANCH  15  17
ENDBRANCH   1  15
TORSDOF 6
