REMARK  Name = ZINC34957329
REMARK  4 active torsions:
REMARK  status: ('A' for Active; 'I' for Inactive)
REMARK    1  A    between atoms: C_3  and  C_16
REMARK    2  A    between atoms: C_4  and  O_7
REMARK    3  A    between atoms: O_7  and  C_8
REMARK    4  A    between atoms: N_17  and  O_18
REMARK                            x       y       z     vdW  Elec       q    Type
REMARK                         _______ _______ _______ _____ _____    ______ ____
ROOT
ATOM      1  C   UNL     1      -0.021   1.359  -0.264  0.00  0.00    +0.021 A 
ATOM      2  C   UNL     1       1.169   2.062  -0.184  0.00  0.00    +0.018 A 
ATOM      3  C   UNL     1       2.363   1.341  -0.105  0.00  0.00    +0.080 A 
ATOM      4  C   UNL     1       2.308  -0.060  -0.111  0.00  0.00    +0.231 A 
ATOM      5  N   UNL     1       1.145  -0.684  -0.189  0.00  0.00    -0.220 NA
ATOM      6  C   UNL     1       0.005  -0.024  -0.263  0.00  0.00    +0.114 A 
ENDROOT
BRANCH   3   7
ATOM      7  C   UNL     1       3.662   2.042  -0.019  0.00  0.00    +0.168 C 
ATOM      8  N   UNL     1       4.767   1.359   0.054  0.00  0.00    -0.071 NA
ATOM      9  N   UNL     1       3.702   3.426  -0.015  0.00  0.00    -0.340 N 
ATOM     10  H   UNL     1       2.878   3.936  -0.069  0.00  0.00    +0.144 HD
ATOM     11  H   UNL     1       4.554   3.886   0.042  0.00  0.00    +0.144 HD
BRANCH   8  12
ATOM     12  O   UNL     1       6.010   2.030   0.137  0.00  0.00    -0.408 OA
ATOM     13  H   UNL     1       6.774   1.439   0.187  0.00  0.00    +0.328 HD
ENDBRANCH   8  12
ENDBRANCH   3   7
BRANCH   4  14
ATOM     14  O   UNL     1       3.454  -0.779  -0.035  0.00  0.00    -0.434 OA
BRANCH  14  15
ATOM     15  C   UNL     1       3.354  -2.132   0.063  0.00  0.00    +0.165 A 
ATOM     16  C   UNL     1       3.370  -2.740   1.309  0.00  0.00    +0.050 A 
ATOM     17  C   UNL     1       3.268  -4.115   1.407  0.00  0.00    +0.019 A 
ATOM     18  C   UNL     1       3.150  -4.885   0.264  0.00  0.00    +0.021 A 
ATOM     19  C   UNL     1       3.134  -4.282  -0.981  0.00  0.00    +0.057 A 
ATOM     20  C   UNL     1       3.229  -2.905  -1.084  0.00  0.00    +0.167 A 
ATOM     21  F   UNL     1       3.207  -2.315  -2.299  0.00  0.00    -0.202 F 
ATOM     22 BR   UNL     1       3.012  -6.766   0.403  0.00  0.00    -0.050 Br
ENDBRANCH  14  15
ENDBRANCH   4  14
TORSDOF 4
