REMARK  Name = ZINC40377032
REMARK  7 active torsions:
REMARK  status: ('A' for Active; 'I' for Inactive)
REMARK    1  A    between atoms: C_1  and  C_2
REMARK    2  A    between atoms: C_2  and  C_3
REMARK    3  A    between atoms: C_2  and  C_4
REMARK    4  A    between atoms: C_2  and  N_8
REMARK    5  A    between atoms: N_5  and  O_6
REMARK    6  A    between atoms: N_8  and  S_9
REMARK    7  A    between atoms: S_9  and  C_12
REMARK                            x       y       z     vdW  Elec       q    Type
REMARK                         _______ _______ _______ _____ _____    ______ ____
ROOT
ATOM      1  N   UNL     1       0.546  -0.663  -1.368  0.00  0.00    -0.177 NA
ATOM      2  H   UNL     1       0.186  -1.290  -2.014  0.00  0.00    +0.149 HD
ENDROOT
BRANCH   1   4
ATOM      3  C   UNL     1      -0.369   1.502  -0.691  0.00  0.00    +0.037 C 
ATOM      4  C   UNL     1      -0.347  -0.003  -0.413  0.00  0.00    +0.092 C 
ATOM      5  C   UNL     1       0.155  -0.251   1.011  0.00  0.00    +0.037 C 
BRANCH   4   6
ATOM      6  C   UNL     1      -1.740  -0.561  -0.558  0.00  0.00    +0.153 C 
ATOM      7  N   UNL     1      -2.349  -1.052   0.469  0.00  0.00    -0.075 NA
ATOM      8  N   UNL     1      -2.362  -0.547  -1.787  0.00  0.00    -0.342 N 
ATOM      9  H   UNL     1      -1.904  -0.179  -2.558  0.00  0.00    +0.144 HD
ATOM     10  H   UNL     1      -3.258  -0.907  -1.881  0.00  0.00    +0.144 HD
BRANCH   7  11
ATOM     11  O   UNL     1      -3.658  -1.576   0.332  0.00  0.00    -0.408 OA
ATOM     12  H   UNL     1      -4.031  -1.921   1.155  0.00  0.00    +0.328 HD
ENDBRANCH   7  11
ENDBRANCH   4   6
ENDBRANCH   1   4
BRANCH   1  13
ATOM     13  S   UNL     1       2.169  -0.338  -1.344  0.00  0.00    +0.062 S 
ATOM     14  O   UNL     1       2.581  -0.424   0.014  0.00  0.00    -0.153 OA
ATOM     15  O   UNL     1       2.757  -1.128  -2.369  0.00  0.00    -0.153 OA
BRANCH  13  16
ATOM     16  C   UNL     1       2.371   1.344  -1.826  0.00  0.00    +0.142 A 
ATOM     17  C   UNL     1       2.214   1.708  -3.151  0.00  0.00    +0.070 A 
ATOM     18  C   UNL     1       2.372   3.029  -3.530  0.00  0.00    +0.037 A 
ATOM     19  C   UNL     1       2.688   3.987  -2.583  0.00  0.00    +0.021 A 
ATOM     20  C   UNL     1       2.845   3.623  -1.258  0.00  0.00    +0.037 A 
ATOM     21  C   UNL     1       2.682   2.303  -0.878  0.00  0.00    +0.070 A 
ATOM     22 CL   UNL     1       2.872   1.848   0.786  0.00  0.00    -0.081 Cl
ATOM     23 BR   UNL     1       2.904   5.793  -3.100  0.00  0.00    -0.050 Br
ATOM     24 CL   UNL     1       1.819   0.506  -4.340  0.00  0.00    -0.081 Cl
ENDBRANCH  13  16
ENDBRANCH   1  13
TORSDOF 5
