REMARK  Name = ZINC20026776
REMARK  9 active torsions:
REMARK  status: ('A' for Active; 'I' for Inactive)
REMARK    1  A    between atoms: C_1  and  C_2
REMARK    2  A    between atoms: C_2  and  C_3
REMARK    3  A    between atoms: C_2  and  C_4
REMARK    4  A    between atoms: C_2  and  C_5
REMARK    5  A    between atoms: C_13  and  C_25
REMARK    6  A    between atoms: C_15  and  C_23
REMARK    7  A    between atoms: C_16  and  N_22
REMARK    8  A    between atoms: C_17  and  C_18
REMARK    9  A    between atoms: C_17  and  C_20
REMARK                            x       y       z     vdW  Elec       q    Type
REMARK                         _______ _______ _______ _____ _____    ______ ____
ROOT
ATOM      1  C   UNL     1      -1.996  -1.841   3.608  0.00  0.00    -0.001 C 
ATOM      2  C   UNL     1      -3.307  -2.461   3.106  0.00  0.00    +0.031 C 
ATOM      3  C   UNL     1      -2.998  -3.285   1.887  0.00  0.00    -0.024 C 
ATOM      4  C   UNL     1      -2.007  -3.010   1.092  0.00  0.00    -0.030 C 
ATOM      5  C   UNL     1      -1.077  -1.842   1.266  0.00  0.00    +0.031 C 
ATOM      6  C   UNL     1      -1.405  -0.995   2.484  0.00  0.00    +0.013 C 
ATOM      7  C   UNL     1      -1.156  -0.969   0.008  0.00  0.00    +0.075 C 
ATOM      8  C   UNL     1      -1.103  -1.809  -1.230  0.00  0.00    +0.057 C 
ATOM      9  C   UNL     1      -1.377  -3.109  -1.284  0.00  0.00    +0.054 C 
ATOM     10  C   UNL     1      -1.741  -3.935  -0.083  0.00  0.00    +0.202 C 
ENDROOT
BRANCH   7  11
ATOM     11  C   UNL     1       0.002  -0.004   0.002  0.00  0.00    -0.000 A 
ATOM     12  C   UNL     1      -0.016   1.351   0.009  0.00  0.00    +0.013 A 
ATOM     13  C   UNL     1       1.184   2.038   0.002  0.00  0.00    +0.028 A 
ATOM     14  C   UNL     1       2.343   1.335  -0.013  0.00  0.00    +0.078 A 
ATOM     15  S   UNL     1       1.753  -0.350  -0.017  0.00  0.00    -0.081 S 
ATOM     16 CL   UNL     1       3.977   1.921  -0.026  0.00  0.00    -0.076 Cl
ENDBRANCH   7  11
BRANCH   1  18
ATOM     17  C   UNL     1      -3.271   0.140   4.442  0.00  0.00    +0.011 C 
ATOM     18  C   UNL     1      -2.277  -0.958   4.826  0.00  0.00    -0.035 C 
ATOM     19  C   UNL     1      -2.869  -1.812   5.950  0.00  0.00    +0.011 C 
ATOM     20  C   UNL     1      -0.972  -0.320   5.304  0.00  0.00    +0.011 C 
ENDBRANCH   1  18
BRANCH   9  21
ATOM     21  N   UNL     1      -1.323  -3.731  -2.504  0.00  0.00    -0.358 N 
ATOM     22  H   UNL     1      -1.544  -4.806  -2.583  0.00  0.00    +0.142 HD
ATOM     23  H   UNL     1      -1.059  -3.156  -3.403  0.00  0.00    +0.142 HD
ENDBRANCH   9  21
BRANCH  10  24
ATOM     24  C   UNL     1      -0.630  -4.842   0.246  0.00  0.00    +0.095 C 
ATOM     25  N   UNL     1       0.228  -5.543   0.500  0.00  0.00    -0.194 NA
ENDBRANCH  10  24
BRANCH  10  26
ATOM     26  C   UNL     1      -2.950  -4.723  -0.374  0.00  0.00    +0.095 C 
ATOM     27  N   UNL     1      -3.883  -5.331  -0.598  0.00  0.00    -0.194 NA
ENDBRANCH  10  26
BRANCH   8  28
ATOM     28  C   UNL     1      -0.730  -1.162  -2.452  0.00  0.00    +0.097 C 
ATOM     29  N   UNL     1      -0.434  -0.648  -3.421  0.00  0.00    -0.191 NA
ENDBRANCH   8  28
TORSDOF 6
