REMARK  Name = ZINC41834215
REMARK  10 active torsions:
REMARK  status: ('A' for Active; 'I' for Inactive)
REMARK    1  A    between atoms: C_1  and  C_2
REMARK    2  A    between atoms: C_2  and  C_3
REMARK    3  A    between atoms: C_2  and  C_4
REMARK    4  A    between atoms: C_2  and  C_5
REMARK    5  A    between atoms: C_11  and  C_12
REMARK    6  A    between atoms: C_11  and  N_15
REMARK    7  A    between atoms: N_15  and  C_16
REMARK    8  A    between atoms: C_16  and  C_17
REMARK    9  A    between atoms: C_16  and  C_18
REMARK   10  A    between atoms: C_16  and  C_19
REMARK                            x       y       z     vdW  Elec       q    Type
REMARK                         _______ _______ _______ _____ _____    ______ ____
ROOT
ATOM      1  C   UNL     1       1.202  -2.381  -1.095  0.00  0.00    -0.006 C 
ATOM      2  C   UNL     1       1.512  -3.676  -0.342  0.00  0.00    +0.003 C 
ATOM      3  C   UNL     1       2.881  -4.203  -0.777  0.00  0.00    +0.000 C 
ATOM      4  C   UNL     1       3.954  -3.159  -0.460  0.00  0.00    -0.001 C 
ATOM      5  C   UNL     1       3.643  -1.864  -1.213  0.00  0.00    -0.001 C 
ATOM      6  C   UNL     1       2.274  -1.337  -0.778  0.00  0.00    +0.040 C 
ENDROOT
BRANCH   1   8
ATOM      7  C   UNL     1      -0.703  -0.889  -1.720  0.00  0.00    +0.011 C 
ATOM      8  C   UNL     1      -0.168  -1.854  -0.661  0.00  0.00    -0.036 C 
ATOM      9  C   UNL     1      -0.031  -1.120   0.675  0.00  0.00    +0.011 C 
ATOM     10  C   UNL     1      -1.138  -3.026  -0.501  0.00  0.00    +0.011 C 
ENDBRANCH   1   8
BRANCH   6  11
ATOM     11  C   UNL     1       2.288  -1.065   0.704  0.00  0.00    +0.346 C 
ATOM     12  O   UNL     1       2.466  -1.980   1.490  0.00  0.00    -0.248 OA
ATOM     13  O   UNL     1       2.122   0.070   1.117  0.00  0.00    -0.248 OA
ENDBRANCH   6  11
BRANCH   6  14
ATOM     14  N   UNL     1       1.976  -0.094  -1.501  0.00  0.00    +0.399 N 
ATOM     15  H   UNL     1       1.784  -0.305  -2.469  0.00  0.00    -0.083 HD
ATOM     16  H   UNL     1       1.170   0.351  -1.088  0.00  0.00    -0.083 HD
BRANCH  14  17
ATOM     17  C   UNL     1       3.131   0.810  -1.418  0.00  0.00    +0.005 C 
ATOM     18  C   UNL     1       3.831   0.620  -0.071  0.00  0.00    -0.001 C 
ATOM     19  C   UNL     1       4.109   0.494  -2.551  0.00  0.00    -0.001 C 
BRANCH  17  20
ATOM     20  C   UNL     1       2.662   2.237  -1.542  0.00  0.00    +0.199 C 
ATOM     21  O   UNL     1       3.218   3.115  -0.917  0.00  0.00    -0.278 OA
ATOM     22  N   UNL     1       1.624   2.538  -2.348  0.00  0.00    -0.330 N 
ATOM     23  H   UNL     1       1.179   1.835  -2.848  0.00  0.00    +0.145 HD
ATOM     24  H   UNL     1       1.322   3.456  -2.428  0.00  0.00    +0.145 HD
ENDBRANCH  17  20
ENDBRANCH  14  17
ENDBRANCH   6  14
TORSDOF 5
