REMARK  Name = ZINC43424780
REMARK  2 active torsions:
REMARK  status: ('A' for Active; 'I' for Inactive)
REMARK    1  A    between atoms: C_2  and  N_21
REMARK    2  A    between atoms: C_5  and  N_8
REMARK                            x       y       z     vdW  Elec       q    Type
REMARK                         _______ _______ _______ _____ _____    ______ ____
ROOT
ATOM      1  C   UNL     1      -0.017   1.379   0.010  0.00  0.00    +0.063 A 
ATOM      2  C   UNL     1       1.176   2.090   0.002  0.00  0.00    +0.030 A 
ATOM      3  C   UNL     1       2.388   1.413  -0.014  0.00  0.00    +0.063 A 
ATOM      4  C   UNL     1       2.408   0.030  -0.022  0.00  0.00    +0.149 A 
ATOM      5  C   UNL     1       1.215  -0.682  -0.014  0.00  0.00    +0.101 A 
ATOM      6  C   UNL     1       0.002  -0.004   0.002  0.00  0.00    +0.149 A 
ATOM      7  F   UNL     1      -1.159  -0.696   0.010  0.00  0.00    -0.203 F 
ATOM      8  F   UNL     1       3.588  -0.629  -0.038  0.00  0.00    -0.203 F 
ENDROOT
BRANCH   5   9
ATOM      9  N   UNL     1       1.234  -2.085  -0.022  0.00  0.00    -0.318 N 
ATOM     10  C   UNL     1       1.238  -2.845  -1.285  0.00  0.00    +0.133 C 
ATOM     11  C   UNL     1       0.141  -3.912  -1.225  0.00  0.00    +0.179 C 
ATOM     12  O   UNL     1       0.265  -4.670  -0.017  0.00  0.00    -0.373 OA
ATOM     13  C   UNL     1       0.117  -3.886   1.164  0.00  0.00    +0.139 C 
ATOM     14  C   UNL     1       1.258  -2.857   1.227  0.00  0.00    +0.102 C 
ATOM     15  C   UNL     1       1.041  -1.947   2.434  0.00  0.00    +0.025 C 
ATOM     16  C   UNL     1       1.075  -2.797   3.708  0.00  0.00    +0.002 C 
ATOM     17  C   UNL     1      -0.020  -3.863   3.654  0.00  0.00    +0.003 C 
ATOM     18  C   UNL     1       0.180  -4.753   2.420  0.00  0.00    +0.033 C 
ENDBRANCH   5   9
BRANCH   2  19
ATOM     19  N   UNL     1       1.157   3.489   0.010  0.00  0.00    -0.358 N 
ATOM     20  H   UNL     1       0.310   3.962   0.020  0.00  0.00    +0.142 HD
ATOM     21  H   UNL     1       1.990   3.986   0.004  0.00  0.00    +0.142 HD
ENDBRANCH   2  19
TORSDOF 2
