REMARK  Name = ZINC20422243
REMARK  6 active torsions:
REMARK  status: ('A' for Active; 'I' for Inactive)
REMARK    1  A    between atoms: C_1  and  C_2
REMARK    2  A    between atoms: C_2  and  C_4
REMARK    3  A    between atoms: C_2  and  S_11
REMARK    4  A    between atoms: N_9  and  C_10
REMARK    5  A    between atoms: S_11  and  C_12
REMARK    6  A    between atoms: C_17  and  N_18
REMARK                            x       y       z     vdW  Elec       q    Type
REMARK                         _______ _______ _______ _____ _____    ______ ____
ROOT
ATOM      1  C   UNL     1      -1.293   3.530  -1.167  0.00  0.00    +0.029 C 
ATOM      2  C   UNL     1      -0.637   4.125   0.080  0.00  0.00    +0.134 C 
ENDROOT
BRANCH   2   3
ATOM      3  C   UNL     1      -0.822   5.621   0.079  0.00  0.00    +0.233 C 
ATOM      4  O   UNL     1       0.048   6.339  -0.368  0.00  0.00    -0.274 OA
ATOM      5  N   UNL     1      -1.953   6.161   0.574  0.00  0.00    -0.239 N 
ATOM      6  C   UNL     1      -2.118   7.498   0.573  0.00  0.00    +0.306 C 
ATOM      7  O   UNL     1      -1.247   8.218   0.125  0.00  0.00    -0.252 OA
ATOM      8  N   UNL     1      -3.249   8.038   1.068  0.00  0.00    -0.302 N 
ATOM      9  C   UNL     1      -3.429   9.492   1.067  0.00  0.00    +0.129 C 
ATOM     10  H   UNL     1      -2.741   5.510   0.979  0.00  0.00    +0.159 HD
ATOM     11  H   UNL     1      -4.038   7.387   1.473  0.00  0.00    +0.150 HD
ENDBRANCH   2   3
BRANCH   2  12
ATOM     12  S   UNL     1       1.135   3.735   0.077  0.00  0.00    -0.111 S 
BRANCH  12  13
ATOM     13  C   UNL     1       1.687   4.244   1.671  0.00  0.00    +0.029 A 
ATOM     14  C   UNL     1       0.773   4.693   2.613  0.00  0.00    +0.016 A 
ATOM     15  C   UNL     1       1.208   5.092   3.863  0.00  0.00    +0.001 A 
ATOM     16  C   UNL     1       2.554   5.045   4.178  0.00  0.00    +0.002 A 
ATOM     17  C   UNL     1       3.472   4.598   3.245  0.00  0.00    +0.024 A 
ATOM     18  C   UNL     1       3.044   4.196   1.989  0.00  0.00    +0.038 A 
BRANCH  18  19
ATOM     19  N   UNL     1       3.972   3.744   1.044  0.00  0.00    -0.357 N 
ATOM     20  H   UNL     1       5.042   3.706   1.296  0.00  0.00    +0.142 HD
ATOM     21  H   UNL     1       3.631   3.425   0.047  0.00  0.00    +0.142 HD
ENDBRANCH  18  19
ENDBRANCH  12  13
ENDBRANCH   2  12
TORSDOF 4
