REMARK  Name = ZINC44881909
REMARK  8 active torsions:
REMARK  status: ('A' for Active; 'I' for Inactive)
REMARK    1  A    between atoms: C_1  and  O_2
REMARK    2  A    between atoms: O_2  and  C_3
REMARK    3  A    between atoms: C_3  and  C_5
REMARK    4  A    between atoms: C_6  and  C_28
REMARK    5  A    between atoms: C_7  and  N_27
REMARK    6  A    between atoms: C_8  and  C_25
REMARK    7  A    between atoms: C_9  and  C_18
REMARK    8  A    between atoms: C_10  and  C_11
REMARK                            x       y       z     vdW  Elec       q    Type
REMARK                         _______ _______ _______ _____ _____    ______ ____
ROOT
ATOM      1  C   UNL     1      -1.247  -2.106   0.003  0.00  0.00    +0.086 A 
ATOM      2  C   UNL     1      -1.269  -2.817   1.219  0.00  0.00    +0.088 A 
ATOM      3  C   UNL     1      -1.324  -4.217   1.211  0.00  0.00    +0.061 A 
ATOM      4  C   UNL     1      -1.357  -4.911  -0.008  0.00  0.00    +0.082 A 
ATOM      5  C   UNL     1      -1.335  -4.204  -1.221  0.00  0.00    +0.010 A 
ATOM      6  C   UNL     1      -1.286  -2.800  -1.214  0.00  0.00    +0.006 A 
ENDROOT
BRANCH   6   7
ATOM      7  C   UNL     1      -1.270  -2.054  -2.493  0.00  0.00    -0.016 A 
ATOM      8  C   UNL     1      -2.377  -2.095  -3.341  0.00  0.00    +0.010 A 
ATOM      9  C   UNL     1      -2.356  -1.397  -4.531  0.00  0.00    +0.020 A 
ATOM     10  C   UNL     1      -1.239  -0.659  -4.885  0.00  0.00    +0.041 A 
ATOM     11  C   UNL     1      -0.137  -0.616  -4.047  0.00  0.00    +0.020 A 
ATOM     12  C   UNL     1      -0.149  -1.304  -2.851  0.00  0.00    +0.010 A 
ATOM     13 CL   UNL     1      -1.219   0.215  -6.384  0.00  0.00    -0.084 Cl
ENDBRANCH   6   7
BRANCH   5  14
ATOM     14  C   UNL     1      -1.370  -4.936  -2.505  0.00  0.00    -0.016 A 
ATOM     15  C   UNL     1      -0.275  -4.888  -3.369  0.00  0.00    +0.010 A 
ATOM     16  C   UNL     1      -0.313  -5.574  -4.565  0.00  0.00    +0.020 A 
ATOM     17  C   UNL     1      -1.435  -6.309  -4.910  0.00  0.00    +0.041 A 
ATOM     18  C   UNL     1      -2.524  -6.361  -4.056  0.00  0.00    +0.020 A 
ATOM     19  C   UNL     1      -2.496  -5.684  -2.855  0.00  0.00    +0.010 A 
ATOM     20 CL   UNL     1      -1.476  -7.170  -6.417  0.00  0.00    -0.084 Cl
ENDBRANCH   5  14
BRANCH   3  21
ATOM     21  N   UNL     1      -1.345  -4.915   2.406  0.00  0.00    -0.356 N 
ATOM     22  H   UNL     1      -1.322  -4.435   3.249  0.00  0.00    +0.142 HD
ATOM     23  H   UNL     1      -1.383  -5.884   2.401  0.00  0.00    +0.142 HD
ENDBRANCH   3  21
BRANCH   1  24
ATOM     24  C   UNL     1      -1.190  -0.632   0.010  0.00  0.00    +0.341 C 
ATOM     25  O   UNL     1      -2.218   0.016   0.023  0.00  0.00    -0.245 OA
BRANCH  24  27
ATOM     26  C   UNL     1      -0.017   1.425   0.010  0.00  0.00    +0.280 C 
ATOM     27  O   UNL     1       0.002  -0.004   0.002  0.00  0.00    -0.464 OA
ENDBRANCH  24  27
ENDBRANCH   1  24
BRANCH   4  28
ATOM     28  C   UNL     1      -1.412  -6.342  -0.015  0.00  0.00    +0.102 C 
ATOM     29  N   UNL     1      -1.456  -7.478  -0.021  0.00  0.00    -0.191 NA
ENDBRANCH   4  28
BRANCH   2  30
ATOM     30  C   UNL     1      -1.234  -2.108   2.463  0.00  0.00    +0.102 C 
ATOM     31  N   UNL     1      -1.207  -1.546   3.450  0.00  0.00    -0.191 NA
ENDBRANCH   2  30
TORSDOF 7
