REMARK  Name = ZINC43106010
REMARK  6 active torsions:
REMARK  status: ('A' for Active; 'I' for Inactive)
REMARK    1  A    between atoms: C_1  and  C_2
REMARK    2  A    between atoms: C_2  and  C_4
REMARK    3  A    between atoms: C_2  and  N_21
REMARK    4  A    between atoms: C_4  and  C_6
REMARK    5  A    between atoms: C_4  and  N_11
REMARK    6  A    between atoms: C_16  and  C_18
REMARK                            x       y       z     vdW  Elec       q    Type
REMARK                         _______ _______ _______ _____ _____    ______ ____
ROOT
ATOM      1  C   UNL     1       1.290  -1.347   1.383  0.00  0.00    +0.080 C 
ENDROOT
BRANCH   1   2
ATOM      2  N   UNL     1       0.609  -0.569   2.426  0.00  0.00    -0.286 NA
ATOM      3  C   UNL     1      -0.564  -1.288   2.938  0.00  0.00    +0.086 C 
ATOM      4  C   UNL     1      -1.329  -0.390   3.914  0.00  0.00    +0.015 C 
ATOM      5  C   UNL     1      -0.404   0.004   5.069  0.00  0.00    +0.003 C 
ATOM      6  C   UNL     1       0.833   0.709   4.505  0.00  0.00    +0.028 C 
ATOM      7  C   UNL     1       1.535  -0.221   3.513  0.00  0.00    +0.143 C 
BRANCH   7   8
ATOM      8  C   UNL     1       2.742   0.475   2.940  0.00  0.00    +0.228 C 
ATOM      9  O   UNL     1       2.641   1.126   1.921  0.00  0.00    -0.274 OA
ATOM     10  N   UNL     1       3.935   0.375   3.559  0.00  0.00    -0.328 N 
ATOM     11  H   UNL     1       4.016  -0.145   4.374  0.00  0.00    +0.145 HD
ATOM     12  H   UNL     1       4.712   0.823   3.191  0.00  0.00    +0.145 HD
ENDBRANCH   7   8
ENDBRANCH   1   2
BRANCH   1  13
ATOM     13  C   UNL     1       1.907  -2.578   1.997  0.00  0.00    +0.005 A 
ATOM     14  C   UNL     1       3.173  -3.048   1.878  0.00  0.00    +0.013 A 
ATOM     15  C   UNL     1       3.521  -4.210   2.540  0.00  0.00    +0.008 A 
ATOM     16  C   UNL     1       2.587  -4.846   3.288  0.00  0.00    +0.045 A 
ATOM     17  S   UNL     1       1.163  -3.789   3.077  0.00  0.00    -0.100 S 
ENDBRANCH   1  13
BRANCH   1  19
ATOM     18  C   UNL     1      -0.349  -0.515  -0.308  0.00  0.00    -0.012 C 
ATOM     19  C   UNL     1       0.278  -1.764   0.315  0.00  0.00    -0.056 C 
BRANCH  19  20
ATOM     20  N   UNL     1       0.959  -2.542  -0.728  0.00  0.00    +0.381 N 
ATOM     21  H   UNL     1       1.681  -1.979  -1.151  0.00  0.00    -0.090 HD
ATOM     22  H   UNL     1       1.371  -3.366  -0.317  0.00  0.00    -0.090 HD
ATOM     23  H   UNL     1       0.291  -2.817  -1.433  0.00  0.00    -0.090 HD
ENDBRANCH  19  20
ENDBRANCH   1  19
TORSDOF 5
