REMARK  Name = ZINC39558058
REMARK  5 active torsions:
REMARK  status: ('A' for Active; 'I' for Inactive)
REMARK    1  A    between atoms: C_1  and  C_2
REMARK    2  A    between atoms: C_7  and  C_13
REMARK    3  A    between atoms: C_11  and  C_12
REMARK    4  A    between atoms: C_18  and  N_21
REMARK    5  A    between atoms: C_29  and  C_31
REMARK                            x       y       z     vdW  Elec       q    Type
REMARK                         _______ _______ _______ _____ _____    ______ ____
ROOT
ATOM      1  C   UNL     1      -0.471  -4.533  -0.916  0.00  0.00    +0.245 C 
ATOM      2  O   UNL     1      -1.051  -5.418  -1.518  0.00  0.00    -0.270 OA
ATOM      3  N   UNL     1       0.807  -4.709  -0.526  0.00  0.00    -0.298 N 
ATOM      4  C   UNL     1       1.483  -3.702   0.303  0.00  0.00    +0.110 C 
ATOM      5  C   UNL     1       2.793  -3.298  -0.381  0.00  0.00    +0.041 C 
ATOM      6  C   UNL     1       3.629  -4.551  -0.653  0.00  0.00    +0.080 C 
ATOM      7  C   UNL     1       2.861  -5.484  -1.593  0.00  0.00    +0.041 C 
ATOM      8  C   UNL     1       1.550  -5.915  -0.918  0.00  0.00    +0.110 C 
ENDROOT
BRANCH   1  15
ATOM      9  C   UNL     1      -2.936  -0.911   3.362  0.00  0.00    +0.046 C 
ATOM     10  C   UNL     1      -2.522  -1.963   2.365  0.00  0.00    -0.024 C 
ATOM     11  C   UNL     1      -2.408  -1.778   1.042  0.00  0.00    -0.014 C 
ATOM     12  C   UNL     1      -2.333  -0.731   0.104  0.00  0.00    +0.006 C 
ATOM     13  C   UNL     1      -1.587  -0.928  -1.016  0.00  0.00    +0.001 C 
ATOM     14  C   UNL     1      -0.906  -2.124  -1.302  0.00  0.00    +0.011 C 
ATOM     15  C   UNL     1      -1.161  -3.279  -0.615  0.00  0.00    +0.043 C 
ATOM     16  C   UNL     1      -2.198  -3.175   0.470  0.00  0.00    +0.171 C 
ATOM     17  N   UNL     1      -1.926  -4.032   1.607  0.00  0.00    -0.275 NA
ATOM     18  C   UNL     1      -2.175  -3.345   2.686  0.00  0.00    +0.037 C 
ATOM     19  C   UNL     1      -2.117  -3.906   4.083  0.00  0.00    +0.065 C 
ENDBRANCH   1  15
BRANCH   6  20
ATOM     20  N   UNL     1       4.897  -4.165  -1.277  0.00  0.00    -0.293 N 
ATOM     21  C   UNL     1       5.048  -3.483  -2.485  0.00  0.00    +0.122 A 
ATOM     22  C   UNL     1       6.404  -3.295  -2.751  0.00  0.00    +0.067 A 
ATOM     23  C   UNL     1       6.781  -2.632  -3.913  0.00  0.00    +0.028 A 
ATOM     24  C   UNL     1       5.787  -2.179  -4.770  0.00  0.00    +0.019 A 
ATOM     25  C   UNL     1       4.465  -2.399  -4.444  0.00  0.00    +0.084 A 
ATOM     26  N   UNL     1       4.134  -3.031  -3.334  0.00  0.00    -0.348 N 
ATOM     27  N   UNL     1       7.174  -3.852  -1.722  0.00  0.00    -0.323 N 
ATOM     28  C   UNL     1       6.239  -4.420  -0.743  0.00  0.00    +0.163 C 
ATOM     29  H   UNL     1       8.142  -3.857  -1.666  0.00  0.00    +0.148 HD
ATOM     30  H   UNL     1       3.195  -3.170  -3.134  0.00  0.00    +0.167 HD
BRANCH  28  31
ATOM     31  C   UNL     1       6.476  -5.926  -0.605  0.00  0.00    +0.028 C 
ATOM     32  C   UNL     1       5.892  -6.525   0.685  0.00  0.00    +0.007 C 
ATOM     33  C   UNL     1       7.167  -7.381   0.771  0.00  0.00    +0.001 C 
ATOM     34  C   UNL     1       7.864  -6.283  -0.050  0.00  0.00    +0.007 C 
ENDBRANCH  28  31
ENDBRANCH   6  20
TORSDOF 3
