REMARK  Name = ZINC35990914
REMARK  10 active torsions:
REMARK  status: ('A' for Active; 'I' for Inactive)
REMARK    1  A    between atoms: C_1  and  C_2
REMARK    2  A    between atoms: C_2  and  N_3
REMARK    3  A    between atoms: C_4  and  C_23
REMARK    4  A    between atoms: C_5  and  C_18
REMARK    5  A    between atoms: C_6  and  C_11
REMARK    6  A    between atoms: C_18  and  O_20
REMARK    7  A    between atoms: O_20  and  C_21
REMARK    8  A    between atoms: C_21  and  C_22
REMARK    9  A    between atoms: C_23  and  N_24
REMARK   10  A    between atoms: C_28  and  C_31
REMARK                            x       y       z     vdW  Elec       q    Type
REMARK                         _______ _______ _______ _____ _____    ______ ____
ROOT
ATOM      1  N   UNL     1      -1.390  -0.479  -0.042  0.00  0.00    -0.258 N 
ATOM      2  C   UNL     1      -1.965  -0.622   1.188  0.00  0.00    +0.041 C 
ATOM      3  C   UNL     1      -3.212  -1.122   1.321  0.00  0.00    +0.080 C 
ATOM      4  C   UNL     1      -3.951  -1.518   0.059  0.00  0.00    +0.144 C 
ATOM      5  N   UNL     1      -3.243  -1.324  -1.218  0.00  0.00    -0.288 N 
ATOM      6  C   UNL     1      -1.998  -0.808  -1.189  0.00  0.00    +0.307 C 
ATOM      7  O   UNL     1      -1.407  -0.640  -2.237  0.00  0.00    -0.252 OA
ATOM      8  H   UNL     1      -3.664  -1.559  -2.060  0.00  0.00    +0.151 HD
ENDROOT
BRANCH   4   9
ATOM      9  C   UNL     1      -4.314  -2.976   0.171  0.00  0.00    -0.022 A 
ATOM     10  C   UNL     1      -3.364  -3.946  -0.092  0.00  0.00    +0.008 A 
ATOM     11  C   UNL     1      -3.696  -5.284   0.011  0.00  0.00    +0.038 A 
ATOM     12  C   UNL     1      -4.979  -5.652   0.378  0.00  0.00    +0.123 A 
ATOM     13  C   UNL     1      -5.929  -4.680   0.641  0.00  0.00    +0.038 A 
ATOM     14  C   UNL     1      -5.594  -3.343   0.542  0.00  0.00    +0.008 A 
ATOM     15  F   UNL     1      -5.304  -6.960   0.479  0.00  0.00    -0.205 F 
ENDBRANCH   4   9
BRANCH   1  17
ATOM     16  C   UNL     1      -0.105   1.593  -0.230  0.00  0.00    +0.025 C 
ATOM     17  C   UNL     1      -0.033   0.070  -0.112  0.00  0.00    +0.111 C 
ENDBRANCH   1  17
BRANCH   3  18
ATOM     18  C   UNL     1      -3.809  -1.271   2.595  0.00  0.00    +0.339 C 
ATOM     19  O   UNL     1      -3.823  -2.360   3.136  0.00  0.00    -0.245 OA
BRANCH  18  20
ATOM     20  O   UNL     1      -4.362  -0.204   3.209  0.00  0.00    -0.462 OA
BRANCH  20  21
ATOM     21  C   UNL     1      -4.947  -0.427   4.494  0.00  0.00    +0.229 C 
ATOM     22  C   UNL     1      -5.519   0.887   5.029  0.00  0.00    +0.048 C 
ENDBRANCH  20  21
ENDBRANCH  18  20
ENDBRANCH   3  18
BRANCH   2  23
ATOM     23  C   UNL     1      -1.194  -0.215   2.418  0.00  0.00    +0.136 C 
BRANCH  23  24
ATOM     24  N   UNL     1      -0.043  -1.110   2.592  0.00  0.00    -0.300 NA
ATOM     25  C   UNL     1      -0.481  -2.479   2.898  0.00  0.00    +0.066 C 
ATOM     26  C   UNL     1       0.743  -3.390   3.013  0.00  0.00    -0.067 C 
ATOM     27  N   UNL     1       1.626  -2.892   4.076  0.00  0.00    +0.382 N 
ATOM     28  C   UNL     1       2.075  -1.533   3.745  0.00  0.00    -0.061 C 
ATOM     29  C   UNL     1       0.862  -0.607   3.636  0.00  0.00    +0.069 C 
ATOM     30  C   UNL     1       3.009  -1.023   4.844  0.00  0.00    -0.012 C 
ATOM     31  H   UNL     1       1.123  -2.876   4.950  0.00  0.00    -0.085 HD
ATOM     32  H   UNL     1       2.427  -3.500   4.160  0.00  0.00    -0.085 HD
ENDBRANCH  23  24
ENDBRANCH   2  23
TORSDOF 7
