REMARK  Name = ZINC08703855
REMARK  3 active torsions:
REMARK  status: ('A' for Active; 'I' for Inactive)
REMARK    1  A    between atoms: N_14  and  C_18
REMARK    2  A    between atoms: C_18  and  C_19
REMARK    3  A    between atoms: C_19  and  C_21
REMARK                            x       y       z     vdW  Elec       q    Type
REMARK                         _______ _______ _______ _____ _____    ______ ____
ROOT
ATOM      1  C   UNL     1      -6.617  -6.549  -1.437  0.00  0.00    +0.000 A 
ATOM      2  C   UNL     1      -6.713  -6.092  -0.136  0.00  0.00    +0.000 A 
ATOM      3  C   UNL     1      -7.061  -4.779   0.108  0.00  0.00    +0.006 A 
ATOM      4  C   UNL     1      -7.316  -3.909  -0.950  0.00  0.00    -0.012 A 
ATOM      5  C   UNL     1      -7.213  -4.362  -2.233  0.00  0.00    -0.042 A 
ATOM      6  C   UNL     1      -6.867  -5.686  -2.483  0.00  0.00    +0.004 A 
ATOM      7  C   UNL     1      -7.462  -3.483  -3.441  0.00  0.00    +0.035 C 
ATOM      8  C   UNL     1      -8.928  -3.054  -3.458  0.00  0.00    +0.005 C 
ATOM      9  C   UNL     1      -9.148  -1.853  -2.559  0.00  0.00    +0.003 C 
ATOM     10  C   UNL     1      -9.101  -2.168  -1.078  0.00  0.00    +0.040 C 
ATOM     11  C   UNL     1      -7.693  -2.490  -0.594  0.00  0.00    +0.138 C 
ATOM     12  C   UNL     1      -6.672  -1.496  -1.066  0.00  0.00    +0.251 C 
ATOM     13  O   UNL     1      -6.395  -1.159  -2.197  0.00  0.00    -0.272 OA
ATOM     14  N   UNL     1      -6.087  -1.009   0.053  0.00  0.00    -0.216 N 
ATOM     15  C   UNL     1      -6.646  -1.513   1.158  0.00  0.00    +0.310 C 
ATOM     16  O   UNL     1      -6.283  -1.240   2.286  0.00  0.00    -0.252 OA
ATOM     17  N   UNL     1      -7.660  -2.350   0.878  0.00  0.00    -0.281 N 
ATOM     18  H   UNL     1      -8.256  -2.787   1.503  0.00  0.00    +0.152 HD
ENDROOT
BRANCH  14  19
ATOM     19  C   UNL     1      -4.985  -0.044   0.049  0.00  0.00    +0.197 C 
BRANCH  19  20
ATOM     20  C   UNL     1      -3.671  -0.782   0.032  0.00  0.00    +0.181 C 
ATOM     21  O   UNL     1      -3.657  -1.995   0.025  0.00  0.00    -0.290 OA
BRANCH  20  22
ATOM     22  C   UNL     1      -2.405  -0.032   0.024  0.00  0.00    +0.019 A 
ATOM     23  C   UNL     1      -2.416   1.367   0.032  0.00  0.00    +0.012 A 
ATOM     24  C   UNL     1      -1.226   2.060   0.020  0.00  0.00    +0.004 A 
ATOM     25  C   UNL     1      -0.017   1.380   0.010  0.00  0.00    -0.044 A 
ATOM     26  C   UNL     1       0.002  -0.004   0.002  0.00  0.00    -0.044 A 
ATOM     27  C   UNL     1      -1.185  -0.712   0.009  0.00  0.00    +0.015 A 
ATOM     28  C   UNL     1       1.434  -0.496  -0.014  0.00  0.00    +0.036 C 
ATOM     29  C   UNL     1       2.282   0.716   0.425  0.00  0.00    +0.009 C 
ATOM     30  C   UNL     1       1.402   1.910  -0.001  0.00  0.00    +0.036 C 
ENDBRANCH  20  22
ENDBRANCH  19  20
ENDBRANCH  14  19
TORSDOF 3
