REMARK  Name = ZINC18200085
REMARK  4 active torsions:
REMARK  status: ('A' for Active; 'I' for Inactive)
REMARK    1  A    between atoms: C_1  and  C_2
REMARK    2  A    between atoms: C_6  and  C_7
REMARK    3  A    between atoms: C_10  and  C_29
REMARK    4  A    between atoms: C_21  and  C_24
REMARK                            x       y       z     vdW  Elec       q    Type
REMARK                         _______ _______ _______ _____ _____    ______ ____
ROOT
ATOM      1  C   UNL     1      -1.155  -0.969   0.008  0.00  0.00    +0.096 C 
ATOM      2  C   UNL     1      -1.075  -1.838   1.231  0.00  0.00    +0.027 A 
ATOM      3  C   UNL     1      -1.337  -1.530   2.558  0.00  0.00    +0.066 A 
ATOM      4  N   UNL     1      -1.130  -2.606   3.280  0.00  0.00    -0.177 NA
ATOM      5  N   UNL     1      -0.725  -3.644   2.426  0.00  0.00    -0.263 N 
ATOM      6  H   UNL     1      -0.497  -4.579   2.699  0.00  0.00    +0.190 HD
ATOM      7  C   UNL     1      -0.700  -3.155   1.172  0.00  0.00    +0.122 A 
ATOM      8  N   UNL     1      -0.378  -3.763  -0.035  0.00  0.00    -0.303 N 
ATOM      9  C   UNL     1      -0.720  -3.126  -1.202  0.00  0.00    +0.017 C 
ATOM     10  C   UNL     1      -1.099  -1.831  -1.234  0.00  0.00    +0.024 C 
ATOM     11  C   UNL     1      -1.467  -1.217  -2.446  0.00  0.00    +0.162 C 
ATOM     12  O   UNL     1      -1.801  -0.049  -2.441  0.00  0.00    -0.292 OA
ATOM     13  C   UNL     1      -1.458  -1.972  -3.745  0.00  0.00    +0.088 C 
ATOM     14  C   UNL     1      -1.710  -3.456  -3.459  0.00  0.00    +0.039 C 
ATOM     15  C   UNL     1      -0.648  -3.943  -2.472  0.00  0.00    +0.060 C 
ATOM     16  C   UNL     1      -1.783  -0.189   3.081  0.00  0.00    +0.068 C 
ATOM     17  H   UNL     1       0.080  -4.618  -0.053  0.00  0.00    +0.153 HD
ENDROOT
BRANCH   1  23
ATOM     18  C   UNL     1      -1.325   2.098   0.020  0.00  0.00    +0.044 C 
ATOM     19  C   UNL     1      -0.016   1.351   0.009  0.00  0.00    -0.039 A 
ATOM     20  C   UNL     1       1.183   2.038   0.002  0.00  0.00    +0.011 A 
ATOM     21  C   UNL     1       2.343   1.336  -0.013  0.00  0.00    +0.046 A 
ATOM     22  S   UNL     1       1.754  -0.349  -0.017  0.00  0.00    -0.100 S 
ATOM     23  C   UNL     1       0.002  -0.004   0.002  0.00  0.00    +0.005 A 
ENDBRANCH   1  23
BRANCH  14  24
ATOM     24  C   UNL     1      -1.612  -4.244  -4.740  0.00  0.00    -0.006 A 
ATOM     25  C   UNL     1      -2.545  -5.031  -5.332  0.00  0.00    +0.011 A 
ATOM     26  C   UNL     1      -2.232  -5.662  -6.521  0.00  0.00    +0.008 A 
ATOM     27  C   UNL     1      -0.999  -5.484  -7.055  0.00  0.00    +0.045 A 
ATOM     28  S   UNL     1      -0.236  -4.390  -5.868  0.00  0.00    -0.101 S 
ENDBRANCH  14  24
TORSDOF 2
