REMARK  Name = ZINC40701863
REMARK  6 active torsions:
REMARK  status: ('A' for Active; 'I' for Inactive)
REMARK    1  A    between atoms: C_4  and  N_11
REMARK    2  A    between atoms: C_5  and  C_7
REMARK    3  A    between atoms: C_13  and  N_34
REMARK    4  A    between atoms: C_14  and  N_18
REMARK    5  A    between atoms: N_21  and  C_24
REMARK    6  A    between atoms: C_24  and  C_25
REMARK                            x       y       z     vdW  Elec       q    Type
REMARK                         _______ _______ _______ _____ _____    ______ ____
ROOT
ATOM      1  N   UNL     1       4.615   1.443  -2.346  0.00  0.00    -0.297 N 
ATOM      2  C   UNL     1       5.353   1.194  -1.194  0.00  0.00    +0.149 A 
ATOM      3  C   UNL     1       6.646   0.674  -1.279  0.00  0.00    +0.106 A 
ATOM      4  C   UNL     1       7.343   0.442  -0.091  0.00  0.00    +0.147 A 
ATOM      5  N   UNL     1       6.752   0.724   1.068  0.00  0.00    -0.219 NA
ATOM      6  C   UNL     1       5.530   1.213   1.104  0.00  0.00    +0.225 A 
ATOM      7  N   UNL     1       4.840   1.451   0.007  0.00  0.00    -0.219 NA
ATOM      8  H   UNL     1       4.962   1.177  -3.211  0.00  0.00    +0.154 HD
ENDROOT
BRANCH   4   9
ATOM      9  N   UNL     1       8.633  -0.074  -0.120  0.00  0.00    -0.317 N 
ATOM     10  C   UNL     1       8.871  -1.520   0.015  0.00  0.00    +0.088 C 
ATOM     11  C   UNL     1       9.933  -1.738   1.098  0.00  0.00    -0.059 C 
ATOM     12  N   UNL     1      11.131  -0.953   0.773  0.00  0.00    +0.384 N 
ATOM     13  C   UNL     1      10.815   0.480   0.813  0.00  0.00    -0.059 C 
ATOM     14  C   UNL     1       9.797   0.808  -0.290  0.00  0.00    +0.088 C 
ATOM     15  H   UNL     1      11.453  -1.200  -0.150  0.00  0.00    -0.081 HD
BRANCH  12  16
ATOM     16  C   UNL     1      12.186  -1.248   1.752  0.00  0.00    -0.043 C 
BRANCH  16  17
ATOM     17  C   UNL     1      13.454  -0.539   1.351  0.00  0.00    -0.060 A 
ATOM     18  C   UNL     1      14.363  -1.167   0.519  0.00  0.00    +0.005 A 
ATOM     19  C   UNL     1      15.527  -0.520   0.148  0.00  0.00    +0.050 A 
ATOM     20  C   UNL     1      15.786   0.760   0.611  0.00  0.00    +0.166 A 
ATOM     21  C   UNL     1      14.872   1.393   1.448  0.00  0.00    +0.166 A 
ATOM     22  C   UNL     1      13.704   0.741   1.811  0.00  0.00    +0.051 A 
ATOM     23  O   UNL     1      15.352   2.631   1.762  0.00  0.00    -0.453 OA
ATOM     24  C   UNL     1      16.755   2.593   1.441  0.00  0.00    +0.466 C 
ATOM     25  O   UNL     1      16.840   1.602   0.399  0.00  0.00    -0.453 OA
ENDBRANCH  16  17
ENDBRANCH  12  16
ENDBRANCH   4   9
BRANCH   1  29
ATOM     26  C   UNL     1       0.916   3.338  -2.080  0.00  0.00    +0.001 A 
ATOM     27  C   UNL     1       1.862   3.529  -1.089  0.00  0.00    +0.002 A 
ATOM     28  C   UNL     1       3.089   2.902  -1.174  0.00  0.00    +0.024 A 
ATOM     29  C   UNL     1       3.374   2.079  -2.256  0.00  0.00    +0.044 A 
ATOM     30  C   UNL     1       2.421   1.889  -3.249  0.00  0.00    +0.076 A 
ATOM     31  C   UNL     1       1.196   2.519  -3.158  0.00  0.00    +0.014 A 
BRANCH  30  32
ATOM     32  C   UNL     1       2.726   0.997  -4.425  0.00  0.00    +0.419 C 
ATOM     33  F   UNL     1       1.621   0.964  -5.284  0.00  0.00    -0.166 F 
ATOM     34  F   UNL     1       3.837   1.496  -5.114  0.00  0.00    -0.166 F 
ATOM     35  F   UNL     1       3.001  -0.297  -3.970  0.00  0.00    -0.166 F 
ENDBRANCH  30  32
ENDBRANCH   1  29
BRANCH   3  36
ATOM     36  N   UNL     1       7.229   0.392  -2.525  0.00  0.00    -0.353 N 
ATOM     37  H   UNL     1       6.763   0.625  -3.342  0.00  0.00    +0.143 HD
ATOM     38  H   UNL     1       8.099  -0.037  -2.567  0.00  0.00    +0.143 HD
ENDBRANCH   3  36
TORSDOF 6
