REMARK  Name = ZINC05227711
REMARK  5 active torsions:
REMARK  status: ('A' for Active; 'I' for Inactive)
REMARK    1  A    between atoms: C_1  and  C_2
REMARK    2  A    between atoms: N_4  and  C_5
REMARK    3  A    between atoms: C_7  and  O_28
REMARK    4  A    between atoms: C_15  and  C_18
REMARK    5  A    between atoms: C_25  and  O_27
REMARK                            x       y       z     vdW  Elec       q    Type
REMARK                         _______ _______ _______ _____ _____    ______ ____
ROOT
ATOM      1  C   UNL     1      -0.756   1.594  -1.231  0.00  0.00    +0.160 C 
ATOM      2  C   UNL     1      -0.013   1.086   0.008  0.00  0.00    +0.171 C 
ATOM      3  C   UNL     1      -0.732   1.581   1.267  0.00  0.00    +0.183 C 
ATOM      4  C   UNL     1      -2.193   1.123   1.227  0.00  0.00    +0.178 C 
ATOM      5  C   UNL     1      -2.237  -0.407   1.274  0.00  0.00    +0.197 C 
ATOM      6  O   UNL     1      -1.507  -0.857   2.420  0.00  0.00    -0.345 OA
ATOM      7  C   UNL     1      -0.146  -0.420   2.446  0.00  0.00    +0.282 C 
ATOM      8  O   UNL     1      -0.102   1.009   2.418  0.00  0.00    -0.339 OA
ATOM      9  O   UNL     1      -2.816   1.588   0.031  0.00  0.00    -0.341 OA
ATOM     10  C   UNL     1      -2.209   1.114  -1.173  0.00  0.00    +0.270 C 
ENDROOT
BRANCH   7  11
ATOM     11  C   UNL     1       0.517  -0.919   3.704  0.00  0.00    +0.008 A 
ATOM     12  C   UNL     1       1.052  -0.019   4.606  0.00  0.00    +0.008 A 
ATOM     13  C   UNL     1       1.657  -0.476   5.762  0.00  0.00    +0.000 A 
ATOM     14  C   UNL     1       1.735  -1.834   6.011  0.00  0.00    +0.000 A 
ATOM     15  C   UNL     1       1.205  -2.734   5.106  0.00  0.00    +0.000 A 
ATOM     16  C   UNL     1       0.596  -2.276   3.952  0.00  0.00    +0.008 A 
ENDBRANCH   7  11
BRANCH   1  20
ATOM     17  C   UNL     1       0.431   1.191  -4.848  0.00  0.00    +0.109 C 
ATOM     18  C   UNL     1      -0.231   1.730  -3.606  0.00  0.00    +0.210 C 
ATOM     19  O   UNL     1      -0.870   2.760  -3.659  0.00  0.00    -0.276 OA
ATOM     20  N   UNL     1      -0.112   1.069  -2.438  0.00  0.00    -0.305 N 
ATOM     21  H   UNL     1       0.400   0.246  -2.396  0.00  0.00    +0.149 HD
ENDBRANCH   1  20
BRANCH  10  22
ATOM     22  O   UNL     1      -2.926   1.622  -2.300  0.00  0.00    -0.365 OA
ATOM     23  H   UNL     1      -3.856   1.358  -2.326  0.00  0.00    +0.213 HD
ENDBRANCH  10  22
BRANCH   2  24
ATOM     24  O   UNL     1       1.327   1.581  -0.002  0.00  0.00    -0.387 OA
ATOM     25  H   UNL     1       1.842   1.308  -0.774  0.00  0.00    +0.210 HD
ENDBRANCH   2  24
TORSDOF 4
