REMARK  Name = ZINC63820582
REMARK  9 active torsions:
REMARK  status: ('A' for Active; 'I' for Inactive)
REMARK    1  A    between atoms: C_1  and  C_2
REMARK    2  A    between atoms: C_4  and  C_31
REMARK    3  A    between atoms: C_6  and  C_8
REMARK    4  A    between atoms: C_11  and  S_14
REMARK    5  A    between atoms: S_14  and  C_15
REMARK    6  A    between atoms: C_15  and  C_17
REMARK    7  A    between atoms: C_15  and  C_18
REMARK    8  A    between atoms: C_23  and  C_30
REMARK    9  A    between atoms: C_24  and  C_29
REMARK                            x       y       z     vdW  Elec       q    Type
REMARK                         _______ _______ _______ _____ _____    ______ ____
ROOT
ATOM      1  S   UNL     1       1.557  -3.181   5.691  0.00  0.00    -0.086 S 
ENDROOT
BRANCH   1   5
ATOM      2  C   UNL     1       0.053  -2.845   2.457  0.00  0.00    +0.239 C 
ATOM      3  N   UNL     1       0.076  -4.135   2.531  0.00  0.00    -0.145 NA
ATOM      4  N   UNL     1       0.087  -4.546   3.872  0.00  0.00    -0.219 N 
ATOM      5  C   UNL     1       0.067  -3.303   4.663  0.00  0.00    +0.340 C 
ATOM      6  O   UNL     1       0.051  -2.259   3.678  0.00  0.00    -0.442 OA
ATOM      7  H   UNL     1       0.104  -5.456   4.207  0.00  0.00    +0.173 HD
BRANCH   2  13
ATOM      8  C   UNL     1      -0.018   1.503   0.010  0.00  0.00    +0.044 C 
ATOM      9  C   UNL     1       0.002  -0.004   0.002  0.00  0.00    -0.049 A 
ATOM     10  C   UNL     1       0.006  -0.688  -1.201  0.00  0.00    +0.006 A 
ATOM     11  C   UNL     1       0.025  -2.071  -1.218  0.00  0.00    -0.049 A 
ATOM     12  C   UNL     1       0.040  -2.778  -0.033  0.00  0.00    +0.016 A 
ATOM     13  C   UNL     1       0.037  -2.095   1.184  0.00  0.00    +0.038 A 
ATOM     14  C   UNL     1       0.023  -0.699   1.194  0.00  0.00    +0.016 A 
ATOM     15  C   UNL     1       0.027  -2.807  -2.533  0.00  0.00    +0.044 C 
ENDBRANCH   2  13
ENDBRANCH   1   5
BRANCH   1  16
ATOM     16  C   UNL     1       2.919  -3.192   4.492  0.00  0.00    +0.114 C 
ATOM     17  C   UNL     1       2.844  -1.934   3.624  0.00  0.00    +0.027 C 
BRANCH  16  18
ATOM     18  C   UNL     1       4.234  -3.218   5.227  0.00  0.00    +0.136 C 
ATOM     19  N   UNL     1       4.323  -2.570   6.364  0.00  0.00    -0.160 NA
ATOM     20  C   UNL     1       5.446  -2.534   7.090  0.00  0.00    +0.271 C 
ATOM     21  O   UNL     1       5.494  -1.922   8.144  0.00  0.00    -0.268 OA
ATOM     22  C   UNL     1       6.641  -3.268   6.567  0.00  0.00    +0.071 C 
ATOM     23  C   UNL     1       7.860  -3.371   7.118  0.00  0.00    -0.045 C 
ATOM     24  C   UNL     1       8.900  -4.182   6.378  0.00  0.00    +0.076 C 
ATOM     25  S   UNL     1       7.959  -4.733   4.898  0.00  0.00    -0.098 S 
ATOM     26  C   UNL     1       6.410  -3.956   5.279  0.00  0.00    +0.111 C 
ATOM     27  N   UNL     1       5.237  -3.897   4.694  0.00  0.00    -0.226 NA
ATOM     28  C   UNL     1      10.091  -3.309   5.978  0.00  0.00    +0.024 C 
ATOM     29  C   UNL     1       8.182  -2.701   8.429  0.00  0.00    +0.041 C 
ENDBRANCH  16  18
ENDBRANCH   1  16
TORSDOF 4
