REMARK  Name = ZINC03171919
REMARK  11 active torsions:
REMARK  status: ('A' for Active; 'I' for Inactive)
REMARK    1  A    between atoms: C_1  and  C_2
REMARK    2  A    between atoms: C_6  and  C_33
REMARK    3  A    between atoms: C_7  and  N_8
REMARK    4  A    between atoms: N_11  and  C_12
REMARK    5  A    between atoms: C_12  and  C_13
REMARK    6  A    between atoms: C_16  and  N_21
REMARK    7  A    between atoms: C_18  and  C_19
REMARK    8  A    between atoms: C_18  and  C_20
REMARK    9  A    between atoms: N_24  and  C_25
REMARK   10  A    between atoms: C_26  and  C_32
REMARK   11  A    between atoms: C_30  and  C_31
REMARK                            x       y       z     vdW  Elec       q    Type
REMARK                         _______ _______ _______ _____ _____    ______ ____
ROOT
ATOM      1  C   UNL     1      -3.790   6.130   1.992  0.00  0.00    +0.015 C 
ATOM      2  C   UNL     1      -2.908   6.054   3.251  0.00  0.00    +0.028 C 
ATOM      3  C   UNL     1      -1.947   5.180   2.428  0.00  0.00    +0.081 C 
ATOM      4  C   UNL     1      -3.159   4.794   1.564  0.00  0.00    -0.012 C 
ATOM      5  C   UNL     1      -2.847   4.715   0.069  0.00  0.00    +0.013 C 
ATOM      6  C   UNL     1      -3.913   3.567   2.081  0.00  0.00    +0.013 C 
ENDROOT
BRANCH   3   7
ATOM      7  N   UNL     1      -1.381   4.058   3.181  0.00  0.00    -0.296 N 
ATOM      8  C   UNL     1      -0.097   4.098   3.587  0.00  0.00    +0.304 C 
ATOM      9  O   UNL     1       0.593   5.066   3.328  0.00  0.00    -0.253 OA
ATOM     10  N   UNL     1       0.423   3.066   4.281  0.00  0.00    -0.269 N 
ATOM     11  H   UNL     1      -1.932   3.287   3.388  0.00  0.00    +0.151 HD
ATOM     12  H   UNL     1      -0.142   2.321   4.538  0.00  0.00    +0.156 HD
BRANCH  10  13
ATOM     13  C   UNL     1       1.778   3.070   4.630  0.00  0.00    +0.041 A 
ATOM     14  C   UNL     1       2.162   2.773   5.931  0.00  0.00    -0.029 A 
ATOM     15  C   UNL     1       3.500   2.782   6.274  0.00  0.00    +0.005 A 
ATOM     16  C   UNL     1       4.457   3.088   5.323  0.00  0.00    +0.001 A 
ATOM     17  C   UNL     1       4.077   3.385   4.027  0.00  0.00    +0.005 A 
ATOM     18  C   UNL     1       2.741   3.376   3.678  0.00  0.00    -0.029 A 
ATOM     19  C   UNL     1       2.329   3.699   2.264  0.00  0.00    +0.045 C 
ATOM     20  C   UNL     1       1.121   2.439   6.968  0.00  0.00    +0.045 C 
ENDBRANCH  10  13
ENDBRANCH   3   7
BRANCH   1  21
ATOM     21  C   UNL     1      -5.288   6.034   2.285  0.00  0.00    +0.110 C 
BRANCH  21  25
ATOM     22  N   UNL     1      -7.611   8.762   3.111  0.00  0.00    -0.269 N 
ATOM     23  C   UNL     1      -7.125   7.532   2.853  0.00  0.00    +0.304 C 
ATOM     24  O   UNL     1      -7.864   6.567   2.880  0.00  0.00    -0.253 OA
ATOM     25  N   UNL     1      -5.818   7.371   2.566  0.00  0.00    -0.299 N 
ATOM     26  H   UNL     1      -7.036   9.538   3.030  0.00  0.00    +0.156 HD
ATOM     27  H   UNL     1      -5.228   8.140   2.545  0.00  0.00    +0.150 HD
BRANCH  22  34
ATOM     28  C   UNL     1      -9.641   7.921   1.302  0.00  0.00    +0.045 C 
ATOM     29  C   UNL     1      -9.969   8.522   2.645  0.00  0.00    -0.029 A 
ATOM     30  C   UNL     1     -11.287   8.674   3.031  0.00  0.00    +0.005 A 
ATOM     31  C   UNL     1     -11.589   9.230   4.260  0.00  0.00    +0.001 A 
ATOM     32  C   UNL     1     -10.574   9.631   5.109  0.00  0.00    +0.005 A 
ATOM     33  C   UNL     1      -9.254   9.477   4.731  0.00  0.00    -0.029 A 
ATOM     34  C   UNL     1      -8.947   8.919   3.497  0.00  0.00    +0.041 A 
ATOM     35  C   UNL     1      -8.148   9.914   5.657  0.00  0.00    +0.045 C 
ENDBRANCH  22  34
ENDBRANCH  21  25
ENDBRANCH   1  21
TORSDOF 5
