REMARK  Name = ZINC36266709
REMARK  5 active torsions:
REMARK  status: ('A' for Active; 'I' for Inactive)
REMARK    1  A    between atoms: C_4  and  S_8
REMARK    2  A    between atoms: S_8  and  N_11
REMARK    3  A    between atoms: N_11  and  C_12
REMARK    4  A    between atoms: C_12  and  C_13
REMARK    5  A    between atoms: C_13  and  N_19
REMARK                            x       y       z     vdW  Elec       q    Type
REMARK                         _______ _______ _______ _____ _____    ______ ____
ROOT
ATOM      1  N   UNL     1       4.379  -1.079   1.535  0.00  0.00    -0.191 NA
ATOM      2  H   UNL     1       5.176  -0.652   1.887  0.00  0.00    +0.148 HD
ENDROOT
BRANCH   1   3
ATOM      3  S   UNL     1       3.936  -0.832  -0.042  0.00  0.00    +0.061 S 
ATOM      4  O   UNL     1       3.677  -2.114  -0.597  0.00  0.00    -0.153 OA
ATOM      5  O   UNL     1       4.892   0.060  -0.597  0.00  0.00    -0.153 OA
BRANCH   3   9
ATOM      6  C   UNL     1      -0.017   1.378   0.010  0.00  0.00    +0.003 A 
ATOM      7  C   UNL     1       1.171   2.086   0.002  0.00  0.00    +0.022 A 
ATOM      8  C   UNL     1       2.378   1.411  -0.013  0.00  0.00    +0.069 A 
ATOM      9  C   UNL     1       2.398   0.028  -0.021  0.00  0.00    +0.142 A 
ATOM     10  C   UNL     1       1.209  -0.680  -0.013  0.00  0.00    +0.069 A 
ATOM     11  C   UNL     1       0.002  -0.004   0.002  0.00  0.00    +0.022 A 
ATOM     12 CL   UNL     1       1.233  -2.416  -0.023  0.00  0.00    -0.081 Cl
ATOM     13 CL   UNL     1       3.869   2.300  -0.024  0.00  0.00    -0.081 Cl
ENDBRANCH   3   9
ENDBRANCH   1   3
BRANCH   1  14
ATOM     14  C   UNL     1       3.569  -1.943   2.397  0.00  0.00    +0.093 C 
BRANCH  14  15
ATOM     15  C   UNL     1       4.367  -2.304   3.651  0.00  0.00    -0.057 C 
ATOM     16  C   UNL     1       4.625  -1.040   4.473  0.00  0.00    -0.012 C 
ATOM     17  C   UNL     1       5.423  -1.402   5.728  0.00  0.00    -0.001 C 
ATOM     18  C   UNL     1       4.627  -2.403   6.568  0.00  0.00    -0.000 C 
ATOM     19  C   UNL     1       4.369  -3.667   5.746  0.00  0.00    -0.001 C 
ATOM     20  C   UNL     1       3.571  -3.305   4.491  0.00  0.00    -0.012 C 
BRANCH  15  21
ATOM     21  N   UNL     1       5.649  -2.905   3.260  0.00  0.00    +0.383 N 
ATOM     22  H   UNL     1       6.174  -2.245   2.706  0.00  0.00    -0.089 HD
ATOM     23  H   UNL     1       6.176  -3.143   4.087  0.00  0.00    -0.089 HD
ATOM     24  H   UNL     1       5.479  -3.738   2.717  0.00  0.00    -0.089 HD
ENDBRANCH  15  21
ENDBRANCH  14  15
ENDBRANCH   1  14
TORSDOF 5
