REMARK  Name = ZINC20191172
REMARK  6 active torsions:
REMARK  status: ('A' for Active; 'I' for Inactive)
REMARK    1  A    between atoms: C_1  and  C_2
REMARK    2  A    between atoms: C_2  and  N_3
REMARK    3  A    between atoms: N_3  and  C_4
REMARK    4  A    between atoms: C_8  and  C_10
REMARK    5  A    between atoms: C_12  and  C_22
REMARK    6  A    between atoms: C_16  and  N_21
REMARK                            x       y       z     vdW  Elec       q    Type
REMARK                         _______ _______ _______ _____ _____    ______ ____
ROOT
ATOM      1  N   UNL     1      -0.069   5.240   0.030  0.00  0.00    -0.284 N 
ATOM      2  C   UNL     1      -1.271   5.924  -0.046  0.00  0.00    +0.144 A 
ATOM      3  C   UNL     1      -1.909   6.340   1.147  0.00  0.00    +0.092 A 
ATOM      4  C   UNL     1      -3.111   7.030   1.071  0.00  0.00    +0.032 A 
ATOM      5  C   UNL     1      -3.654   7.277  -0.203  0.00  0.00    +0.003 A 
ATOM      6  C   UNL     1      -4.871   7.964  -0.351  0.00  0.00    +0.032 A 
ATOM      7  C   UNL     1      -5.374   8.188  -1.613  0.00  0.00    +0.025 A 
ATOM      8  C   UNL     1      -4.683   7.739  -2.744  0.00  0.00    +0.025 A 
ATOM      9  C   UNL     1      -3.504   7.072  -2.625  0.00  0.00    +0.030 A 
ATOM     10  C   UNL     1      -2.960   6.824  -1.353  0.00  0.00    +0.073 A 
ATOM     11  N   UNL     1      -1.800   6.168  -1.225  0.00  0.00    -0.230 NA
ENDROOT
BRANCH   1  12
ATOM     12  C   UNL     1      -0.057   3.843   0.010  0.00  0.00    +0.035 A 
ATOM     13  C   UNL     1       1.150   3.157  -0.033  0.00  0.00    +0.023 A 
ATOM     14  C   UNL     1       1.159   1.776  -0.053  0.00  0.00    +0.002 A 
ATOM     15  C   UNL     1      -0.034   1.076  -0.031  0.00  0.00    +0.003 A 
ATOM     16  C   UNL     1      -1.238   1.755   0.006  0.00  0.00    -0.049 A 
ATOM     17  C   UNL     1      -1.253   3.136   0.033  0.00  0.00    +0.026 A 
ATOM     18  C   UNL     1      -2.535   0.988   0.024  0.00  0.00    +0.044 C 
ENDBRANCH   1  12
BRANCH   7  19
ATOM     19  N   UNL     1      -6.584   8.871  -1.766  0.00  0.00    -0.358 N 
ATOM     20  H   UNL     1      -6.990   9.053  -2.772  0.00  0.00    +0.142 HD
ATOM     21  H   UNL     1      -7.130   9.227  -0.880  0.00  0.00    +0.142 HD
ENDBRANCH   7  19
BRANCH   1  23
ATOM     22  C   UNL     1       1.676   6.357  -1.269  0.00  0.00    +0.025 C 
ATOM     23  C   UNL     1       1.190   5.982   0.132  0.00  0.00    +0.109 C 
ENDBRANCH   1  23
BRANCH   3  24
ATOM     24  C   UNL     1      -1.317   6.058   2.420  0.00  0.00    +0.103 C 
ATOM     25  N   UNL     1      -0.847   5.834   3.429  0.00  0.00    -0.191 NA
ENDBRANCH   3  24
TORSDOF 4
