REMARK  Name = ZINC17176562
REMARK  7 active torsions:
REMARK  status: ('A' for Active; 'I' for Inactive)
REMARK    1  A    between atoms: C_3  and  C_6
REMARK    2  A    between atoms: C_6  and  C_14
REMARK    3  A    between atoms: N_7  and  N_8
REMARK    4  A    between atoms: C_9  and  C_11
REMARK    5  A    between atoms: C_11  and  C_12
REMARK    6  A    between atoms: C_14  and  C_15
REMARK    7  A    between atoms: C_15  and  O_27
REMARK                            x       y       z     vdW  Elec       q    Type
REMARK                         _______ _______ _______ _____ _____    ______ ____
ROOT
ATOM      1  C   UNL     1       2.914   1.183  -1.239  0.00  0.00    +0.110 C 
ENDROOT
BRANCH   1   2
ATOM      2  C   UNL     1       2.583   1.728   0.152  0.00  0.00    +0.175 C 
ATOM      3  C   UNL     1       1.101   1.998   0.276  0.00  0.00    +0.034 A 
ATOM      4  C   UNL     1      -0.010   1.187   0.191  0.00  0.00    +0.049 A 
ATOM      5  C   UNL     1      -1.274   1.730   0.345  0.00  0.00    +0.022 A 
ATOM      6  C   UNL     1      -1.416   3.083   0.596  0.00  0.00    +0.023 A 
ATOM      7  C   UNL     1      -0.305   3.897   0.681  0.00  0.00    +0.063 A 
ATOM      8  C   UNL     1       0.972   3.359   0.520  0.00  0.00    +0.060 A 
ATOM      9  N   UNL     1       2.229   3.964   0.562  0.00  0.00    -0.281 N 
ATOM     10  C   UNL     1       3.224   3.084   0.357  0.00  0.00    +0.254 C 
ATOM     11  O   UNL     1       4.411   3.330   0.338  0.00  0.00    -0.272 OA
ATOM     12 CL   UNL     1      -0.497   5.595   0.989  0.00  0.00    -0.082 Cl
ATOM     13 CL   UNL     1       0.176  -0.511  -0.117  0.00  0.00    -0.083 Cl
ATOM     14  H   UNL     1       2.369   4.910   0.721  0.00  0.00    +0.155 HD
BRANCH   2  15
ATOM     15  O   UNL     1       3.011   0.811   1.162  0.00  0.00    -0.374 OA
ATOM     16  H   UNL     1       2.852   1.119   2.065  0.00  0.00    +0.211 HD
ENDBRANCH   2  15
ENDBRANCH   1   2
BRANCH   1  17
ATOM     17  C   UNL     1       4.393   0.905  -1.331  0.00  0.00    +0.105 C 
ATOM     18  N   UNL     1       4.872  -0.220  -0.888  0.00  0.00    -0.181 NA
BRANCH  17  21
ATOM     19  C   UNL     1       7.100   2.993  -2.615  0.00  0.00    +0.042 A 
ATOM     20  C   UNL     1       6.653   1.826  -1.969  0.00  0.00    +0.051 A 
ATOM     21  C   UNL     1       5.291   1.904  -1.918  0.00  0.00    +0.150 A 
ATOM     22  O   UNL     1       4.916   3.057  -2.508  0.00  0.00    -0.462 OA
ATOM     23  C   UNL     1       6.007   3.720  -2.924  0.00  0.00    +0.196 A 
ENDBRANCH  17  21
BRANCH  18  24
ATOM     24  N   UNL     1       4.003  -1.224  -0.440  0.00  0.00    -0.206 N 
ATOM     25  C   UNL     1       4.500  -2.349   0.110  0.00  0.00    +0.246 C 
ATOM     26  O   UNL     1       5.700  -2.494   0.217  0.00  0.00    -0.273 OA
ATOM     27  H   UNL     1       3.044  -1.108  -0.525  0.00  0.00    +0.177 HD
BRANCH  25  28
ATOM     28  C   UNL     1       3.566  -3.428   0.593  0.00  0.00    +0.215 C 
BRANCH  28  29
ATOM     29  C   UNL     1       4.349  -4.544   1.148  0.00  0.00    +0.072 C 
ATOM     30  N   UNL     1       4.954  -5.405   1.575  0.00  0.00    -0.196 NA
ENDBRANCH  28  29
ENDBRANCH  25  28
ENDBRANCH  18  24
ENDBRANCH   1  17
TORSDOF 7
