REMARK  Name = ZINC52835951
REMARK  3 active torsions:
REMARK  status: ('A' for Active; 'I' for Inactive)
REMARK    1  A    between atoms: C_1  and  C_2
REMARK    2  A    between atoms: N_9  and  C_10
REMARK    3  A    between atoms: C_16  and  C_18
REMARK                            x       y       z     vdW  Elec       q    Type
REMARK                         _______ _______ _______ _____ _____    ______ ____
ROOT
ATOM      1  C   UNL     1      -0.018   1.503   0.010  0.00  0.00    +0.088 C 
ATOM      2  C   UNL     1       0.002  -0.004   0.002  0.00  0.00    +0.130 A 
ATOM      3  N   UNL     1       0.005  -0.638  -1.153  0.00  0.00    -0.218 NA
ATOM      4  C   UNL     1       0.024  -1.967  -1.199  0.00  0.00    +0.124 A 
ATOM      5  C   UNL     1       0.039  -2.684  -0.001  0.00  0.00    +0.083 A 
ATOM      6  C   UNL     1       0.035  -1.977   1.187  0.00  0.00    +0.135 A 
ATOM      7  N   UNL     1       0.022  -0.650   1.150  0.00  0.00    -0.221 NA
ATOM      8 CL   UNL     1       0.055  -2.813   2.708  0.00  0.00    -0.062 Cl
ATOM      9  N   UNL     1       0.026  -2.630  -2.416  0.00  0.00    -0.326 N 
ATOM     10  H   UNL     1       0.015  -2.124  -3.243  0.00  0.00    +0.148 HD
ENDROOT
BRANCH   9  11
ATOM     11  C   UNL     1       0.046  -4.094  -2.452  0.00  0.00    +0.075 C 
ATOM     12  C   UNL     1      -1.383  -4.627  -2.332  0.00  0.00    +0.022 C 
ATOM     13  C   UNL     1      -1.361  -6.157  -2.370  0.00  0.00    +0.002 C 
ATOM     14  C   UNL     1      -0.752  -6.625  -3.693  0.00  0.00    +0.000 C 
ATOM     15  C   UNL     1       0.677  -6.092  -3.813  0.00  0.00    +0.005 C 
ATOM     16  C   UNL     1       0.656  -4.563  -3.775  0.00  0.00    +0.006 C 
ATOM     17  C   UNL     1       2.085  -4.030  -3.896  0.00  0.00    +0.009 C 
ENDBRANCH   9  11
TORSDOF 1
