REMARK  Name = ZINC04492108
REMARK  4 active torsions:
REMARK  status: ('A' for Active; 'I' for Inactive)
REMARK    1  A    between atoms: C_2  and  C_10
REMARK    2  A    between atoms: C_5  and  O_8
REMARK    3  A    between atoms: N_11  and  N_12
REMARK    4  A    between atoms: N_17  and  N_18
REMARK                            x       y       z     vdW  Elec       q    Type
REMARK                         _______ _______ _______ _____ _____    ______ ____
ROOT
ATOM      1  C   UNL     1       1.352   6.683   0.023  0.00  0.00    +0.138 C 
ATOM      2  N   UNL     1       0.661   5.583   0.024  0.00  0.00    -0.188 NA
ENDROOT
BRANCH   1   4
ATOM      3  C   UNL     1       1.404   9.170   0.034  0.00  0.00    +0.028 A 
ATOM      4  C   UNL     1       0.663   7.986   0.035  0.00  0.00    -0.003 A 
ATOM      5  C   UNL     1      -0.733   8.040   0.043  0.00  0.00    +0.028 A 
ATOM      6  C   UNL     1      -1.374   9.262   0.060  0.00  0.00    +0.061 A 
ATOM      7  C   UNL     1      -0.633  10.437   0.059  0.00  0.00    +0.145 A 
ATOM      8  C   UNL     1       0.755  10.387   0.046  0.00  0.00    +0.061 A 
ATOM      9 BR   UNL     1       1.757  11.991   0.045  0.00  0.00    -0.046 Br
ATOM     10 BR   UNL     1      -3.263   9.337   0.077  0.00  0.00    -0.046 Br
BRANCH   7  11
ATOM     11  O   UNL     1      -1.268  11.638   0.070  0.00  0.00    -0.505 OA
ATOM     12  H   UNL     1      -1.460  11.990  -0.811  0.00  0.00    +0.292 HD
ENDBRANCH   7  11
ENDBRANCH   1   4
BRANCH   2  13
ATOM     13  N   UNL     1       1.316   4.345   0.012  0.00  0.00    -0.204 N 
ATOM     14  C   UNL     1       0.579   3.172   0.013  0.00  0.00    +0.253 A 
ATOM     15  N   UNL     1      -0.730   3.072   0.024  0.00  0.00    -0.110 NA
ATOM     16  N   UNL     1      -1.073   1.834   0.016  0.00  0.00    -0.135 NA
ATOM     17  C   UNL     1      -0.013   1.076   0.008  0.00  0.00    +0.245 A 
ATOM     18  N   UNL     1       1.077   1.900   0.002  0.00  0.00    -0.223 N 
ATOM     19  H   UNL     1       2.285   4.309   0.003  0.00  0.00    +0.177 HD
BRANCH  18  20
ATOM     20  N   UNL     1       2.392   1.530  -0.012  0.00  0.00    -0.294 N 
ATOM     21  H   UNL     1       2.731   1.436  -0.958  0.00  0.00    +0.163 HD
ATOM     22  H   UNL     1       2.957   2.181   0.512  0.00  0.00    +0.163 HD
ENDBRANCH  18  20
ENDBRANCH   2  13
TORSDOF 4
