REMARK  Name = ZINC41463749
REMARK  4 active torsions:
REMARK  status: ('A' for Active; 'I' for Inactive)
REMARK    1  A    between atoms: C_3  and  C_18
REMARK    2  A    between atoms: N_7  and  C_8
REMARK    3  A    between atoms: C_8  and  C_9
REMARK    4  A    between atoms: C_18  and  N_20
REMARK                            x       y       z     vdW  Elec       q    Type
REMARK                         _______ _______ _______ _____ _____    ______ ____
ROOT
ATOM      1  C   UNL     1      -0.015   1.382   0.008  0.00  0.00    +0.020 A 
ATOM      2  C   UNL     1       1.182   2.077  -0.002  0.00  0.00    +0.015 A 
ATOM      3  C   UNL     1       2.375   1.346  -0.016  0.00  0.00    +0.043 A 
ATOM      4  C   UNL     1       2.308  -0.059  -0.019  0.00  0.00    +0.128 A 
ATOM      5  N   UNL     1       1.136  -0.672  -0.009  0.00  0.00    -0.240 NA
ATOM      6  C   UNL     1       0.000  -0.001   0.005  0.00  0.00    +0.113 A 
ATOM      7  N   UNL     1       3.474  -0.803  -0.033  0.00  0.00    -0.324 N 
ATOM      8  H   UNL     1       4.334  -0.359   0.035  0.00  0.00    +0.148 HD
ENDROOT
BRANCH   3   9
ATOM      9  C   UNL     1       3.676   2.035  -0.029  0.00  0.00    +0.080 C 
ATOM     10  S   UNL     1       4.389   2.545   1.442  0.00  0.00    -0.035 S 
BRANCH   9  11
ATOM     11  N   UNL     1       4.307   2.264  -1.198  0.00  0.00    -0.352 N 
ATOM     12  H   UNL     1       3.903   1.974  -2.031  0.00  0.00    +0.143 HD
ATOM     13  H   UNL     1       5.164   2.717  -1.206  0.00  0.00    +0.143 HD
ENDBRANCH   9  11
ENDBRANCH   3   9
BRANCH   7  14
ATOM     14  C   UNL     1       3.411  -2.262  -0.149  0.00  0.00    +0.138 C 
BRANCH  14  15
ATOM     15  C   UNL     1       4.808  -2.828  -0.140  0.00  0.00    -0.027 A 
ATOM     16  C   UNL     1       5.494  -2.988  -1.329  0.00  0.00    +0.009 A 
ATOM     17  C   UNL     1       6.776  -3.507  -1.326  0.00  0.00    +0.050 A 
ATOM     18  C   UNL     1       7.375  -3.867  -0.130  0.00  0.00    +0.166 A 
ATOM     19  C   UNL     1       6.683  -3.705   1.068  0.00  0.00    +0.167 A 
ATOM     20  C   UNL     1       5.401  -3.180   1.058  0.00  0.00    +0.054 A 
ATOM     21  O   UNL     1       7.480  -4.129   2.092  0.00  0.00    -0.453 OA
ATOM     22  C   UNL     1       8.506  -4.930   1.476  0.00  0.00    +0.466 C 
ATOM     23  O   UNL     1       8.605  -4.392   0.144  0.00  0.00    -0.453 OA
ENDBRANCH  14  15
ENDBRANCH   7  14
TORSDOF 4
