REMARK  Name = ZINC40149146
REMARK  8 active torsions:
REMARK  status: ('A' for Active; 'I' for Inactive)
REMARK    1  A    between atoms: C_1  and  C_2
REMARK    2  A    between atoms: C_5  and  N_9
REMARK    3  A    between atoms: N_12  and  C_16
REMARK    4  A    between atoms: C_16  and  N_17
REMARK    5  A    between atoms: N_17  and  C_18
REMARK    6  A    between atoms: N_17  and  C_19
REMARK    7  A    between atoms: C_19  and  C_20
REMARK    8  A    between atoms: N_22  and  C_23
REMARK                            x       y       z     vdW  Elec       q    Type
REMARK                         _______ _______ _______ _____ _____    ______ ____
ROOT
ATOM      1  N   UNL     1       0.057  -4.169  -0.022  0.00  0.00    -0.292 N 
ATOM      2  C   UNL     1       0.177  -4.869   1.171  0.00  0.00    +0.184 A 
ATOM      3  N   UNL     1       0.306  -6.157   1.360  0.00  0.00    -0.149 NA
ATOM      4  N   UNL     1       0.413  -6.668   2.633  0.00  0.00    -0.265 N 
ATOM      5  C   UNL     1       0.381  -5.810   3.684  0.00  0.00    +0.143 A 
ATOM      6  S   UNL     1       0.488  -6.139   5.360  0.00  0.00    -0.023 S 
ATOM      7  S   UNL     1       0.203  -4.244   2.843  0.00  0.00    -0.026 S 
ATOM      8  H   UNL     1      -0.017  -4.650  -0.861  0.00  0.00    +0.154 HD
ENDROOT
BRANCH   1  13
ATOM      9  C   UNL     1       0.006   1.503   0.012  0.00  0.00    +0.045 C 
ATOM     10  C   UNL     1       0.019  -0.004   0.003  0.00  0.00    -0.032 A 
ATOM     11  C   UNL     1       0.779  -0.693   0.930  0.00  0.00    +0.006 A 
ATOM     12  C   UNL     1       0.794  -2.074   0.925  0.00  0.00    +0.023 A 
ATOM     13  C   UNL     1       0.044  -2.772  -0.014  0.00  0.00    +0.034 A 
ATOM     14  C   UNL     1      -0.719  -2.078  -0.944  0.00  0.00    +0.043 A 
ATOM     15  C   UNL     1      -0.734  -0.695  -0.930  0.00  0.00    +0.046 A 
ATOM     16 CL   UNL     1      -1.692   0.174  -2.087  0.00  0.00    -0.083 Cl
ENDBRANCH   1  13
BRANCH   4  17
ATOM     17  C   UNL     1       0.557  -8.110   2.850  0.00  0.00    +0.071 C 
BRANCH  17  18
ATOM     18  N   UNL     1       1.925  -8.522   2.507  0.00  0.00    +0.397 N 
ATOM     19  C   UNL     1       2.873  -7.893   3.436  0.00  0.00    -0.093 C 
ATOM     20  H   UNL     1       2.137  -8.234   1.564  0.00  0.00    -0.079 HD
BRANCH  18  21
ATOM     21  C   UNL     1       2.036  -9.983   2.609  0.00  0.00    +0.021 C 
BRANCH  21  22
ATOM     22  C   UNL     1       3.401 -10.417   2.141  0.00  0.00    +0.197 C 
ATOM     23  O   UNL     1       4.202  -9.590   1.759  0.00  0.00    -0.278 OA
ATOM     24  N   UNL     1       3.732 -11.724   2.145  0.00  0.00    -0.312 N 
ATOM     25  H   UNL     1       3.091 -12.385   2.451  0.00  0.00    +0.149 HD
BRANCH  24  26
ATOM     26  C   UNL     1       5.059 -12.145   1.690  0.00  0.00    +0.095 C 
ATOM     27  C   UNL     1       5.046 -12.340   0.164  0.00  0.00    +0.046 C 
ATOM     28  C   UNL     1       6.328 -13.084  -0.283  0.00  0.00    +0.168 C 
ATOM     29  S   UNL     1       6.755 -14.081   1.202  0.00  0.00    -0.029 S 
ATOM     30  O   UNL     1       8.016 -13.654   1.698  0.00  0.00    -0.174 OA
ATOM     31  O   UNL     1       6.548 -15.456   0.910  0.00  0.00    -0.174 OA
ATOM     32  C   UNL     1       5.433 -13.504   2.348  0.00  0.00    +0.188 C 
ENDBRANCH  24  26
ENDBRANCH  21  22
ENDBRANCH  18  21
ENDBRANCH  17  18
ENDBRANCH   4  17
TORSDOF 6
