REMARK  Name = ZINC64137399
REMARK  8 active torsions:
REMARK  status: ('A' for Active; 'I' for Inactive)
REMARK    1  A    between atoms: C_1  and  N_2
REMARK    2  A    between atoms: N_2  and  C_3
REMARK    3  A    between atoms: C_3  and  C_5
REMARK    4  A    between atoms: C_3  and  C_13
REMARK    5  A    between atoms: C_5  and  C_6
REMARK    6  A    between atoms: N_16  and  C_19
REMARK    7  A    between atoms: C_19  and  C_20
REMARK    8  A    between atoms: C_30  and  C_32
REMARK                            x       y       z     vdW  Elec       q    Type
REMARK                         _______ _______ _______ _____ _____    ______ ____
ROOT
ATOM      1  C   UNL     1       0.378  -0.409   1.897  0.00  0.00    +0.083 C 
ENDROOT
BRANCH   1   2
ATOM      2  C   UNL     1       1.772  -0.326   2.521  0.00  0.00    +0.006 C 
ATOM      3  C   UNL     1       2.026   1.100   3.019  0.00  0.00    -0.013 C 
ATOM      4  C   UNL     1       3.451   1.196   3.569  0.00  0.00    -0.078 C 
ATOM      5  N   UNL     1       4.412   0.868   2.508  0.00  0.00    +0.381 N 
ATOM      6  C   UNL     1       4.221  -0.521   2.076  0.00  0.00    -0.078 C 
ATOM      7  C   UNL     1       2.826  -0.683   1.468  0.00  0.00    -0.013 C 
ATOM      8  H   UNL     1       4.269   1.486   1.724  0.00  0.00    -0.082 HD
BRANCH   5   9
ATOM      9  C   UNL     1       5.779   1.037   3.019  0.00  0.00    -0.050 C 
BRANCH   9  10
ATOM     10  C   UNL     1       6.034   2.517   3.313  0.00  0.00    +0.086 C 
ATOM     11  C   UNL     1       7.496   2.741   3.631  0.00  0.00    +0.005 C 
ATOM     12  C   UNL     1       7.957   3.595   2.690  0.00  0.00    -0.004 A 
ATOM     13  C   UNL     1       9.276   4.194   2.451  0.00  0.00    +0.010 A 
ATOM     14  C   UNL     1       9.435   5.034   1.403  0.00  0.00    +0.001 A 
ATOM     15  C   UNL     1       8.375   5.346   0.541  0.00  0.00    +0.002 A 
ATOM     16  C   UNL     1       7.135   4.837   0.696  0.00  0.00    +0.026 A 
ATOM     17  C   UNL     1       6.854   3.942   1.765  0.00  0.00    +0.043 A 
ATOM     18  N   UNL     1       5.752   3.325   2.122  0.00  0.00    -0.380 N 
ATOM     19  H   UNL     1       4.894   3.392   1.673  0.00  0.00    +0.160 HD
ENDBRANCH   9  10
ENDBRANCH   5   9
ENDBRANCH   1   2
BRANCH   1  21
ATOM     20  C   UNL     1      -0.666  -0.802   4.176  0.00  0.00    +0.132 C 
ATOM     21  N   UNL     1      -0.629  -0.072   2.907  0.00  0.00    -0.294 N 
ATOM     22  C   UNL     1      -1.522   0.909   2.668  0.00  0.00    +0.282 C 
ATOM     23  O   UNL     1      -1.553   1.451   1.579  0.00  0.00    -0.267 OA
BRANCH  22  24
ATOM     24  C   UNL     1      -2.455   1.324   3.720  0.00  0.00    +0.189 A 
ATOM     25  C   UNL     1      -3.465   2.233   3.584  0.00  0.00    +0.054 A 
ATOM     26  C   UNL     1      -4.099   2.321   4.833  0.00  0.00    +0.042 A 
ATOM     27  C   UNL     1      -3.457   1.473   5.666  0.00  0.00    +0.196 A 
ATOM     28  O   UNL     1      -2.470   0.871   4.991  0.00  0.00    -0.458 OA
ENDBRANCH  22  24
ENDBRANCH   1  21
BRANCH   1  29
ATOM     29  C   UNL     1       0.132  -1.829   1.386  0.00  0.00    +0.059 C 
BRANCH  29  30
ATOM     30  C   UNL     1      -1.190  -1.881   0.663  0.00  0.00    -0.027 A 
ATOM     31  C   UNL     1      -2.331  -2.275   1.337  0.00  0.00    +0.005 A 
ATOM     32  C   UNL     1      -3.543  -2.322   0.675  0.00  0.00    +0.000 A 
ATOM     33  C   UNL     1      -3.615  -1.977  -0.662  0.00  0.00    +0.001 A 
ATOM     34  C   UNL     1      -2.475  -1.583  -1.337  0.00  0.00    +0.020 A 
ATOM     35  C   UNL     1      -1.262  -1.530  -0.673  0.00  0.00    +0.044 A 
ATOM     36 CL   UNL     1       0.169  -1.029  -1.518  0.00  0.00    -0.083 Cl
ENDBRANCH  29  30
ENDBRANCH   1  29
TORSDOF 7
