REMARK  Name = ZINC04555580
REMARK  8 active torsions:
REMARK  status: ('A' for Active; 'I' for Inactive)
REMARK    1  A    between atoms: C_1  and  C_2
REMARK    2  A    between atoms: C_2  and  C_3
REMARK    3  A    between atoms: C_2  and  C_4
REMARK    4  A    between atoms: C_7  and  C_10
REMARK    5  A    between atoms: C_21  and  C_22
REMARK    6  A    between atoms: C_21  and  C_23
REMARK    7  A    between atoms: C_21  and  N_53
REMARK    8  A    between atoms: C_24  and  O_26
REMARK                            x       y       z     vdW  Elec       q    Type
REMARK                         _______ _______ _______ _____ _____    ______ ____
ROOT
ATOM      1  C   UNL     1      -8.267  -2.213   1.435  0.00  0.00    +0.224 C 
ATOM      2  N   UNL     1      -6.981  -2.932   1.365  0.00  0.00    -0.313 N 
ATOM      3  C   UNL     1      -5.848  -2.156   1.367  0.00  0.00    +0.080 A 
ATOM      4  C   UNL     1      -5.823  -0.864   1.909  0.00  0.00    +0.067 A 
ATOM      5  C   UNL     1      -4.548  -0.176   1.844  0.00  0.00    -0.027 A 
ATOM      6  C   UNL     1      -3.538  -0.865   1.262  0.00  0.00    -0.021 A 
ATOM      7  S   UNL     1      -4.254  -2.419   0.800  0.00  0.00    -0.080 S 
ATOM      8  C   UNL     1      -2.134  -0.389   1.065  0.00  0.00    -0.035 C 
ATOM      9  C   UNL     1      -2.790   1.426   2.529  0.00  0.00    -0.073 C 
ATOM     10  C   UNL     1      -4.301   1.230   2.378  0.00  0.00    +0.018 C 
ATOM     11  C   UNL     1      -7.086  -0.352   2.501  0.00  0.00    +0.220 C 
ATOM     12  N   UNL     1      -8.177  -1.035   2.289  0.00  0.00    -0.223 NA
ATOM     13  H   UNL     1      -6.938  -3.900   1.321  0.00  0.00    +0.149 HD
ATOM     14  N   UNL     1      -2.122   1.082   1.258  0.00  0.00    +0.384 N 
ATOM     15  H   UNL     1      -2.629   1.525   0.483  0.00  0.00    -0.081 HD
ENDROOT
BRANCH   1  19
ATOM     16  C   UNL     1      -9.398  -0.995  -2.500  0.00  0.00    -0.045 A 
ATOM     17  C   UNL     1      -9.783  -0.243  -1.406  0.00  0.00    +0.004 A 
ATOM     18  C   UNL     1      -9.417  -0.637  -0.133  0.00  0.00    +0.007 A 
ATOM     19  C   UNL     1      -8.666  -1.784   0.047  0.00  0.00    -0.005 A 
ATOM     20  C   UNL     1      -8.276  -2.533  -1.047  0.00  0.00    +0.007 A 
ATOM     21  C   UNL     1      -8.647  -2.142  -2.320  0.00  0.00    +0.004 A 
BRANCH  16  23
ATOM     22  C   UNL     1      -8.540  -0.320  -4.726  0.00  0.00    +0.012 C 
ATOM     23  C   UNL     1      -9.796  -0.565  -3.888  0.00  0.00    +0.013 C 
ATOM     24  C   UNL     1     -10.638  -1.664  -4.540  0.00  0.00    +0.012 C 
ENDBRANCH  16  23
ENDBRANCH   1  19
BRANCH  14  25
ATOM     25  C   UNL     1      -0.729   1.579   1.267  0.00  0.00    -0.074 C 
ATOM     26  C   UNL     1      -0.013   1.086   0.008  0.00  0.00    -0.014 C 
ATOM     27  C   UNL     1      -0.750   3.109   1.275  0.00  0.00    -0.014 C 
ENDBRANCH  14  25
BRANCH  11  28
ATOM     28  O   UNL     1      -7.104   0.784   3.236  0.00  0.00    -0.492 OA
ATOM     29  H   UNL     1      -7.979   1.022   3.571  0.00  0.00    +0.294 HD
ENDBRANCH  11  28
TORSDOF 4
