REMARK  Name = ZINC03077457
REMARK  6 active torsions:
REMARK  status: ('A' for Active; 'I' for Inactive)
REMARK    1  A    between atoms: C_3  and  O_8
REMARK    2  A    between atoms: C_6  and  N_7
REMARK    3  A    between atoms: O_8  and  C_9
REMARK    4  A    between atoms: C_16  and  O_19
REMARK    5  A    between atoms: O_19  and  C_20
REMARK    6  A    between atoms: C_23  and  N_26
REMARK                            x       y       z     vdW  Elec       q    Type
REMARK                         _______ _______ _______ _____ _____    ______ ____
ROOT
ATOM      1  C   UNL     1       0.451  -2.821  -0.050  0.00  0.00    +0.129 A 
ATOM      2  C   UNL     1      -0.844  -2.295  -0.015  0.00  0.00    +0.048 A 
ATOM      3  C   UNL     1      -1.054  -0.952   0.023  0.00  0.00    +0.032 A 
ATOM      4  C   UNL     1       0.043  -0.072   0.027  0.00  0.00    +0.071 A 
ATOM      5  C   UNL     1       1.357  -0.605  -0.010  0.00  0.00    +0.007 A 
ATOM      6  C   UNL     1       1.540  -1.997  -0.049  0.00  0.00    +0.056 A 
ATOM      7  C   UNL     1       2.453   0.276  -0.007  0.00  0.00    +0.058 A 
ATOM      8  C   UNL     1       2.199   1.623   0.032  0.00  0.00    +0.147 A 
ATOM      9  C   UNL     1       0.878   2.080   0.066  0.00  0.00    +0.157 A 
ATOM     10  N   UNL     1      -0.138   1.252   0.063  0.00  0.00    -0.251 NA
ENDROOT
BRANCH   1  11
ATOM     11  O   UNL     1       0.628  -4.168  -0.087  0.00  0.00    -0.456 OA
BRANCH  11  14
ATOM     12  C   UNL     1      -0.592  -4.798  -3.456  0.00  0.00    +0.026 A 
ATOM     13  C   UNL     1      -0.197  -4.124  -2.318  0.00  0.00    +0.048 A 
ATOM     14  C   UNL     1       0.240  -4.832  -1.208  0.00  0.00    +0.129 A 
ATOM     15  C   UNL     1       0.286  -6.218  -1.244  0.00  0.00    +0.048 A 
ATOM     16  C   UNL     1      -0.114  -6.894  -2.380  0.00  0.00    +0.026 A 
ATOM     17  C   UNL     1      -0.551  -6.185  -3.491  0.00  0.00    +0.025 A 
BRANCH  17  18
ATOM     18  N   UNL     1      -0.951  -6.869  -4.644  0.00  0.00    -0.358 N 
ATOM     19  H   UNL     1      -1.257  -6.374  -5.420  0.00  0.00    +0.142 HD
ATOM     20  H   UNL     1      -0.923  -7.838  -4.668  0.00  0.00    +0.142 HD
ENDBRANCH  17  18
ENDBRANCH  11  14
ENDBRANCH   1  11
BRANCH   8  21
ATOM     21  O   UNL     1       3.227   2.510   0.037  0.00  0.00    -0.454 OA
BRANCH  21  22
ATOM     22  C   UNL     1       3.877   2.741  -1.135  0.00  0.00    +0.129 A 
ATOM     23  C   UNL     1       3.551   2.006  -2.265  0.00  0.00    +0.048 A 
ATOM     24  C   UNL     1       4.206   2.243  -3.457  0.00  0.00    +0.026 A 
ATOM     25  C   UNL     1       5.201   3.210  -3.522  0.00  0.00    +0.025 A 
ATOM     26  C   UNL     1       5.531   3.942  -2.388  0.00  0.00    +0.026 A 
ATOM     27  C   UNL     1       4.870   3.707  -1.198  0.00  0.00    +0.048 A 
BRANCH  25  28
ATOM     28  N   UNL     1       5.870   3.447  -4.727  0.00  0.00    -0.358 N 
ATOM     29  H   UNL     1       6.564   4.123  -4.772  0.00  0.00    +0.142 HD
ATOM     30  H   UNL     1       5.639   2.936  -5.519  0.00  0.00    +0.142 HD
ENDBRANCH  25  28
ENDBRANCH  21  22
ENDBRANCH   8  21
TORSDOF 6
