REMARK  Name = ZINC61569514
REMARK  1 active torsions:
REMARK  status: ('A' for Active; 'I' for Inactive)
REMARK    1  A    between atoms: C_2  and  C_11
REMARK                            x       y       z     vdW  Elec       q    Type
REMARK                         _______ _______ _______ _____ _____    ______ ____
ROOT
ATOM      1  C   UNL     1      -0.017   1.381   0.010  0.00  0.00    +0.055 A 
ATOM      2  C   UNL     1       1.171   2.090   0.002  0.00  0.00    -0.014 A 
ATOM      3  C   UNL     1       2.379   1.419  -0.013  0.00  0.00    +0.025 A 
ATOM      4  C   UNL     1       2.406   0.036  -0.021  0.00  0.00    +0.064 A 
ATOM      5  C   UNL     1       1.220  -0.680  -0.014  0.00  0.00    +0.180 A 
ATOM      6  C   UNL     1       0.002  -0.004   0.002  0.00  0.00    +0.168 A 
ATOM      7  O   UNL     1      -1.007  -0.923   0.006  0.00  0.00    -0.453 OA
ATOM      8  C   UNL     1      -0.404  -2.159  -0.419  0.00  0.00    +0.466 C 
ATOM      9  O   UNL     1       0.973  -2.023  -0.020  0.00  0.00    -0.451 OA
ATOM     10 BR   UNL     1       4.061  -0.877  -0.043  0.00  0.00    -0.046 Br
ENDROOT
BRANCH   2  11
ATOM     11  C   UNL     1       1.147   3.596   0.010  0.00  0.00    +0.191 C 
ATOM     12  C   UNL     1       1.484   4.128   1.390  0.00  0.00    +0.245 C 
ATOM     13  O   UNL     1       0.870   3.937   2.417  0.00  0.00    -0.273 OA
ATOM     14  N   UNL     1       2.608   4.854   1.236  0.00  0.00    -0.238 N 
ATOM     15  C   UNL     1       3.024   4.856  -0.036  0.00  0.00    +0.307 C 
ATOM     16  O   UNL     1       4.016   5.443  -0.421  0.00  0.00    -0.252 OA
ATOM     17  N   UNL     1       2.219   4.136  -0.844  0.00  0.00    -0.284 N 
ATOM     18  H   UNL     1       3.060   5.319   1.958  0.00  0.00    +0.159 HD
ATOM     19  H   UNL     1       2.324   3.999  -1.798  0.00  0.00    +0.151 HD
ENDBRANCH   2  11
TORSDOF 1
