REMARK  Name = ZINC57481643
REMARK  13 active torsions:
REMARK  status: ('A' for Active; 'I' for Inactive)
REMARK    1  A    between atoms: C_1  and  C_2
REMARK    2  A    between atoms: C_4  and  C_27
REMARK    3  A    between atoms: C_8  and  N_26
REMARK    4  A    between atoms: C_9  and  C_11
REMARK    5  A    between atoms: C_11  and  O_13
REMARK    6  A    between atoms: O_13  and  C_14
REMARK    7  A    between atoms: C_14  and  C_15
REMARK    8  A    between atoms: N_17  and  C_18
REMARK    9  A    between atoms: N_17  and  C_22
REMARK   10  A    between atoms: C_18  and  C_19
REMARK   11  A    between atoms: C_19  and  C_20
REMARK   12  A    between atoms: C_22  and  C_23
REMARK   13  A    between atoms: C_23  and  C_24
REMARK                            x       y       z     vdW  Elec       q    Type
REMARK                         _______ _______ _______ _____ _____    ______ ____
ROOT
ATOM      1  C   UNL     1      -1.696   1.372   0.766  0.00  0.00    +0.044 C 
ATOM      2  C   UNL     1      -1.521  -0.123   0.688  0.00  0.00    -0.037 A 
ATOM      3  C   UNL     1      -2.240  -0.864  -0.221  0.00  0.00    +0.025 A 
ATOM      4  C   UNL     1      -2.078  -2.239  -0.290  0.00  0.00    +0.014 A 
ATOM      5  N   UNL     1      -1.231  -2.853   0.513  0.00  0.00    -0.353 N 
ATOM      6  C   UNL     1      -0.520  -2.189   1.399  0.00  0.00    +0.088 A 
ATOM      7  C   UNL     1      -0.609  -0.786   1.546  0.00  0.00    +0.030 A 
ATOM      8  C   UNL     1       0.254  -0.216   2.569  0.00  0.00    +0.055 A 
ATOM      9  C   UNL     1       1.067  -1.067   3.287  0.00  0.00    +0.119 A 
ATOM     10  S   UNL     1       0.683  -2.671   2.612  0.00  0.00    -0.062 S 
ATOM     11  C   UNL     1      -2.873  -3.037  -1.291  0.00  0.00    +0.063 C 
ATOM     12  H   UNL     1      -1.131  -3.816   0.450  0.00  0.00    +0.166 HD
ENDROOT
BRANCH   8  13
ATOM     13  N   UNL     1       0.258   1.149   2.816  0.00  0.00    -0.356 N 
ATOM     14  H   UNL     1       0.106   1.774   2.090  0.00  0.00    +0.142 HD
ATOM     15  H   UNL     1       0.414   1.479   3.715  0.00  0.00    +0.142 HD
ENDBRANCH   8  13
BRANCH   9  16
ATOM     16  C   UNL     1       1.979  -0.745   4.319  0.00  0.00    +0.348 C 
ATOM     17  O   UNL     1       2.116   0.412   4.672  0.00  0.00    -0.244 OA
BRANCH  16  18
ATOM     18  O   UNL     1       2.697  -1.721   4.914  0.00  0.00    -0.451 OA
BRANCH  18  19
ATOM     19  C   UNL     1       3.599  -1.324   5.949  0.00  0.00    +0.328 C 
BRANCH  19  20
ATOM     20  C   UNL     1       4.308  -2.539   6.491  0.00  0.00    +0.253 C 
ATOM     21  O   UNL     1       4.064  -3.636   6.035  0.00  0.00    -0.272 OA
ATOM     22  N   UNL     1       5.212  -2.406   7.481  0.00  0.00    -0.297 N 
BRANCH  22  23
ATOM     23  C   UNL     1       5.901  -3.587   8.008  0.00  0.00    +0.122 C 
BRANCH  23  24
ATOM     24  C   UNL     1       7.186  -3.824   7.213  0.00  0.00    +0.137 C 
BRANCH  24  25
ATOM     25  C   UNL     1       7.879  -5.010   7.742  0.00  0.00    +0.064 C 
ATOM     26  N   UNL     1       8.413  -5.926   8.151  0.00  0.00    -0.197 NA
ENDBRANCH  24  25
ENDBRANCH  23  24
ENDBRANCH  22  23
BRANCH  22  27
ATOM     27  C   UNL     1       5.506  -1.080   8.031  0.00  0.00    +0.122 C 
BRANCH  27  28
ATOM     28  C   UNL     1       4.562  -0.793   9.201  0.00  0.00    +0.137 C 
BRANCH  28  29
ATOM     29  C   UNL     1       4.858   0.539   9.753  0.00  0.00    +0.064 C 
ATOM     30  N   UNL     1       5.086   1.567  10.180  0.00  0.00    -0.197 NA
ENDBRANCH  28  29
ENDBRANCH  27  28
ENDBRANCH  22  27
ENDBRANCH  19  20
ENDBRANCH  18  19
ENDBRANCH  16  18
ENDBRANCH   9  16
TORSDOF 11
