REMARK  Name = ZINC20134595
REMARK  3 active torsions:
REMARK  status: ('A' for Active; 'I' for Inactive)
REMARK    1  A    between atoms: C_1  and  C_2
REMARK    2  A    between atoms: C_7  and  N_8
REMARK    3  A    between atoms: N_11  and  C_13
REMARK                            x       y       z     vdW  Elec       q    Type
REMARK                         _______ _______ _______ _____ _____    ______ ____
ROOT
ATOM      1  C   UNL     1      -0.013   1.086   0.008  0.00  0.00    +0.046 C 
ATOM      2  C   UNL     1      -0.718   1.572   1.248  0.00  0.00    -0.027 A 
ATOM      3  C   UNL     1      -2.059   1.780   1.208  0.00  0.00    +0.037 A 
ATOM      4  C   UNL     1      -2.727   2.229   2.361  0.00  0.00    +0.115 A 
ATOM      5  C   UNL     1      -1.948   2.473   3.584  0.00  0.00    +0.129 A 
ATOM      6  C   UNL     1      -0.562   2.244   3.562  0.00  0.00    +0.068 A 
ATOM      7  C   UNL     1       0.027   1.803   2.411  0.00  0.00    +0.044 A 
ATOM      8 BR   UNL     1       0.479   2.545   5.111  0.00  0.00    -0.046 Br
ATOM      9  N   UNL     1      -2.838   2.883   4.474  0.00  0.00    -0.146 NA
ATOM     10  N   UNL     1      -4.001   2.903   3.922  0.00  0.00    -0.149 N 
ATOM     11  N   UNL     1      -3.974   2.527   2.690  0.00  0.00    -0.147 NA
ENDROOT
BRANCH  10  12
ATOM     12  C   UNL     1      -5.170   3.290   4.589  0.00  0.00    +0.088 A 
ATOM     13  C   UNL     1      -6.387   3.289   3.919  0.00  0.00    +0.029 A 
ATOM     14  C   UNL     1      -7.538   3.667   4.580  0.00  0.00    +0.004 A 
ATOM     15  C   UNL     1      -7.480   4.057   5.906  0.00  0.00    +0.020 A 
ATOM     16  C   UNL     1      -6.269   4.064   6.575  0.00  0.00    +0.043 A 
ATOM     17  C   UNL     1      -5.114   3.682   5.920  0.00  0.00    +0.049 A 
ATOM     18 CL   UNL     1      -6.201   4.554   8.239  0.00  0.00    -0.083 Cl
ENDBRANCH  10  12
BRANCH   7  19
ATOM     19  N   UNL     1       1.407   1.577   2.394  0.00  0.00    -0.357 N 
ATOM     20  H   UNL     1       2.005   1.754   3.300  0.00  0.00    +0.142 HD
ATOM     21  H   UNL     1       1.895   1.221   1.474  0.00  0.00    +0.142 HD
ENDBRANCH   7  19
TORSDOF 2
