REMARK  Name = ZINC09423759
REMARK  3 active torsions:
REMARK  status: ('A' for Active; 'I' for Inactive)
REMARK    1  A    between atoms: N_9  and  C_20
REMARK    2  A    between atoms: C_10  and  C_13
REMARK    3  A    between atoms: C_23  and  O_26
REMARK                            x       y       z     vdW  Elec       q    Type
REMARK                         _______ _______ _______ _____ _____    ______ ____
ROOT
ATOM      1  C   UNL     1       4.809   1.434   0.090  0.00  0.00    +0.001 A 
ATOM      2  C   UNL     1       4.811   0.140  -0.406  0.00  0.00    +0.002 A 
ATOM      3  C   UNL     1       3.625  -0.488  -0.734  0.00  0.00    +0.024 A 
ATOM      4  C   UNL     1       2.425   0.181  -0.564  0.00  0.00    +0.041 A 
ATOM      5  C   UNL     1       2.418   1.490  -0.052  0.00  0.00    +0.058 A 
ATOM      6  C   UNL     1       3.622   2.114   0.269  0.00  0.00    +0.015 A 
ATOM      7  C   UNL     1       1.123   2.164   0.145  0.00  0.00    +0.254 C 
ATOM      8  O   UNL     1       1.083   3.347   0.427  0.00  0.00    -0.270 OA
ATOM      9  N   UNL     1      -0.018   1.459   0.010  0.00  0.00    -0.244 N 
ATOM     10  C   UNL     1       0.006   0.005  -0.152  0.00  0.00    +0.198 C 
ATOM     11  N   UNL     1       1.207  -0.406  -0.889  0.00  0.00    -0.321 N 
ATOM     12  H   UNL     1       1.152  -1.074  -1.590  0.00  0.00    +0.148 HD
ENDROOT
BRANCH  10  13
ATOM     13  C   UNL     1       0.005  -0.649   1.205  0.00  0.00    -0.009 A 
ATOM     14  C   UNL     1      -0.606  -0.021   2.274  0.00  0.00    +0.010 A 
ATOM     15  C   UNL     1      -0.612  -0.622   3.519  0.00  0.00    +0.039 A 
ATOM     16  C   UNL     1       0.005  -1.848   3.697  0.00  0.00    +0.123 A 
ATOM     17  C   UNL     1       0.622  -2.474   2.627  0.00  0.00    +0.039 A 
ATOM     18  C   UNL     1       0.622  -1.873   1.383  0.00  0.00    +0.010 A 
ATOM     19  F   UNL     1       0.005  -2.434   4.915  0.00  0.00    -0.205 F 
ENDBRANCH  10  13
BRANCH   9  20
ATOM     20  C   UNL     1      -1.247   2.130   0.019  0.00  0.00    +0.039 A 
ATOM     21  C   UNL     1      -2.103   2.027  -1.069  0.00  0.00    +0.027 A 
ATOM     22  C   UNL     1      -3.316   2.686  -1.057  0.00  0.00    +0.047 A 
ATOM     23  C   UNL     1      -3.676   3.458   0.038  0.00  0.00    +0.117 A 
ATOM     24  C   UNL     1      -2.820   3.565   1.123  0.00  0.00    +0.047 A 
ATOM     25  C   UNL     1      -1.608   2.903   1.115  0.00  0.00    +0.027 A 
BRANCH  23  26
ATOM     26  O   UNL     1      -4.870   4.110   0.047  0.00  0.00    -0.507 OA
ATOM     27  H   UNL     1      -4.832   5.003  -0.322  0.00  0.00    +0.292 HD
ENDBRANCH  23  26
ENDBRANCH   9  20
TORSDOF 3
