REMARK  Name = ZINC41547522
REMARK  8 active torsions:
REMARK  status: ('A' for Active; 'I' for Inactive)
REMARK    1  A    between atoms: C_1  and  C_2
REMARK    2  A    between atoms: C_11  and  C_13
REMARK    3  A    between atoms: C_11  and  C_14
REMARK    4  A    between atoms: N_16  and  C_17
REMARK    5  A    between atoms: C_18  and  C_31
REMARK    6  A    between atoms: N_20  and  C_23
REMARK    7  A    between atoms: C_21  and  C_22
REMARK    8  A    between atoms: C_23  and  C_24
REMARK                            x       y       z     vdW  Elec       q    Type
REMARK                         _______ _______ _______ _____ _____    ______ ____
ROOT
ATOM      1  C   UNL     1       2.067  -5.205   0.323  0.00  0.00    +0.270 C 
ATOM      2  O   UNL     1       2.731  -6.049   0.888  0.00  0.00    -0.271 OA
ATOM      3  N   UNL     1       2.660  -4.333  -0.516  0.00  0.00    -0.279 N 
ATOM      4  H   UNL     1       2.122  -3.697  -1.013  0.00  0.00    +0.155 HD
ENDROOT
BRANCH   1  15
ATOM      5  C   UNL     1       1.367  -0.590   5.022  0.00  0.00    +0.044 C 
ATOM      6  C   UNL     1       1.052  -1.442   3.819  0.00  0.00    -0.048 A 
ATOM      7  C   UNL     1       1.011  -0.871   2.561  0.00  0.00    +0.007 A 
ATOM      8  C   UNL     1       0.718  -1.645   1.453  0.00  0.00    +0.048 A 
ATOM      9  C   UNL     1       0.468  -2.998   1.604  0.00  0.00    +0.144 A 
ATOM     10  C   UNL     1       0.520  -3.577   2.870  0.00  0.00    +0.076 A 
ATOM     11  C   UNL     1       0.812  -2.795   3.977  0.00  0.00    +0.030 A 
ATOM     12  N   UNL     1       0.300  -4.954   3.010  0.00  0.00    -0.279 N 
ATOM     13  C   UNL     1       0.257  -5.729   1.906  0.00  0.00    +0.270 C 
ATOM     14  O   UNL     1      -0.041  -6.902   1.997  0.00  0.00    -0.271 OA
ATOM     15  C   UNL     1       0.581  -5.132   0.560  0.00  0.00    +0.258 C 
ATOM     16  O   UNL     1       0.160  -3.767   0.525  0.00  0.00    -0.465 OA
ATOM     17  C   UNL     1      -0.147  -5.918  -0.533  0.00  0.00    +0.076 C 
ATOM     18  H   UNL     1       0.179  -5.345   3.889  0.00  0.00    +0.155 HD
ENDBRANCH   1  15
BRANCH   3  19
ATOM     19  C   UNL     1       4.059  -4.345  -0.670  0.00  0.00    +0.077 A 
ATOM     20  C   UNL     1       5.003  -4.090   0.335  0.00  0.00    +0.081 A 
ATOM     21  N   UNL     1       6.198  -4.193  -0.188  0.00  0.00    -0.174 NA
ATOM     22  N   UNL     1       6.061  -4.516  -1.544  0.00  0.00    -0.262 N 
ATOM     23  C   UNL     1       4.734  -4.609  -1.818  0.00  0.00    +0.058 A 
ATOM     24  C   UNL     1       4.122  -4.943  -3.154  0.00  0.00    +0.067 C 
ATOM     25  C   UNL     1       4.694  -3.756   1.771  0.00  0.00    +0.069 C 
BRANCH  22  26
ATOM     26  C   UNL     1       7.155  -4.722  -2.496  0.00  0.00    +0.179 C 
BRANCH  26  27
ATOM     27  C   UNL     1       7.554  -6.175  -2.496  0.00  0.00    -0.026 A 
ATOM     28  C   UNL     1       8.529  -6.624  -1.625  0.00  0.00    +0.008 A 
ATOM     29  C   UNL     1       8.896  -7.957  -1.624  0.00  0.00    +0.038 A 
ATOM     30  C   UNL     1       8.286  -8.842  -2.496  0.00  0.00    +0.123 A 
ATOM     31  C   UNL     1       7.309  -8.392  -3.368  0.00  0.00    +0.038 A 
ATOM     32  C   UNL     1       6.941  -7.060  -3.364  0.00  0.00    +0.008 A 
ATOM     33  F   UNL     1       8.643 -10.145  -2.496  0.00  0.00    -0.205 F 
ENDBRANCH  26  27
ENDBRANCH  22  26
ENDBRANCH   3  19
TORSDOF 4
