REMARK  Name = ZINC09304796
REMARK  6 active torsions:
REMARK  status: ('A' for Active; 'I' for Inactive)
REMARK    1  A    between atoms: C_1  and  C_2
REMARK    2  A    between atoms: C_3  and  C_27
REMARK    3  A    between atoms: N_14  and  C_17
REMARK    4  A    between atoms: C_20  and  C_23
REMARK    5  A    between atoms: C_23  and  C_24
REMARK    6  A    between atoms: C_24  and  O_25
REMARK                            x       y       z     vdW  Elec       q    Type
REMARK                         _______ _______ _______ _____ _____    ______ ____
ROOT
ATOM      1  C   UNL     1      -0.090   4.322   0.025  0.00  0.00    +0.045 C 
ATOM      2  C   UNL     1       1.196   3.537   0.009  0.00  0.00    -0.030 A 
ATOM      3  C   UNL     1       2.402   4.162   0.001  0.00  0.00    +0.037 A 
ATOM      4  C   UNL     1       3.584   3.396  -0.013  0.00  0.00    +0.340 A 
ATOM      5  O   UNL     1       4.655   3.976  -0.018  0.00  0.00    -0.245 OA
ATOM      6  O   UNL     1       3.581   2.059  -0.020  0.00  0.00    -0.422 OA
ATOM      7  C   UNL     1       2.414   1.383  -0.013  0.00  0.00    +0.148 A 
ATOM      8  C   UNL     1       1.189   2.072   0.002  0.00  0.00    +0.023 A 
ATOM      9  C   UNL     1      -0.016   1.360   0.009  0.00  0.00    +0.035 A 
ATOM     10  C   UNL     1       0.002  -0.004   0.002  0.00  0.00    +0.084 A 
ATOM     11  C   UNL     1       1.215  -0.697  -0.014  0.00  0.00    +0.149 A 
ATOM     12  C   UNL     1       2.414  -0.007  -0.022  0.00  0.00    +0.056 A 
ATOM     13  C   UNL     1       3.729  -0.743  -0.044  0.00  0.00    +0.151 C 
ATOM     14  N   UNL     1       3.519  -2.141   0.360  0.00  0.00    -0.293 N 
ATOM     15  C   UNL     1       2.400  -2.724  -0.399  0.00  0.00    +0.340 C 
ATOM     16  O   UNL     1       1.195  -2.056  -0.019  0.00  0.00    -0.471 OA
ATOM     17 CL   UNL     1      -1.493  -0.886   0.012  0.00  0.00    -0.080 Cl
ATOM     18  C   UNL     1       2.476   5.667   0.009  0.00  0.00    +0.051 C 
ENDROOT
BRANCH  14  19
ATOM     19  C   UNL     1       4.685  -2.892   0.190  0.00  0.00    +0.032 A 
ATOM     20  C   UNL     1       5.356  -3.395   1.297  0.00  0.00    +0.023 A 
ATOM     21  C   UNL     1       6.505  -4.141   1.125  0.00  0.00    +0.005 A 
ATOM     22  C   UNL     1       6.994  -4.378  -0.147  0.00  0.00    -0.045 A 
ATOM     23  C   UNL     1       6.331  -3.874  -1.251  0.00  0.00    +0.005 A 
ATOM     24  C   UNL     1       5.178  -3.131  -1.086  0.00  0.00    +0.023 A 
BRANCH  22  25
ATOM     25  C   UNL     1       8.252  -5.187  -0.330  0.00  0.00    +0.063 C 
BRANCH  25  26
ATOM     26  C   UNL     1       9.465  -4.255  -0.314  0.00  0.00    +0.160 C 
BRANCH  26  27
ATOM     27  O   UNL     1      10.658  -5.022  -0.488  0.00  0.00    -0.395 OA
ATOM     28  H   UNL     1      11.469  -4.495  -0.487  0.00  0.00    +0.209 HD
ENDBRANCH  26  27
ENDBRANCH  25  26
ENDBRANCH  22  25
ENDBRANCH  14  19
TORSDOF 4
