REMARK  Name = ZINC27533069
REMARK  6 active torsions:
REMARK  status: ('A' for Active; 'I' for Inactive)
REMARK    1  A    between atoms: CB_1  and  CA_2
REMARK    2  A    between atoms: CA_2  and  C_4
REMARK    3  A    between atoms: CA_2  and  N_7
REMARK    4  A    between atoms: C_8  and  C_10
REMARK    5  A    between atoms: C_10  and  N_11
REMARK    6  A    between atoms: C_15  and  C_16
REMARK                            x       y       z     vdW  Elec       q    Type
REMARK                         _______ _______ _______ _____ _____    ______ ____
ROOT
ATOM      1  N   UNK A   0      -2.788   3.493   0.165  0.00  0.00    -0.246 N 
ATOM      2  C   UNK A   0      -1.512   3.156   0.093  0.00  0.00    +0.259 C 
ATOM      3  O   UNK A   0      -0.630   3.994   0.043  0.00  0.00    -0.269 OA
ATOM      4  C   UNK A   0      -1.210   1.709   0.076  0.00  0.00    +0.077 C 
ATOM      5  C   UNK A   0      -0.013   1.076   0.008  0.00  0.00    +0.028 C 
ATOM      6  S   UNK A   0      -2.858   1.022   0.161  0.00  0.00    -0.061 S 
ATOM      7  C   UNK A   0      -3.762   2.562   0.220  0.00  0.00    +0.121 C 
ATOM      8  S   UNK A   0      -5.455   2.798   0.316  0.00  0.00    -0.027 S 
ENDROOT
BRANCH   5   9
ATOM      9  C   UNK A   0       1.214   1.848  -0.238  0.00  0.00    -0.024 A 
ATOM     10  C   UNK A   0       1.206   2.909  -1.149  0.00  0.00    +0.008 A 
ATOM     11  C   UNK A   0       2.359   3.632  -1.370  0.00  0.00    +0.001 A 
ATOM     12  C   UNK A   0       3.525   3.303  -0.701  0.00  0.00    +0.000 A 
ATOM     13  C   UNK A   0       3.543   2.251   0.198  0.00  0.00    +0.001 A 
ATOM     14  C   UNK A   0       2.397   1.522   0.434  0.00  0.00    +0.008 A 
ENDBRANCH   5   9
BRANCH   1  15
ATOM     15  C   UNK A   0      -3.154   4.912   0.186  0.00  0.00    +0.210 C 
BRANCH  15  17
ATOM     16  N   ALA A   1      -3.704   6.681  -1.453  0.00  0.00    -0.301 N 
ATOM     17  C   UNK A   0      -3.359   5.398  -1.226  0.00  0.00    +0.231 C 
ATOM     18  O   UNK A   0      -3.215   4.635  -2.157  0.00  0.00    -0.274 OA
ATOM     19  H   ALA A   1      -3.834   7.374  -0.608  0.00  0.00    +0.150 HD
BRANCH  16  21
ATOM     20  CB  ALA A   1      -2.557   7.563  -3.425  0.00  0.00    +0.040 C 
ATOM     21  CA  ALA A   1      -3.904   7.154  -2.825  0.00  0.00    +0.183 C 
BRANCH  21  22
ATOM     22  C   ALA A   1      -4.831   8.342  -2.817  0.00  0.00    +0.376 C 
ATOM     23  O   ALA A   1      -5.279   8.751  -1.772  0.00  0.00    -0.244 OA
ATOM     24  OXT ALA A   1      -5.160   8.945  -3.970  0.00  0.00    -0.244 OA
ENDBRANCH  21  22
ENDBRANCH  16  21
ENDBRANCH  15  17
ENDBRANCH   1  15
TORSDOF 5
