REMARK  Name = ZINC40536444
REMARK  3 active torsions:
REMARK  status: ('A' for Active; 'I' for Inactive)
REMARK    1  A    between atoms: C_2  and  N_10
REMARK    2  A    between atoms: N_13  and  C_14
REMARK    3  A    between atoms: C_14  and  C_19
REMARK                            x       y       z     vdW  Elec       q    Type
REMARK                         _______ _______ _______ _____ _____    ______ ____
ROOT
ATOM      1  N   UNL     1       1.160   3.488   0.009  0.00  0.00    -0.268 N 
ATOM      2  C   UNL     1      -0.011   4.149  -0.078  0.00  0.00    +0.305 C 
ATOM      3  O   UNL     1      -1.059   3.532  -0.072  0.00  0.00    -0.252 OA
ATOM      4  N   UNL     1      -0.021   5.493  -0.173  0.00  0.00    -0.283 N 
ATOM      5  H   UNL     1       1.992   3.982   0.086  0.00  0.00    +0.156 HD
ATOM      6  H   UNL     1       0.815   5.985  -0.178  0.00  0.00    +0.151 HD
ENDROOT
BRANCH   1   8
ATOM      7  C   UNL     1       0.141   1.388  -0.615  0.00  0.00    +0.046 A 
ATOM      8  C   UNL     1       1.178   2.087  -0.011  0.00  0.00    +0.055 A 
ATOM      9  C   UNL     1       2.232   1.396   0.572  0.00  0.00    +0.064 A 
ATOM     10  C   UNL     1       2.247   0.014   0.550  0.00  0.00    +0.043 A 
ATOM     11  C   UNL     1       1.214  -0.681  -0.052  0.00  0.00    +0.061 A 
ATOM     12  C   UNL     1       0.161   0.006  -0.634  0.00  0.00    +0.061 A 
ATOM     13 CL   UNL     1      -1.134  -0.869  -1.388  0.00  0.00    -0.082 Cl
ATOM     14 CL   UNL     1       1.236  -2.417  -0.078  0.00  0.00    -0.082 Cl
ATOM     15 CL   UNL     1       3.530   2.267   1.327  0.00  0.00    -0.082 Cl
ENDBRANCH   1   8
BRANCH   4  16
ATOM     16  C   UNL     1      -1.294   6.211  -0.268  0.00  0.00    +0.137 C 
ATOM     17  C   UNL     1      -2.019   5.856  -1.590  0.00  0.00    +0.037 C 
ATOM     18  C   UNL     1      -1.306   6.763  -2.624  0.00  0.00    +0.003 C 
ATOM     19  C   UNL     1      -1.058   8.082  -1.864  0.00  0.00    +0.003 C 
ATOM     20  C   UNL     1      -1.051   7.731  -0.366  0.00  0.00    +0.037 C 
BRANCH  16  21
ATOM     21  C   UNL     1      -2.168   5.892   0.918  0.00  0.00    +0.379 C 
ATOM     22  O   UNL     1      -1.765   5.138   1.787  0.00  0.00    -0.244 OA
ATOM     23  O   UNL     1      -3.278   6.389   1.008  0.00  0.00    -0.244 OA
ENDBRANCH  16  21
ENDBRANCH   4  16
TORSDOF 3
