REMARK  Name = ZINC50519052
REMARK  3 active torsions:
REMARK  status: ('A' for Active; 'I' for Inactive)
REMARK    1  A    between atoms: C_8  and  O_13
REMARK    2  A    between atoms: C_9  and  N_12
REMARK    3  A    between atoms: O_13  and  C_14
REMARK                            x       y       z     vdW  Elec       q    Type
REMARK                         _______ _______ _______ _____ _____    ______ ____
ROOT
ATOM      1  C   UNL     1      -0.017   1.389   0.010  0.00  0.00    +0.017 A 
ATOM      2  C   UNL     1       1.139   2.107   0.003  0.00  0.00    +0.029 A 
ATOM      3  C   UNL     1       2.376   1.440  -0.013  0.00  0.00    +0.075 A 
ATOM      4  C   UNL     1       2.393   0.023  -0.021  0.00  0.00    +0.045 A 
ATOM      5  C   UNL     1       1.182  -0.686  -0.012  0.00  0.00    +0.029 A 
ATOM      6  C   UNL     1       0.002  -0.004   0.002  0.00  0.00    +0.019 A 
ATOM      7 BR   UNL     1      -1.629  -0.960   0.013  0.00  0.00    -0.050 Br
ATOM      8  C   UNL     1       3.635  -0.647  -0.036  0.00  0.00    +0.152 A 
ATOM      9  C   UNL     1       4.789   0.123  -0.043  0.00  0.00    +0.086 A 
ATOM     10  C   UNL     1       4.689   1.515  -0.034  0.00  0.00    +0.137 A 
ATOM     11  N   UNL     1       3.526   2.122  -0.020  0.00  0.00    -0.253 NA
ENDROOT
BRANCH   9  12
ATOM     12  N   UNL     1       6.048  -0.493  -0.057  0.00  0.00    -0.354 N 
ATOM     13  H   UNL     1       6.114  -1.461  -0.063  0.00  0.00    +0.142 HD
ATOM     14  H   UNL     1       6.853   0.048  -0.062  0.00  0.00    +0.142 HD
ENDBRANCH   9  12
BRANCH   8  15
ATOM     15  O   UNL     1       3.698  -2.004  -0.043  0.00  0.00    -0.486 OA
BRANCH  15  16
ATOM     16  C   UNL     1       3.716  -2.645  -1.320  0.00  0.00    +0.174 C 
ATOM     17  C   UNL     1       2.448  -3.464  -1.616  0.00  0.00    +0.045 C 
ATOM     18  C   UNL     1       3.373  -4.521  -2.243  0.00  0.00    +0.007 C 
ATOM     19  C   UNL     1       4.484  -3.978  -1.329  0.00  0.00    +0.045 C 
ENDBRANCH  15  16
ENDBRANCH   8  15
TORSDOF 3
