REMARK  Name = ZINC65191071
REMARK  6 active torsions:
REMARK  status: ('A' for Active; 'I' for Inactive)
REMARK    1  A    between atoms: C_1  and  C_2
REMARK    2  A    between atoms: C_2  and  N_3
REMARK    3  A    between atoms: N_6  and  N_7
REMARK    4  A    between atoms: C_8  and  C_10
REMARK    5  A    between atoms: C_10  and  C_11
REMARK    6  A    between atoms: C_11  and  N_12
REMARK                            x       y       z     vdW  Elec       q    Type
REMARK                         _______ _______ _______ _____ _____    ______ ____
ROOT
ATOM      1  C   UNL     1       3.812  -1.503  -6.715  0.00  0.00    +0.112 C 
ENDROOT
BRANCH   1   2
ATOM      2  N   UNL     1       4.346  -0.538  -7.679  0.00  0.00    -0.327 N 
ATOM      3  C   UNL     1       4.991  -0.983  -8.813  0.00  0.00    +0.150 C 
ATOM      4  N   UNL     1       5.124  -2.251  -9.036  0.00  0.00    -0.113 NA
ATOM      5  S   UNL     1       5.947  -2.377 -10.488  0.00  0.00    +0.101 S 
ATOM      6  O   UNL     1       5.054  -2.928 -11.445  0.00  0.00    -0.146 OA
ATOM      7  O   UNL     1       7.232  -2.918 -10.212  0.00  0.00    -0.146 OA
ATOM      8  C   UNL     1       6.154  -0.659 -10.869  0.00  0.00    +0.123 A 
ATOM      9  C   UNL     1       5.531  -0.021  -9.787  0.00  0.00    +0.043 A 
ATOM     10  C   UNL     1       5.516   1.382  -9.785  0.00  0.00    +0.013 A 
ATOM     11  C   UNL     1       6.093   2.084 -10.820  0.00  0.00    +0.001 A 
ATOM     12  C   UNL     1       6.696   1.427 -11.877  0.00  0.00    +0.002 A 
ATOM     13  C   UNL     1       6.729   0.039 -11.890  0.00  0.00    +0.030 A 
ATOM     14  H   UNL     1       4.246   0.413  -7.520  0.00  0.00    +0.148 HD
ENDBRANCH   1   2
BRANCH   1  15
ATOM     15  C   UNL     1       3.150  -0.753  -5.557  0.00  0.00    +0.116 C 
BRANCH  15  17
ATOM     16  N   UNL     1       1.969  -1.311  -3.456  0.00  0.00    -0.233 N 
ATOM     17  C   UNL     1       2.600  -1.745  -4.565  0.00  0.00    +0.231 C 
ATOM     18  O   UNL     1       2.725  -2.935  -4.764  0.00  0.00    -0.274 OA
ATOM     19  H   UNL     1       1.869  -0.359  -3.296  0.00  0.00    +0.173 HD
BRANCH  16  23
ATOM     20  N   UNL     1       0.688  -0.476  -1.203  0.00  0.00    -0.298 N 
ATOM     21  C   UNL     1       0.827  -1.799  -1.425  0.00  0.00    +0.316 C 
ATOM     22  O   UNL     1       0.383  -2.599  -0.625  0.00  0.00    -0.251 OA
ATOM     23  N   UNL     1       1.458  -2.233  -2.534  0.00  0.00    -0.218 N 
ATOM     24  H   UNL     1       1.042   0.162  -1.842  0.00  0.00    +0.150 HD
ATOM     25  H   UNL     1       1.558  -3.185  -2.693  0.00  0.00    +0.174 HD
BRANCH  20  27
ATOM     26  C   UNL     1      -0.019   1.526   0.010  0.00  0.00    +0.024 C 
ATOM     27  C   UNL     1       0.002  -0.004   0.002  0.00  0.00    +0.102 C 
ENDBRANCH  20  27
ENDBRANCH  16  23
ENDBRANCH  15  17
ENDBRANCH   1  15
TORSDOF 5
