REMARK  Name = ZINC32507804
REMARK  3 active torsions:
REMARK  status: ('A' for Active; 'I' for Inactive)
REMARK    1  A    between atoms: C_4  and  C_7
REMARK    2  A    between atoms: C_7  and  O_25
REMARK    3  A    between atoms: C_16  and  C_18
REMARK                            x       y       z     vdW  Elec       q    Type
REMARK                         _______ _______ _______ _____ _____    ______ ____
ROOT
ATOM      1  C   UNL     1      -7.140   5.921   0.974  0.00  0.00    +0.108 C 
ATOM      2  C   UNL     1      -7.056   6.393  -0.495  0.00  0.00    +0.060 C 
ATOM      3  C   UNL     1      -5.698   5.878  -1.006  0.00  0.00    +0.110 C 
ATOM      4  N   UNL     1      -5.070   5.133   0.107  0.00  0.00    -0.309 N 
ATOM      5  C   UNL     1      -5.655   5.695   1.351  0.00  0.00    +0.146 C 
ATOM      6  C   UNL     1      -3.687   5.285   0.092  0.00  0.00    +0.162 A 
ATOM      7  C   UNL     1      -2.857   4.212   0.448  0.00  0.00    +0.157 A 
ATOM      8  N   UNL     1      -1.541   4.360   0.434  0.00  0.00    -0.235 NA
ATOM      9  C   UNL     1      -1.008   5.518   0.079  0.00  0.00    +0.143 A 
ATOM     10  C   UNL     1      -1.827   6.586  -0.269  0.00  0.00    +0.111 A 
ATOM     11  N   UNL     1      -3.152   6.443  -0.257  0.00  0.00    -0.225 NA
ATOM     12  N   UNL     1      -3.417   2.992   0.817  0.00  0.00    -0.340 N 
ATOM     13  H   UNL     1      -2.766   2.150   1.095  0.00  0.00    +0.144 HD
ATOM     14  H   UNL     1      -4.510   2.869   0.829  0.00  0.00    +0.144 HD
ENDROOT
BRANCH   1  18
ATOM     15  C   UNL     1      -8.880   8.949   3.435  0.00  0.00    +0.000 A 
ATOM     16  C   UNL     1      -7.779   9.242   2.652  0.00  0.00    +0.000 A 
ATOM     17  C   UNL     1      -7.216   8.263   1.856  0.00  0.00    +0.006 A 
ATOM     18  C   UNL     1      -7.754   6.989   1.843  0.00  0.00    -0.015 A 
ATOM     19  C   UNL     1      -8.858   6.697   2.621  0.00  0.00    +0.006 A 
ATOM     20  C   UNL     1      -9.419   7.676   3.421  0.00  0.00    +0.000 A 
ENDBRANCH   1  18
BRANCH  10  21
ATOM     21  C   UNL     1      -1.224   7.884  -0.661  0.00  0.00    +0.112 A 
ATOM     22  C   UNL     1      -1.929   9.045  -1.035  0.00  0.00    +0.051 A 
ATOM     23  C   UNL     1      -1.023  10.005  -1.319  0.00  0.00    +0.105 A 
ATOM     24  N   UNL     1       0.209   9.487  -1.127  0.00  0.00    -0.284 N 
ATOM     25  H   UNL     1       1.101  10.108  -1.299  0.00  0.00    +0.188 HD
ATOM     26  N   UNL     1       0.062   8.156  -0.714  0.00  0.00    -0.172 NA
ENDBRANCH  10  21
BRANCH   1  27
ATOM     27  O   UNL     1      -7.882   4.704   1.073  0.00  0.00    -0.382 OA
ATOM     28  H   UNL     1      -7.566   3.820   0.500  0.00  0.00    +0.211 HD
ENDBRANCH   1  27
TORSDOF 3
