REMARK  Name = ZINC46704573
REMARK  6 active torsions:
REMARK  status: ('A' for Active; 'I' for Inactive)
REMARK    1  A    between atoms: C_1  and  C_2
REMARK    2  A    between atoms: C_2  and  C_4
REMARK    3  A    between atoms: C_2  and  O_18
REMARK    4  A    between atoms: N_6  and  N_7
REMARK    5  A    between atoms: N_10  and  C_11
REMARK    6  A    between atoms: O_18  and  C_19
REMARK                            x       y       z     vdW  Elec       q    Type
REMARK                         _______ _______ _______ _____ _____    ______ ____
ROOT
ATOM      1  C   UNL     1       0.891  -0.512   1.093  0.00  0.00    +0.270 C 
ATOM      2  O   UNL     1       0.309  -1.163   1.934  0.00  0.00    -0.270 OA
ATOM      3  N   UNL     1       2.208  -0.258   1.230  0.00  0.00    -0.230 N 
ATOM      4  H   UNL     1       2.673   0.263   0.557  0.00  0.00    +0.173 HD
ENDROOT
BRANCH   3   5
ATOM      5  N   UNL     1       2.903  -0.745   2.344  0.00  0.00    -0.218 N 
ATOM      6  C   UNL     1       4.220  -0.490   2.481  0.00  0.00    +0.320 C 
ATOM      7  O   UNL     1       4.824  -0.913   3.447  0.00  0.00    -0.251 OA
ATOM      8  N   UNL     1       4.867   0.233   1.546  0.00  0.00    -0.266 N 
ATOM      9  H   UNL     1       2.438  -1.266   3.017  0.00  0.00    +0.174 HD
ATOM     10  H   UNL     1       4.371   0.641   0.819  0.00  0.00    +0.157 HD
BRANCH   8  11
ATOM     11  C   UNL     1       6.256   0.396   1.623  0.00  0.00    +0.070 A 
ATOM     12  C   UNL     1       7.049  -0.627   2.124  0.00  0.00    +0.026 A 
ATOM     13  C   UNL     1       8.419  -0.465   2.200  0.00  0.00    +0.002 A 
ATOM     14  C   UNL     1       9.001   0.716   1.777  0.00  0.00    +0.003 A 
ATOM     15  C   UNL     1       8.216   1.738   1.277  0.00  0.00    +0.040 A 
ATOM     16  C   UNL     1       6.844   1.580   1.193  0.00  0.00    +0.145 A 
ATOM     17  F   UNL     1       6.077   2.576   0.699  0.00  0.00    -0.204 F 
ENDBRANCH   8  11
ENDBRANCH   3   5
BRANCH   1  19
ATOM     18  C   UNL     1       0.122   1.541  -0.065  0.00  0.00    +0.062 C 
ATOM     19  C   UNL     1       0.143   0.012  -0.105  0.00  0.00    +0.257 C 
BRANCH  19  20
ATOM     20  O   UNL     1      -1.198  -0.483  -0.084  0.00  0.00    -0.480 OA
BRANCH  20  21
ATOM     21  C   UNL     1      -1.844  -0.565  -1.277  0.00  0.00    +0.123 A 
ATOM     22  C   UNL     1      -1.242  -0.079  -2.428  0.00  0.00    +0.046 A 
ATOM     23  C   UNL     1      -1.900  -0.164  -3.639  0.00  0.00    +0.005 A 
ATOM     24  C   UNL     1      -3.159  -0.732  -3.705  0.00  0.00    +0.015 A 
ATOM     25  C   UNL     1      -3.763  -1.217  -2.559  0.00  0.00    +0.021 A 
ATOM     26  C   UNL     1      -3.104  -1.140  -1.345  0.00  0.00    +0.061 A 
ATOM     27 BR   UNL     1      -5.485  -1.992  -2.652  0.00  0.00    -0.050 Br
ENDBRANCH  20  21
ENDBRANCH  19  20
ENDBRANCH   1  19
TORSDOF 5
