REMARK  Name = ZINC15512253
REMARK  8 active torsions:
REMARK  status: ('A' for Active; 'I' for Inactive)
REMARK    1  A    between atoms: C_1  and  C_2
REMARK    2  A    between atoms: C_6  and  N_9
REMARK    3  A    between atoms: C_7  and  C_8
REMARK    4  A    between atoms: C_10  and  S_14
REMARK    5  A    between atoms: S_14  and  C_15
REMARK    6  A    between atoms: C_15  and  C_16
REMARK    7  A    between atoms: N_18  and  C_19
REMARK    8  A    between atoms: C_20  and  C_28
REMARK                            x       y       z     vdW  Elec       q    Type
REMARK                         _______ _______ _______ _____ _____    ______ ____
ROOT
ATOM      1  C   UNL     1      -0.707   1.703  -1.221  0.00  0.00    +0.228 C 
ATOM      2  O   UNL     1      -1.690   2.401  -1.089  0.00  0.00    -0.275 OA
ATOM      3  N   UNL     1      -0.251   1.408  -2.454  0.00  0.00    -0.279 N 
ATOM      4  H   UNL     1       0.535   0.849  -2.559  0.00  0.00    +0.155 HD
ENDROOT
BRANCH   3   5
ATOM      5  C   UNL     1      -0.905   1.902  -3.572  0.00  0.00    +0.084 A 
ATOM      6  C   UNL     1      -0.587   1.716  -4.910  0.00  0.00    +0.068 A 
ATOM      7  C   UNL     1      -1.444   2.347  -5.898  0.00  0.00    -0.023 A 
ATOM      8  C   UNL     1      -2.470   3.067  -5.394  0.00  0.00    -0.004 A 
ATOM      9  S   UNL     1      -2.313   2.910  -3.638  0.00  0.00    -0.077 S 
ATOM     10  C   UNL     1      -3.505   3.827  -6.165  0.00  0.00    +0.043 C 
ATOM     11  C   UNL     1      -3.015   3.979  -7.612  0.00  0.00    +0.005 C 
ATOM     12  C   UNL     1      -2.529   2.617  -8.115  0.00  0.00    +0.005 C 
ATOM     13  C   UNL     1      -1.231   2.232  -7.403  0.00  0.00    +0.037 C 
BRANCH   6  14
ATOM     14  C   UNL     1       0.570   0.909  -5.311  0.00  0.00    +0.244 C 
ATOM     15  O   UNL     1       0.441  -0.286  -5.503  0.00  0.00    -0.270 OA
ATOM     16  N   UNL     1       1.776   1.490  -5.467  0.00  0.00    -0.325 N 
ATOM     17  H   UNL     1       1.879   2.442  -5.314  0.00  0.00    +0.145 HD
ATOM     18  H   UNL     1       2.541   0.956  -5.733  0.00  0.00    +0.145 HD
ENDBRANCH   6  14
ENDBRANCH   3   5
BRANCH   1  19
ATOM     19  C   UNL     1       0.003   1.165  -0.005  0.00  0.00    +0.173 C 
BRANCH  19  20
ATOM     20  S   UNL     1      -0.845   1.732   1.490  0.00  0.00    -0.075 S 
BRANCH  20  22
ATOM     21  N   UNL     1       0.002   1.064   4.069  0.00  0.00    -0.187 N 
ATOM     22  C   UNL     1       0.168   0.979   2.720  0.00  0.00    +0.214 A 
ATOM     23  N   UNL     1       1.224   0.223   2.510  0.00  0.00    -0.101 NA
ATOM     24  N   UNL     1       1.731  -0.161   3.625  0.00  0.00    -0.022 NA
ATOM     25  N   UNL     1       1.049   0.301   4.616  0.00  0.00    -0.038 NA
BRANCH  21  31
ATOM     26  C   UNL     1      -3.445   1.145   7.578  0.00  0.00    +0.044 C 
ATOM     27  C   UNL     1      -2.683   1.823   6.468  0.00  0.00    -0.046 A 
ATOM     28  C   UNL     1      -2.969   3.134   6.134  0.00  0.00    +0.004 A 
ATOM     29  C   UNL     1      -2.273   3.760   5.117  0.00  0.00    +0.002 A 
ATOM     30  C   UNL     1      -1.284   3.078   4.434  0.00  0.00    +0.028 A 
ATOM     31  C   UNL     1      -0.998   1.760   4.764  0.00  0.00    +0.073 A 
ATOM     32  C   UNL     1      -1.699   1.135   5.786  0.00  0.00    -0.022 A 
ATOM     33  C   UNL     1      -1.388  -0.294   6.150  0.00  0.00    +0.046 C 
ENDBRANCH  21  31
ENDBRANCH  20  22
ENDBRANCH  19  20
ENDBRANCH   1  19
TORSDOF 6
