REMARK  Name = ZINC58332649
REMARK  8 active torsions:
REMARK  status: ('A' for Active; 'I' for Inactive)
REMARK    1  A    between atoms: C_1  and  C_2
REMARK    2  A    between atoms: C_2  and  C_4
REMARK    3  A    between atoms: C_2  and  N_16
REMARK    4  A    between atoms: C_8  and  C_10
REMARK    5  A    between atoms: C_17  and  C_19
REMARK    6  A    between atoms: C_19  and  C_20
REMARK    7  A    between atoms: C_20  and  C_21
REMARK    8  A    between atoms: C_26  and  O_27
REMARK                            x       y       z     vdW  Elec       q    Type
REMARK                         _______ _______ _______ _____ _____    ______ ____
ROOT
ATOM      1  C   UNL     1      -0.019   1.526   0.010  0.00  0.00    +0.036 C 
ATOM      2  C   UNL     1       0.002  -0.004   0.002  0.00  0.00    +0.134 C 
ENDROOT
BRANCH   2   3
ATOM      3  C   UNL     1       0.731  -0.503   1.223  0.00  0.00    +0.105 A 
ATOM      4  N   UNL     1       2.059  -0.742   1.301  0.00  0.00    -0.348 N 
ATOM      5  H   UNL     1       2.706  -0.623   0.589  0.00  0.00    +0.167 HD
ATOM      6  C   UNL     1       2.321  -1.181   2.569  0.00  0.00    +0.110 A 
ATOM      7  C   UNL     1       1.135  -1.196   3.230  0.00  0.00    +0.064 A 
ATOM      8  N   UNL     1       0.183  -0.769   2.376  0.00  0.00    -0.342 N 
ATOM      9  H   UNL     1      -0.760  -0.677   2.584  0.00  0.00    +0.167 HD
BRANCH   7  10
ATOM     10  C   UNL     1       0.925  -1.603   4.641  0.00  0.00    -0.000 A 
ATOM     11  C   UNL     1      -0.354  -1.577   5.194  0.00  0.00    +0.010 A 
ATOM     12  C   UNL     1      -0.544  -1.957   6.507  0.00  0.00    +0.001 A 
ATOM     13  C   UNL     1       0.533  -2.363   7.275  0.00  0.00    +0.000 A 
ATOM     14  C   UNL     1       1.805  -2.391   6.731  0.00  0.00    +0.001 A 
ATOM     15  C   UNL     1       2.005  -2.020   5.418  0.00  0.00    +0.010 A 
ENDBRANCH   7  10
ENDBRANCH   2   3
BRANCH   2  16
ATOM     16  N   UNL     1       0.688  -0.476  -1.203  0.00  0.00    -0.306 N 
ATOM     17  C   UNL     1       0.006  -0.608  -2.358  0.00  0.00    +0.214 C 
ATOM     18  O   UNL     1      -1.175  -0.336  -2.400  0.00  0.00    -0.276 OA
ATOM     19  H   UNL     1       1.632  -0.695  -1.170  0.00  0.00    +0.149 HD
BRANCH  17  20
ATOM     20  C   UNL     1       0.712  -1.094  -3.598  0.00  0.00    +0.100 C 
BRANCH  20  21
ATOM     21  C   UNL     1      -0.282  -1.153  -4.761  0.00  0.00    +0.048 C 
BRANCH  21  22
ATOM     22  C   UNL     1       0.423  -1.639  -6.000  0.00  0.00    -0.005 A 
ATOM     23  C   UNL     1       0.933  -0.729  -6.907  0.00  0.00    +0.007 A 
ATOM     24  C   UNL     1       1.580  -1.175  -8.045  0.00  0.00    +0.000 A 
ATOM     25  C   UNL     1       1.719  -2.530  -8.278  0.00  0.00    +0.004 A 
ATOM     26  C   UNL     1       1.212  -3.444  -7.375  0.00  0.00    +0.045 A 
ATOM     27  C   UNL     1       0.567  -2.999  -6.229  0.00  0.00    +0.120 A 
BRANCH  27  28
ATOM     28  O   UNL     1       0.072  -3.896  -5.335  0.00  0.00    -0.506 OA
ATOM     29  H   UNL     1      -0.840  -4.163  -5.511  0.00  0.00    +0.292 HD
ENDBRANCH  27  28
ENDBRANCH  21  22
ENDBRANCH  20  21
ENDBRANCH  17  20
ENDBRANCH   2  16
TORSDOF 7
