REMARK  Name = ZINC10031200
REMARK  6 active torsions:
REMARK  status: ('A' for Active; 'I' for Inactive)
REMARK    1  A    between atoms: C_1  and  C_2
REMARK    2  A    between atoms: C_2  and  C_3
REMARK    3  A    between atoms: C_3  and  C_29
REMARK    4  A    between atoms: N_6  and  N_10
REMARK    5  A    between atoms: C_11  and  C_13
REMARK    6  A    between atoms: C_13  and  N_14
REMARK                            x       y       z     vdW  Elec       q    Type
REMARK                         _______ _______ _______ _____ _____    ______ ____
ROOT
ATOM      1  N   UNL     1      -1.733   4.091   0.038  0.00  0.00    -0.222 N 
ATOM      2  C   UNL     1      -2.421   4.390  -1.082  0.00  0.00    +0.248 C 
ATOM      3  O   UNL     1      -2.222   3.763  -2.101  0.00  0.00    -0.273 OA
ATOM      4  H   UNL     1      -1.892   4.593   0.853  0.00  0.00    +0.174 HD
ENDROOT
BRANCH   1   8
ATOM      5  C   UNL     1       1.158   1.862   0.001  0.00  0.00    +0.139 C 
ATOM      6  C   UNL     1       0.545   3.248   0.013  0.00  0.00    +0.268 C 
ATOM      7  O   UNL     1       1.132   4.309   0.013  0.00  0.00    -0.271 OA
ATOM      8  N   UNL     1      -0.789   3.056   0.025  0.00  0.00    -0.137 N 
ATOM      9  C   UNL     1      -1.101   1.755   0.016  0.00  0.00    +0.327 C 
ATOM     10  O   UNL     1      -2.240   1.333   0.019  0.00  0.00    -0.251 OA
ATOM     11  N   UNL     1      -0.011   0.966   0.007  0.00  0.00    -0.280 N 
ATOM     12  H   UNL     1       0.002  -0.004   0.002  0.00  0.00    +0.152 HD
BRANCH   5  13
ATOM     13  C   UNL     1       2.002   1.641   1.230  0.00  0.00    -0.015 A 
ATOM     14  C   UNL     1       3.365   1.864   1.181  0.00  0.00    +0.006 A 
ATOM     15  C   UNL     1       4.139   1.666   2.309  0.00  0.00    +0.000 A 
ATOM     16  C   UNL     1       3.550   1.235   3.484  0.00  0.00    +0.000 A 
ATOM     17  C   UNL     1       2.188   1.008   3.531  0.00  0.00    +0.000 A 
ATOM     18  C   UNL     1       1.414   1.210   2.404  0.00  0.00    +0.006 A 
ENDBRANCH   5  13
BRANCH   5  20
ATOM     19  C   UNL     1       1.125   1.934  -2.496  0.00  0.00    +0.007 C 
ATOM     20  C   UNL     1       1.990   1.653  -1.266  0.00  0.00    +0.037 C 
ENDBRANCH   5  20
ENDBRANCH   1   8
BRANCH   2  21
ATOM     21  C   UNL     1      -3.436   5.503  -1.069  0.00  0.00    +0.215 C 
BRANCH  21  22
ATOM     22  N   UNL     1      -4.042   5.629  -2.397  0.00  0.00    -0.215 N 
ATOM     23  C   UNL     1      -3.564   6.426  -3.377  0.00  0.00    +0.251 C 
ATOM     24  O   UNL     1      -2.591   7.148  -3.329  0.00  0.00    -0.272 OA
ATOM     25  C   UNL     1      -4.497   6.225  -4.542  0.00  0.00    +0.138 C 
ATOM     26  C   UNL     1      -3.753   5.689  -5.771  0.00  0.00    +0.045 C 
ATOM     27  C   UNL     1      -4.540   6.332  -6.935  0.00  0.00    +0.038 C 
ATOM     28  C   UNL     1      -5.159   7.586  -6.351  0.00  0.00    -0.042 A 
ATOM     29  C   UNL     1      -5.134   7.520  -4.968  0.00  0.00    -0.012 A 
ATOM     30  C   UNL     1      -5.654   8.565  -4.223  0.00  0.00    +0.006 A 
ATOM     31  C   UNL     1      -6.194   9.670  -4.852  0.00  0.00    +0.000 A 
ATOM     32  C   UNL     1      -6.217   9.735  -6.232  0.00  0.00    +0.000 A 
ATOM     33  C   UNL     1      -5.700   8.694  -6.979  0.00  0.00    +0.004 A 
ATOM     34  N   UNL     1      -5.490   5.265  -4.058  0.00  0.00    -0.281 N 
ATOM     35  C   UNL     1      -5.141   4.972  -2.788  0.00  0.00    +0.310 C 
ATOM     36  O   UNL     1      -5.755   4.198  -2.080  0.00  0.00    -0.252 OA
ATOM     37  H   UNL     1      -6.246   4.910  -4.551  0.00  0.00    +0.152 HD
ENDBRANCH  21  22
ENDBRANCH   2  21
TORSDOF 5
