REMARK  Name = ZINC42459597
REMARK  8 active torsions:
REMARK  status: ('A' for Active; 'I' for Inactive)
REMARK    1  A    between atoms: C_1  and  C_2
REMARK    2  A    between atoms: C_2  and  C_3
REMARK    3  A    between atoms: C_3  and  N_4
REMARK    4  A    between atoms: N_4  and  C_5
REMARK    5  A    between atoms: N_4  and  C_6
REMARK    6  A    between atoms: C_6  and  C_7
REMARK    7  A    between atoms: C_16  and  N_17
REMARK    8  A    between atoms: C_16  and  N_18
REMARK                            x       y       z     vdW  Elec       q    Type
REMARK                         _______ _______ _______ _____ _____    ______ ____
ROOT
ATOM      1  N   UNL     1       1.411  -0.889   1.773  0.00  0.00    -0.296 NA
ATOM      2  C   UNL     1       1.966   0.425   2.127  0.00  0.00    +0.105 C 
ENDROOT
BRANCH   1   3
ATOM      3  C   UNL     1       0.025  -0.764   1.303  0.00  0.00    +0.118 C 
BRANCH   3   5
ATOM      4  C   UNL     1      -0.018   1.503   0.010  0.00  0.00    +0.043 C 
ATOM      5  C   UNL     1       0.002  -0.004   0.002  0.00  0.00    -0.025 C 
ATOM      6  C   UNL     1       0.000  -0.658  -1.145  0.00  0.00    +0.063 C 
BRANCH   6   7
ATOM      7  N   UNL     1       0.019  -2.056  -1.152  0.00  0.00    -0.406 NA
ATOM      8  H   UNL     1      -0.927  -2.405  -1.145  0.00  0.00    +0.122 HD
ATOM      9  H   UNL     1       0.491  -2.381  -1.982  0.00  0.00    +0.122 HD
ATOM     10  H   UNL     1       0.507  -2.390  -0.335  0.00  0.00    +0.122 HD
ENDBRANCH   6   7
BRANCH   6  11
ATOM     11  N   UNL     1      -0.021   0.043  -2.344  0.00  0.00    -0.348 N 
ATOM     12  H   UNL     1      -0.034   1.013  -2.338  0.00  0.00    +0.143 HD
ATOM     13  H   UNL     1      -0.022  -0.437  -3.186  0.00  0.00    +0.143 HD
ENDBRANCH   6  11
ENDBRANCH   3   5
ENDBRANCH   1   3
BRANCH   1  14
ATOM     14  C   UNL     1       1.501  -1.820   2.906  0.00  0.00    +0.141 C 
BRANCH  14  15
ATOM     15  C   UNL     1       2.949  -2.112   3.202  0.00  0.00    +0.074 A 
ATOM     16  C   UNL     1       3.707  -1.480   4.126  0.00  0.00    +0.117 A 
ATOM     17  N   UNL     1       4.954  -2.042   4.077  0.00  0.00    -0.306 N 
ATOM     18  C   UNL     1       6.103  -1.803   4.775  0.00  0.00    +0.092 A 
ATOM     19  C   UNL     1       7.220  -2.517   4.526  0.00  0.00    +0.018 A 
ATOM     20  C   UNL     1       7.215  -3.519   3.542  0.00  0.00    +0.005 A 
ATOM     21  C   UNL     1       6.078  -3.769   2.839  0.00  0.00    +0.047 A 
ATOM     22  C   UNL     1       4.919  -3.014   3.111  0.00  0.00    +0.138 A 
ATOM     23  N   UNL     1       3.696  -3.041   2.600  0.00  0.00    -0.231 NA
ENDBRANCH  14  15
ENDBRANCH   1  14
TORSDOF 6
