REMARK  Name = ZINC40171252
REMARK  10 active torsions:
REMARK  status: ('A' for Active; 'I' for Inactive)
REMARK    1  A    between atoms: C_1  and  C_2
REMARK    2  A    between atoms: C_2  and  C_3
REMARK    3  A    between atoms: C_3  and  C_5
REMARK    4  A    between atoms: C_3  and  S_23
REMARK    5  A    between atoms: N_7  and  C_8
REMARK    6  A    between atoms: C_9  and  C_20
REMARK    7  A    between atoms: C_10  and  C_13
REMARK    8  A    between atoms: C_16  and  C_19
REMARK    9  A    between atoms: S_23  and  C_24
REMARK   10  A    between atoms: C_26  and  C_30
REMARK                            x       y       z     vdW  Elec       q    Type
REMARK                         _______ _______ _______ _____ _____    ______ ____
ROOT
ATOM      1  C   UNL     1       1.254  -4.107  -0.462  0.00  0.00    +0.085 A 
ATOM      2  C   UNL     1       2.098  -4.998   0.181  0.00  0.00    +0.073 A 
ATOM      3  C   UNL     1       1.728  -6.401   0.121  0.00  0.00    +0.003 A 
ATOM      4  C   UNL     1       0.588  -6.675  -0.565  0.00  0.00    +0.056 A 
ATOM      5  S   UNL     1       0.039  -5.070  -1.102  0.00  0.00    -0.081 S 
ENDROOT
BRANCH   3   6
ATOM      6  C   UNL     1       2.540  -7.462   0.764  0.00  0.00    -0.017 A 
ATOM      7  C   UNL     1       3.915  -7.520   0.545  0.00  0.00    +0.009 A 
ATOM      8  C   UNL     1       4.666  -8.509   1.147  0.00  0.00    +0.004 A 
ATOM      9  C   UNL     1       4.056  -9.443   1.965  0.00  0.00    -0.050 A 
ATOM     10  C   UNL     1       2.691  -9.390   2.186  0.00  0.00    +0.004 A 
ATOM     11  C   UNL     1       1.931  -8.402   1.594  0.00  0.00    +0.009 A 
ATOM     12  C   UNL     1       4.880 -10.521   2.619  0.00  0.00    +0.044 C 
ENDBRANCH   3   6
BRANCH   2  13
ATOM     13  C   UNL     1       3.301  -4.548   0.884  0.00  0.00    +0.244 C 
ATOM     14  O   UNL     1       3.241  -4.252   2.063  0.00  0.00    -0.270 OA
ATOM     15  N   UNL     1       4.474  -4.462   0.226  0.00  0.00    -0.325 N 
ATOM     16  H   UNL     1       4.521  -4.699  -0.713  0.00  0.00    +0.145 HD
ATOM     17  H   UNL     1       5.271  -4.164   0.692  0.00  0.00    +0.145 HD
ENDBRANCH   2  13
BRANCH   1  20
ATOM     18  C   UNL     1       0.458  -2.009  -1.216  0.00  0.00    +0.231 C 
ATOM     19  O   UNL     1      -0.485  -2.565  -1.737  0.00  0.00    -0.274 OA
ATOM     20  N   UNL     1       1.382  -2.730  -0.551  0.00  0.00    -0.278 N 
ATOM     21  H   UNL     1       2.137  -2.285  -0.134  0.00  0.00    +0.155 HD
BRANCH  18  22
ATOM     22  C   UNL     1       0.598  -0.511  -1.313  0.00  0.00    +0.139 C 
BRANCH  22  24
ATOM     23  C   UNL     1       0.376   1.637  -0.057  0.00  0.00    +0.005 C 
ATOM     24  C   UNL     1       0.108   0.132  -0.014  0.00  0.00    +0.020 C 
ENDBRANCH  22  24
BRANCH  22  25
ATOM     25  S   UNL     1      -0.396   0.100  -2.702  0.00  0.00    -0.093 S 
BRANCH  25  26
ATOM     26  C   UNL     1       0.418  -0.545  -4.125  0.00  0.00    +0.101 A 
ATOM     27  C   UNL     1      -0.131  -0.369  -5.398  0.00  0.00    +0.057 A 
ATOM     28  C   UNL     1       0.545  -0.893  -6.481  0.00  0.00    +0.042 A 
ATOM     29  N   UNL     1       1.684  -1.542  -6.281  0.00  0.00    -0.241 NA
ATOM     30  C   UNL     1       2.177  -1.691  -5.068  0.00  0.00    +0.222 A 
ATOM     31  N   UNL     1       1.568  -1.203  -4.006  0.00  0.00    -0.229 NA
ATOM     32  C   UNL     1      -0.005  -0.731  -7.875  0.00  0.00    +0.066 C 
ENDBRANCH  25  26
ENDBRANCH  22  25
ENDBRANCH  18  22
ENDBRANCH   1  20
TORSDOF 7
