REMARK  Name = ZINC24535295
REMARK  5 active torsions:
REMARK  status: ('A' for Active; 'I' for Inactive)
REMARK    1  A    between atoms: C_1  and  C_2
REMARK    2  A    between atoms: C_2  and  C_4
REMARK    3  A    between atoms: C_2  and  S_20
REMARK    4  A    between atoms: C_10  and  C_15
REMARK    5  A    between atoms: S_20  and  C_21
REMARK                            x       y       z     vdW  Elec       q    Type
REMARK                         _______ _______ _______ _____ _____    ______ ____
ROOT
ATOM      1  C   UNL     1       0.707  -0.490  -1.238  0.00  0.00    +0.124 A 
ATOM      2  N   UNL     1      -0.021  -0.808  -2.339  0.00  0.00    -0.309 N 
ATOM      3  H   UNL     1      -0.987  -0.718  -2.312  0.00  0.00    +0.170 HD
ATOM      4  C   UNL     1       0.570  -1.245  -3.466  0.00  0.00    +0.260 A 
ATOM      5  O   UNL     1      -0.098  -1.527  -4.446  0.00  0.00    -0.267 OA
ATOM      6  C   UNL     1       1.995  -1.375  -3.497  0.00  0.00    +0.080 A 
ATOM      7  C   UNL     1       2.858  -1.821  -4.585  0.00  0.00    +0.010 A 
ATOM      8  C   UNL     1       4.198  -1.861  -4.379  0.00  0.00    +0.057 A 
ATOM      9  S   UNL     1       4.374  -1.297  -2.697  0.00  0.00    -0.076 S 
ATOM     10  C   UNL     1       2.664  -1.023  -2.313  0.00  0.00    +0.116 A 
ATOM     11  N   UNL     1       2.009  -0.593  -1.237  0.00  0.00    -0.225 NA
ENDROOT
BRANCH   7  12
ATOM     12  C   UNL     1       2.283  -2.221  -5.887  0.00  0.00    +0.021 A 
ATOM     13  C   UNL     1       2.642  -1.825  -7.147  0.00  0.00    +0.016 A 
ATOM     14  C   UNL     1       1.953  -2.339  -8.225  0.00  0.00    +0.008 A 
ATOM     15  C   UNL     1       0.944  -3.219  -8.005  0.00  0.00    +0.046 A 
ATOM     16  S   UNL     1       0.946  -3.354  -6.225  0.00  0.00    -0.097 S 
ENDBRANCH   7  12
BRANCH   1  18
ATOM     17  C   UNL     1      -0.019   1.526   0.010  0.00  0.00    +0.027 C 
ATOM     18  C   UNL     1       0.002  -0.004   0.002  0.00  0.00    +0.117 C 
BRANCH  18  19
ATOM     19  S   UNL     1       0.879  -0.605   1.472  0.00  0.00    -0.075 S 
BRANCH  19  20
ATOM     20  C   UNL     1      -0.136  -0.087   2.816  0.00  0.00    +0.192 A 
ATOM     21  N   UNL     1       0.235  -0.371   4.059  0.00  0.00    -0.207 NA
ATOM     22  C   UNL     1      -0.485  -0.008   5.106  0.00  0.00    +0.129 A 
ATOM     23  C   UNL     1      -1.698   0.709   4.904  0.00  0.00    +0.047 A 
ATOM     24  C   UNL     1      -2.651   1.212   5.879  0.00  0.00    +0.021 A 
ATOM     25  C   UNL     1      -3.739   1.869   5.451  0.00  0.00    +0.048 A 
ATOM     26  S   UNL     1      -3.560   1.862   3.678  0.00  0.00    -0.077 S 
ATOM     27  C   UNL     1      -2.029   0.976   3.558  0.00  0.00    +0.114 A 
ATOM     28  N   UNL     1      -1.252   0.584   2.567  0.00  0.00    -0.215 NA
ATOM     29  N   UNL     1      -0.065  -0.323   6.386  0.00  0.00    -0.343 N 
ATOM     30  H   UNL     1       0.761  -0.812   6.518  0.00  0.00    +0.144 HD
ATOM     31  H   UNL     1      -0.598  -0.055   7.151  0.00  0.00    +0.144 HD
ENDBRANCH  19  20
ENDBRANCH  18  19
ENDBRANCH   1  18
TORSDOF 4
