REMARK  Name = ZINC63376155
REMARK  6 active torsions:
REMARK  status: ('A' for Active; 'I' for Inactive)
REMARK    1  A    between atoms: C_1  and  C_2
REMARK    2  A    between atoms: C_2  and  C_3
REMARK    3  A    between atoms: C_3  and  C_4
REMARK    4  A    between atoms: C_4  and  N_5
REMARK    5  A    between atoms: C_10  and  C_28
REMARK    6  A    between atoms: C_28  and  C_29
REMARK                            x       y       z     vdW  Elec       q    Type
REMARK                         _______ _______ _______ _____ _____    ______ ____
ROOT
ATOM      1  N   UNL     1      -2.787  -2.571   0.015  0.00  0.00    -0.242 N 
ATOM      2  C   UNL     1      -3.457  -2.822   1.145  0.00  0.00    +0.227 C 
ATOM      3  O   UNL     1      -3.023  -2.663   2.266  0.00  0.00    -0.275 OA
ATOM      4  C   UNL     1      -4.839  -3.333   0.808  0.00  0.00    +0.107 C 
ATOM      5  C   UNL     1      -4.942  -4.819   1.213  0.00  0.00    +0.072 C 
ATOM      6  N   UNL     1      -5.578  -5.489   0.048  0.00  0.00    -0.295 NA
ATOM      7  C   UNL     1      -4.977  -4.824  -1.123  0.00  0.00    +0.136 C 
ATOM      8  C   UNL     1      -4.853  -3.327  -0.747  0.00  0.00    +0.122 C 
ATOM      9  C   UNL     1      -3.477  -2.815  -1.105  0.00  0.00    +0.228 C 
ATOM     10  O   UNL     1      -3.061  -2.654  -2.233  0.00  0.00    -0.275 OA
ATOM     11  C   UNL     1      -5.820  -5.010  -2.353  0.00  0.00    +0.005 A 
ATOM     12  C   UNL     1      -7.119  -4.681  -2.670  0.00  0.00    +0.027 A 
ATOM     13  C   UNL     1      -7.627  -4.992  -3.920  0.00  0.00    +0.041 A 
ATOM     14  C   UNL     1      -6.825  -5.632  -4.849  0.00  0.00    +0.022 A 
ATOM     15  C   UNL     1      -5.523  -5.962  -4.535  0.00  0.00    +0.025 A 
ATOM     16  C   UNL     1      -5.005  -5.653  -3.279  0.00  0.00    +0.039 A 
ATOM     17  N   UNL     1      -3.739  -5.880  -2.733  0.00  0.00    -0.283 N 
ATOM     18  C   UNL     1      -3.642  -5.424  -1.470  0.00  0.00    +0.243 C 
ATOM     19  O   UNL     1      -2.667  -5.485  -0.751  0.00  0.00    -0.273 OA
ATOM     20 CL   UNL     1      -9.265  -4.579  -4.322  0.00  0.00    -0.084 Cl
ATOM     21  H   UNL     1      -5.376  -6.478   0.046  0.00  0.00    +0.124 HD
ATOM     22  H   UNL     1      -3.015  -6.316  -3.209  0.00  0.00    +0.155 HD
ENDROOT
BRANCH   1  23
ATOM     23  C   UNL     1      -1.413  -2.063   0.004  0.00  0.00    +0.116 C 
BRANCH  23  24
ATOM     24  C   UNL     1      -1.433  -0.534   0.013  0.00  0.00    +0.019 C 
BRANCH  24  26
ATOM     25  C   UNL     1      -0.019   1.526   0.010  0.00  0.00    +0.004 C 
ATOM     26  C   UNL     1       0.002  -0.004   0.002  0.00  0.00    -0.002 C 
ENDBRANCH  24  26
ENDBRANCH  23  24
ENDBRANCH   1  23
BRANCH   5  27
ATOM     27  C   UNL     1      -5.816  -4.971   2.460  0.00  0.00    +0.052 C 
BRANCH  27  28
ATOM     28  C   UNL     1      -5.803  -6.409   2.910  0.00  0.00    -0.040 C 
ATOM     29  C   UNL     1      -5.003  -6.960   3.852  0.00  0.00    -0.001 A 
ATOM     30  C   UNL     1      -3.946  -6.406   4.705  0.00  0.00    +0.010 A 
ATOM     31  C   UNL     1      -3.306  -7.224   5.572  0.00  0.00    +0.001 A 
ATOM     32  C   UNL     1      -3.628  -8.584   5.675  0.00  0.00    +0.002 A 
ATOM     33  C   UNL     1      -4.587  -9.166   4.924  0.00  0.00    +0.026 A 
ATOM     34  C   UNL     1      -5.324  -8.399   3.980  0.00  0.00    +0.043 A 
ATOM     35  N   UNL     1      -6.285  -8.726   3.150  0.00  0.00    -0.380 N 
ATOM     36  C   UNL     1      -6.687  -7.528   2.405  0.00  0.00    +0.144 C 
ATOM     37  H   UNL     1      -6.668  -9.611   3.048  0.00  0.00    +0.160 HD
ENDBRANCH  27  28
ENDBRANCH   5  27
TORSDOF 5
