REMARK  Name = ZINC40704740
REMARK  6 active torsions:
REMARK  status: ('A' for Active; 'I' for Inactive)
REMARK    1  A    between atoms: C_1  and  C_2
REMARK    2  A    between atoms: C_5  and  C_24
REMARK    3  A    between atoms: C_6  and  N_8
REMARK    4  A    between atoms: C_10  and  N_23
REMARK    5  A    between atoms: C_11  and  N_15
REMARK    6  A    between atoms: N_15  and  C_16
REMARK                            x       y       z     vdW  Elec       q    Type
REMARK                         _______ _______ _______ _____ _____    ______ ____
ROOT
ATOM      1  N   UNL     1       0.087  -2.793   2.388  0.00  0.00    -0.298 N 
ATOM      2  C   UNL     1       0.181  -2.111   3.595  0.00  0.00    +0.149 A 
ATOM      3  C   UNL     1       0.298  -2.810   4.798  0.00  0.00    +0.106 A 
ATOM      4  C   UNL     1       0.390  -2.075   5.981  0.00  0.00    +0.149 A 
ATOM      5  N   UNL     1       0.362  -0.746   5.919  0.00  0.00    -0.219 NA
ATOM      6  C   UNL     1       0.250  -0.125   4.762  0.00  0.00    +0.225 A 
ATOM      7  N   UNL     1       0.166  -0.780   3.622  0.00  0.00    -0.219 NA
ATOM      8  H   UNL     1       0.012  -3.761   2.382  0.00  0.00    +0.154 HD
ENDROOT
BRANCH   1  14
ATOM      9  C   UNL     1       1.345   1.226  -0.147  0.00  0.00    +0.044 C 
ATOM     10  C   UNL     1       0.702  -0.136  -0.075  0.00  0.00    -0.049 A 
ATOM     11  C   UNL     1       0.124  -0.687  -1.204  0.00  0.00    +0.004 A 
ATOM     12  C   UNL     1      -0.467  -1.935  -1.143  0.00  0.00    +0.005 A 
ATOM     13  C   UNL     1      -0.481  -2.637   0.047  0.00  0.00    -0.029 A 
ATOM     14  C   UNL     1       0.099  -2.087   1.182  0.00  0.00    +0.036 A 
ATOM     15  C   UNL     1       0.696  -0.834   1.116  0.00  0.00    +0.027 A 
ATOM     16  C   UNL     1      -1.126  -3.997   0.112  0.00  0.00    +0.045 C 
ENDBRANCH   1  14
BRANCH   3  17
ATOM     17  N   UNL     1       0.323  -4.214   4.817  0.00  0.00    -0.353 N 
ATOM     18  H   UNL     1       0.258  -4.711   3.986  0.00  0.00    +0.143 HD
ATOM     19  H   UNL     1       0.405  -4.686   5.660  0.00  0.00    +0.143 HD
ENDBRANCH   3  17
BRANCH   4  20
ATOM     20  N   UNL     1       0.508  -2.722   7.207  0.00  0.00    -0.295 N 
ATOM     21  H   UNL     1       0.596  -3.688   7.239  0.00  0.00    +0.154 HD
BRANCH  20  22
ATOM     22  C   UNL     1       0.501  -1.980   8.392  0.00  0.00    +0.070 A 
ATOM     23  C   UNL     1       1.075  -0.712   8.436  0.00  0.00    +0.028 A 
ATOM     24  C   UNL     1       1.043  -0.016   9.633  0.00  0.00    +0.022 A 
ATOM     25  C   UNL     1       0.449  -0.598  10.737  0.00  0.00    +0.112 A 
ATOM     26  N   UNL     1      -0.086  -1.801  10.665  0.00  0.00    -0.242 NA
ATOM     27  C   UNL     1      -0.083  -2.496   9.544  0.00  0.00    +0.150 A 
ATOM     28 CL   UNL     1      -0.810  -4.072   9.507  0.00  0.00    -0.060 Cl
ENDBRANCH  20  22
ENDBRANCH   4  20
TORSDOF 4
