REMARK  Name = ZINC12329438
REMARK  7 active torsions:
REMARK  status: ('A' for Active; 'I' for Inactive)
REMARK    1  A    between atoms: C_1  and  C_2
REMARK    2  A    between atoms: C_5  and  C_8
REMARK    3  A    between atoms: C_8  and  C_10
REMARK    4  A    between atoms: C_8  and  O_28
REMARK    5  A    between atoms: C_10  and  N_56
REMARK    6  A    between atoms: C_17  and  O_27
REMARK    7  A    between atoms: C_21  and  C_26
REMARK                            x       y       z     vdW  Elec       q    Type
REMARK                         _______ _______ _______ _____ _____    ______ ____
ROOT
ATOM      1  C   UNL     1      -3.948  -0.485  -0.690  0.00  0.00    -0.075 C 
ATOM      2  C   UNL     1      -2.450  -0.191  -0.797  0.00  0.00    +0.029 C 
ATOM      3  C   UNL     1      -2.245   1.303  -1.059  0.00  0.00    +0.110 C 
ATOM      4  C   UNL     1      -2.995   1.704  -2.331  0.00  0.00    +0.029 C 
ATOM      5  C   UNL     1      -4.477   1.352  -2.178  0.00  0.00    -0.075 C 
ATOM      6  C   UNL     1      -0.752   1.592  -1.233  0.00  0.00    +0.084 C 
ATOM      7  C   UNL     1      -0.013   1.086   0.008  0.00  0.00    +0.152 C 
ATOM      8  C   UNL     1      -0.717   1.571   1.250  0.00  0.00    +0.023 A 
ATOM      9  C   UNL     1      -0.030   1.563   2.452  0.00  0.00    +0.013 A 
ATOM     10  C   UNL     1      -0.644   1.998   3.610  0.00  0.00    -0.050 A 
ATOM     11  C   UNL     1      -1.953   2.444   3.571  0.00  0.00    +0.007 A 
ATOM     12  C   UNL     1      -2.642   2.456   2.376  0.00  0.00    +0.046 A 
ATOM     13  C   UNL     1      -2.025   2.020   1.208  0.00  0.00    +0.127 A 
ATOM     14  O   UNL     1      -2.732   2.059   0.048  0.00  0.00    -0.485 OA
ATOM     15  C   UNL     1       0.110   1.986   4.914  0.00  0.00    +0.044 C 
ATOM     16  N   UNL     1      -4.604  -0.104  -1.958  0.00  0.00    +0.382 N 
ATOM     17  H   UNL     1      -4.145  -0.599  -2.732  0.00  0.00    -0.082 HD
ENDROOT
BRANCH   7  18
ATOM     18  O   UNL     1       1.328   1.580  -0.002  0.00  0.00    -0.387 OA
ATOM     19  H   UNL     1       1.857   1.297   0.756  0.00  0.00    +0.210 HD
ENDBRANCH   7  18
BRANCH  16  20
ATOM     20  C   UNL     1      -6.031  -0.486  -1.923  0.00  0.00    -0.042 C 
BRANCH  20  21
ATOM     21  C   UNL     1      -6.629  -0.286  -3.317  0.00  0.00    +0.128 C 
BRANCH  21  26
ATOM     22  C   UNL     1     -12.297  -1.398  -3.158  0.00  0.00    +0.044 C 
ATOM     23  C   UNL     1     -10.819  -1.108  -3.200  0.00  0.00    -0.050 A 
ATOM     24  C   UNL     1     -10.370   0.199  -3.167  0.00  0.00    +0.004 A 
ATOM     25  C   UNL     1      -9.014   0.465  -3.205  0.00  0.00    +0.006 A 
ATOM     26  C   UNL     1      -8.107  -0.576  -3.276  0.00  0.00    -0.021 A 
ATOM     27  C   UNL     1      -8.557  -1.883  -3.314  0.00  0.00    +0.006 A 
ATOM     28  C   UNL     1      -9.912  -2.149  -3.271  0.00  0.00    +0.004 A 
ENDBRANCH  21  26
BRANCH  21  29
ATOM     29  O   UNL     1      -5.995  -1.175  -4.239  0.00  0.00    -0.389 OA
ATOM     30  H   UNL     1      -6.096  -2.110  -4.017  0.00  0.00    +0.210 HD
ENDBRANCH  21  29
ENDBRANCH  20  21
ENDBRANCH  16  20
TORSDOF 5
