REMARK  Name = ZINC14684127
REMARK  6 active torsions:
REMARK  status: ('A' for Active; 'I' for Inactive)
REMARK    1  A    between atoms: CA_9  and  C_20
REMARK    2  A    between atoms: C_11  and  C_15
REMARK    3  A    between atoms: C_15  and  C_17
REMARK    4  A    between atoms: C_15  and  O_19
REMARK    5  A    between atoms: C_17  and  O_18
REMARK    6  A    between atoms: C_20  and  O_21
REMARK                            x       y       z     vdW  Elec       q    Type
REMARK                         _______ _______ _______ _____ _____    ______ ____
ROOT
ATOM      1  C   UNL     1       5.111   6.409  -4.808  0.00  0.00    +0.001 A 
ATOM      2  C   UNL     1       3.919   6.109  -5.451  0.00  0.00    +0.002 A 
ATOM      3  C   UNL     1       2.909   5.451  -4.783  0.00  0.00    +0.026 A 
ATOM      4  C   UNL     1       3.080   5.080  -3.452  0.00  0.00    +0.048 A 
ATOM      5  C   UNL     1       4.288   5.383  -2.803  0.00  0.00    +0.008 A 
ATOM      6  C   UNL     1       5.300   6.049  -3.492  0.00  0.00    +0.010 A 
ATOM      7  C   UNL     1       4.162   4.869  -1.431  0.00  0.00    +0.011 A 
ATOM      8  C   UNL     1       4.994   4.851  -0.311  0.00  0.00    +0.036 A 
ATOM      9  CA  UNL     1       4.532   4.263   0.847  0.00  0.00    +0.068 A 
ATOM     10  N   UNL     1       3.325   3.730   0.906  0.00  0.00    -0.249 NA
ATOM     11  C   UNL     1       2.506   3.717  -0.126  0.00  0.00    +0.096 A 
ATOM     12  C   UNL     1       2.887   4.286  -1.335  0.00  0.00    +0.072 A 
ATOM     13  N   UNL     1       2.255   4.424  -2.557  0.00  0.00    -0.353 N 
ATOM     14  H   UNL     1       1.361   4.106  -2.757  0.00  0.00    +0.166 HD
ENDROOT
BRANCH  11  15
ATOM     15  C   UNL     1       1.145   3.085   0.008  0.00  0.00    +0.190 C 
BRANCH  15  16
ATOM     16  O   UNL     1       0.546   3.500   1.237  0.00  0.00    -0.383 OA
ATOM     17  H   UNL     1       1.052   3.256   2.023  0.00  0.00    +0.210 HD
ENDBRANCH  15  16
BRANCH  15  18
ATOM     18  C   UNL     1       1.286   1.562  -0.002  0.00  0.00    +0.193 C 
BRANCH  18  19
ATOM     19  O   UNL     1      -0.011   0.963   0.007  0.00  0.00    -0.392 OA
ATOM     20  H   UNL     1       0.002  -0.004   0.002  0.00  0.00    +0.210 HD
ENDBRANCH  18  19
ENDBRANCH  15  18
ENDBRANCH  11  15
BRANCH   9  21
ATOM     21  C   UNL     1       5.416   4.235   2.068  0.00  0.00    +0.211 C 
BRANCH  21  22
ATOM     22  O   UNL     1       6.660   4.871   1.770  0.00  0.00    -0.389 OA
ATOM     23  H   UNL     1       7.280   4.889   2.511  0.00  0.00    +0.210 HD
ENDBRANCH  21  22
ENDBRANCH   9  21
TORSDOF 6
