REMARK  Name = ZINC16226512
REMARK  7 active torsions:
REMARK  status: ('A' for Active; 'I' for Inactive)
REMARK    1  A    between atoms: C_1  and  O_2
REMARK    2  A    between atoms: O_2  and  C_3
REMARK    3  A    between atoms: C_8  and  C_9
REMARK    4  A    between atoms: N_10  and  N_11
REMARK    5  A    between atoms: C_12  and  C_14
REMARK    6  A    between atoms: C_14  and  N_15
REMARK    7  A    between atoms: C_23  and  C_24
REMARK                            x       y       z     vdW  Elec       q    Type
REMARK                         _______ _______ _______ _____ _____    ______ ____
ROOT
ATOM      1  N   UNL     1      -7.197  -0.041   0.073  0.00  0.00    -0.313 N 
ATOM      2  C   UNL     1      -7.821   0.470   1.193  0.00  0.00    +0.070 A 
ATOM      3  C   UNL     1      -7.625   0.319   2.559  0.00  0.00    +0.028 A 
ATOM      4  C   UNL     1      -8.439   0.994   3.445  0.00  0.00    +0.002 A 
ATOM      5  C   UNL     1      -9.448   1.825   2.980  0.00  0.00    +0.002 A 
ATOM      6  C   UNL     1      -9.654   1.991   1.641  0.00  0.00    +0.030 A 
ATOM      7  C   UNL     1      -8.841   1.317   0.722  0.00  0.00    +0.090 A 
ATOM      8  N   UNL     1      -8.799   1.279  -0.631  0.00  0.00    -0.226 NA
ATOM      9  C   UNL     1      -7.835   0.482  -1.019  0.00  0.00    +0.168 A 
ENDROOT
BRANCH   9  10
ATOM     10  C   UNL     1      -7.487   0.191  -2.428  0.00  0.00    +0.190 A 
ATOM     11  C   UNL     1      -8.121   0.703  -3.665  0.00  0.00    +0.191 A 
ATOM     12  N   UNL     1      -7.415   0.124  -4.608  0.00  0.00    -0.033 NA
ATOM     13  O   UNL     1      -6.567  -0.575  -4.105  0.00  0.00    -0.240 OA
ATOM     14  N   UNL     1      -6.540  -0.593  -2.897  0.00  0.00    -0.044 NA
ATOM     15  N   UNL     1      -9.192   1.578  -3.794  0.00  0.00    -0.339 N 
ATOM     16  H   UNL     1      -9.624   1.935  -3.003  0.00  0.00    +0.144 HD
ATOM     17  H   UNL     1      -9.508   1.831  -4.676  0.00  0.00    +0.144 HD
ENDBRANCH   9  10
BRANCH   1  18
ATOM     18  C   UNL     1      -6.068  -0.974   0.057  0.00  0.00    +0.221 C 
BRANCH  18  20
ATOM     19  N   UNL     1      -3.598  -0.853   0.033  0.00  0.00    -0.206 N 
ATOM     20  C   UNL     1      -4.776  -0.199   0.048  0.00  0.00    +0.252 C 
ATOM     21  O   UNL     1      -4.796   1.014   0.055  0.00  0.00    -0.272 OA
ATOM     22  H   UNL     1      -3.582  -1.823   0.028  0.00  0.00    +0.177 HD
BRANCH  19  24
ATOM     23  C   UNL     1      -1.262  -0.762   0.011  0.00  0.00    +0.142 C 
ATOM     24  N   UNL     1      -2.396  -0.132   0.025  0.00  0.00    -0.188 NA
BRANCH  23  30
ATOM     25  C   UNL     1      -0.017   1.397   0.010  0.00  0.00    +0.129 A 
ATOM     26  C   UNL     1       1.176   2.101   0.002  0.00  0.00    +0.047 A 
ATOM     27  C   UNL     1       2.381   1.423  -0.013  0.00  0.00    +0.019 A 
ATOM     28  C   UNL     1       2.405   0.038  -0.021  0.00  0.00    +0.019 A 
ATOM     29  C   UNL     1       1.225  -0.678  -0.013  0.00  0.00    +0.028 A 
ATOM     30  C   UNL     1       0.002  -0.004   0.002  0.00  0.00    +0.037 A 
ATOM     31 BR   UNL     1       4.061  -0.875  -0.041  0.00  0.00    -0.050 Br
BRANCH  25  33
ATOM     32  C   UNL     1      -1.142   3.491   0.026  0.00  0.00    +0.277 C 
ATOM     33  O   UNL     1      -1.201   2.063   0.019  0.00  0.00    -0.494 OA
ENDBRANCH  25  33
ENDBRANCH  23  30
ENDBRANCH  19  24
ENDBRANCH  18  20
ENDBRANCH   1  18
TORSDOF 6
