REMARK  Name = ZINC37617709
REMARK  9 active torsions:
REMARK  status: ('A' for Active; 'I' for Inactive)
REMARK    1  A    between atoms: C_1  and  C_2
REMARK    2  A    between atoms: C_2  and  C_3
REMARK    3  A    between atoms: C_3  and  C_5
REMARK    4  A    between atoms: C_3  and  N_6
REMARK    5  A    between atoms: N_6  and  C_7
REMARK    6  A    between atoms: C_7  and  C_8
REMARK    7  A    between atoms: N_10  and  C_11
REMARK    8  A    between atoms: C_14  and  S_18
REMARK    9  A    between atoms: S_18  and  N_21
REMARK                            x       y       z     vdW  Elec       q    Type
REMARK                         _______ _______ _______ _____ _____    ______ ____
ROOT
ATOM      1  C   UNL     1      -0.399  -0.057  -7.234  0.00  0.00    +0.048 A 
ATOM      2  C   UNL     1      -1.263   1.030  -7.239  0.00  0.00    +0.026 A 
ATOM      3  C   UNL     1      -2.033   1.294  -8.355  0.00  0.00    +0.030 A 
ATOM      4  C   UNL     1      -1.945   0.477  -9.467  0.00  0.00    +0.106 A 
ATOM      5  C   UNL     1      -1.086  -0.606  -9.466  0.00  0.00    +0.045 A 
ATOM      6  C   UNL     1      -0.308  -0.873  -8.355  0.00  0.00    +0.041 A 
ATOM      7 BR   UNL     1       0.872  -2.350  -8.358  0.00  0.00    -0.048 Br
ENDROOT
BRANCH   1  10
ATOM      8  C   UNL     1      -0.105  -0.080  -4.873  0.00  0.00    +0.200 C 
ATOM      9  O   UNL     1      -1.188   0.451  -4.745  0.00  0.00    -0.278 OA
ATOM     10  N   UNL     1       0.383  -0.327  -6.105  0.00  0.00    -0.286 N 
ATOM     11  H   UNL     1       1.275  -0.692  -6.209  0.00  0.00    +0.155 HD
BRANCH   8  12
ATOM     12  C   UNL     1       0.695  -0.464  -3.655  0.00  0.00    +0.015 C 
BRANCH  12  13
ATOM     13  N   UNL     1      -0.049  -0.092  -2.444  0.00  0.00    +0.386 N 
ATOM     14  H   UNL     1      -0.934  -0.576  -2.431  0.00  0.00    -0.085 HD
ATOM     15  H   UNL     1      -0.209   0.904  -2.441  0.00  0.00    -0.085 HD
BRANCH  13  16
ATOM     16  C   UNL     1       0.731  -0.467  -1.257  0.00  0.00    -0.075 C 
ATOM     17  C   UNL     1       0.869  -1.989  -1.196  0.00  0.00    -0.014 C 
BRANCH  16  19
ATOM     18  C   UNL     1      -0.010   1.561   0.000  0.00  0.00    +0.002 C 
ATOM     19  C   UNL     1       0.017   0.031   0.001  0.00  0.00    -0.019 C 
ENDBRANCH  16  19
ENDBRANCH  13  16
ENDBRANCH  12  13
ENDBRANCH   8  12
ENDBRANCH   1  10
BRANCH   4  20
ATOM     20  S   UNL     1      -2.929   0.818 -10.888  0.00  0.00    +0.056 S 
ATOM     21  O   UNL     1      -3.065  -0.409 -11.591  0.00  0.00    -0.153 OA
ATOM     22  O   UNL     1      -4.050   1.565 -10.436  0.00  0.00    -0.153 OA
BRANCH  20  23
ATOM     23  N   UNL     1      -2.049   1.827 -11.863  0.00  0.00    -0.204 NA
ATOM     24  H   UNL     1      -1.162   2.111 -11.592  0.00  0.00    +0.144 HD
ATOM     25  H   UNL     1      -2.421   2.134 -12.705  0.00  0.00    +0.144 HD
ENDBRANCH  20  23
ENDBRANCH   4  20
TORSDOF 7
