REMARK  Name = ZINC00203747
REMARK  4 active torsions:
REMARK  status: ('A' for Active; 'I' for Inactive)
REMARK    1  A    between atoms: C_1  and  N_2
REMARK    2  A    between atoms: N_2  and  C_3
REMARK    3  A    between atoms: N_2  and  C_4
REMARK    4  A    between atoms: C_7  and  N_10
REMARK                            x       y       z     vdW  Elec       q    Type
REMARK                         _______ _______ _______ _____ _____    ______ ____
ROOT
ATOM      1  N   UNL     1      -1.273   7.022   2.130  0.00  0.00    -0.287 N 
ATOM      2  C   UNL     1      -2.005   7.466   3.207  0.00  0.00    +0.188 C 
ATOM      3  N   UNL     1      -2.215   8.736   3.367  0.00  0.00    -0.228 NA
ATOM      4  C   UNL     1      -3.002   9.264   4.478  0.00  0.00    +0.136 C 
ATOM      5  C   UNL     1      -2.305  10.509   5.037  0.00  0.00    +0.052 C 
ATOM      6  C   UNL     1      -3.124  11.070   6.201  0.00  0.00    +0.004 C 
ATOM      7  C   UNL     1      -4.519  11.455   5.705  0.00  0.00    +0.000 C 
ATOM      8  C   UNL     1      -5.216  10.219   5.134  0.00  0.00    +0.004 C 
ATOM      9  C   UNL     1      -4.394   9.660   3.971  0.00  0.00    +0.052 C 
ATOM     10  N   UNL     1      -3.144   8.275   5.544  0.00  0.00    -0.337 N 
ATOM     11  C   UNL     1      -2.917   7.013   5.354  0.00  0.00    +0.159 C 
ATOM     12  N   UNL     1      -2.510   6.558   4.117  0.00  0.00    -0.262 N 
ATOM     13  N   UNL     1      -3.082   6.124   6.390  0.00  0.00    -0.332 N 
ATOM     14  H   UNL     1      -0.948   7.733   1.355  0.00  0.00    +0.155 HD
ATOM     15  H   UNL     1      -2.581   5.494   3.849  0.00  0.00    +0.157 HD
ATOM     16  H   UNL     1      -2.890   5.053   6.231  0.00  0.00    +0.145 HD
ATOM     17  H   UNL     1      -3.407   6.485   7.377  0.00  0.00    +0.145 HD
ATOM     18  H   UNL     1      -3.455   8.636   6.535  0.00  0.00    +0.164 HD
ENDROOT
BRANCH   1  22
ATOM     19  C   UNL     1      -0.286   2.983   1.800  0.00  0.00    +0.029 A 
ATOM     20  C   UNL     1      -0.606   3.715   0.664  0.00  0.00    +0.025 A 
ATOM     21  C   UNL     1      -0.938   5.051   0.774  0.00  0.00    +0.025 A 
ATOM     22  C   UNL     1      -0.941   5.665   2.019  0.00  0.00    +0.033 A 
ATOM     23  C   UNL     1      -0.616   4.935   3.155  0.00  0.00    +0.025 A 
ATOM     24  C   UNL     1      -0.289   3.598   3.046  0.00  0.00    +0.025 A 
BRANCH  19  26
ATOM     25  C   UNL     1       0.388   0.858   2.888  0.00  0.00    +0.129 C 
ATOM     26  N   UNL     1       0.045   1.628   1.690  0.00  0.00    -0.336 N 
ATOM     27  C   UNL     1       0.049   0.980   0.376  0.00  0.00    +0.129 C 
ENDBRANCH  19  26
ENDBRANCH   1  22
TORSDOF 2
