REMARK  Name = ZINC13238716
REMARK  9 active torsions:
REMARK  status: ('A' for Active; 'I' for Inactive)
REMARK    1  A    between atoms: C_1  and  C_2
REMARK    2  A    between atoms: C_2  and  C_3
REMARK    3  A    between atoms: C_3  and  C_5
REMARK    4  A    between atoms: C_3  and  N_6
REMARK    5  A    between atoms: C_10  and  S_12
REMARK    6  A    between atoms: S_12  and  C_13
REMARK    7  A    between atoms: C_13  and  C_14
REMARK    8  A    between atoms: C_20  and  C_28
REMARK    9  A    between atoms: C_21  and  C_25
REMARK                            x       y       z     vdW  Elec       q    Type
REMARK                         _______ _______ _______ _____ _____    ______ ____
ROOT
ATOM      1  C   UNL     1       6.232   0.734  -8.214  0.00  0.00    +0.121 A 
ATOM      2  N   UNL     1       5.896   0.582  -9.518  0.00  0.00    -0.310 N 
ATOM      3  H   UNL     1       4.991   0.320  -9.748  0.00  0.00    +0.170 HD
ATOM      4  C   UNL     1       6.793   0.789 -10.502  0.00  0.00    +0.260 A 
ATOM      5  O   UNL     1       6.481   0.651 -11.671  0.00  0.00    -0.267 OA
ATOM      6  C   UNL     1       8.169   1.189 -10.125  0.00  0.00    +0.076 A 
ATOM      7  C   UNL     1       9.263   1.459 -10.947  0.00  0.00    -0.015 A 
ATOM      8  C   UNL     1      10.465   1.819 -10.382  0.00  0.00    +0.106 A 
ATOM      9  S   UNL     1      10.101   1.794  -8.635  0.00  0.00    -0.062 S 
ATOM     10  C   UNL     1       8.395   1.313  -8.734  0.00  0.00    +0.116 A 
ATOM     11  N   UNL     1       7.434   1.090  -7.847  0.00  0.00    -0.226 NA
ATOM     12  C   UNL     1       9.130   1.356 -12.445  0.00  0.00    +0.046 C 
ENDROOT
BRANCH   8  13
ATOM     13  C   UNL     1      11.689   2.132 -11.027  0.00  0.00    +0.393 C 
ATOM     14  O   UNL     1      11.763   2.099 -12.249  0.00  0.00    -0.240 OA
ATOM     15  O   UNL     1      12.672   2.436 -10.361  0.00  0.00    -0.240 OA
ENDBRANCH   8  13
BRANCH   1  16
ATOM     16  C   UNL     1       5.187   0.489  -7.156  0.00  0.00    +0.150 C 
BRANCH  16  17
ATOM     17  S   UNL     1       5.909   0.771  -5.516  0.00  0.00    -0.089 S 
BRANCH  17  22
ATOM     18  N   UNL     1       2.125  -0.091  -1.209  0.00  0.00    -0.319 N 
ATOM     19  C   UNL     1       2.846   0.056  -2.389  0.00  0.00    +0.183 A 
ATOM     20  N   UNL     1       2.452  -0.114  -3.635  0.00  0.00    -0.125 NA
ATOM     21  N   UNL     1       3.340   0.087  -4.667  0.00  0.00    -0.133 NA
ATOM     22  C   UNL     1       4.580   0.450  -4.404  0.00  0.00    +0.160 A 
ATOM     23  S   UNL     1       4.551   0.534  -2.620  0.00  0.00    -0.025 S 
ATOM     24  H   UNL     1       2.553   0.075  -0.355  0.00  0.00    +0.148 HD
BRANCH  18  25
ATOM     25  C   UNL     1       0.718  -0.497  -1.257  0.00  0.00    +0.069 C 
ATOM     26  C   UNL     1       0.630  -2.023  -1.329  0.00  0.00    +0.028 C 
BRANCH  25  28
ATOM     27  C   UNL     1      -0.019   1.526   0.010  0.00  0.00    +0.005 C 
ATOM     28  C   UNL     1       0.002  -0.004   0.002  0.00  0.00    +0.018 C 
ENDBRANCH  25  28
ENDBRANCH  18  25
ENDBRANCH  17  22
ENDBRANCH  16  17
ENDBRANCH   1  16
TORSDOF 6
