REMARK  Name = ZINC43666616
REMARK  5 active torsions:
REMARK  status: ('A' for Active; 'I' for Inactive)
REMARK    1  A    between atoms: C_1  and  C_2
REMARK    2  A    between atoms: C_5  and  C_7
REMARK    3  A    between atoms: C_10  and  C_12
REMARK    4  A    between atoms: C_12  and  N_13
REMARK    5  A    between atoms: C_14  and  N_19
REMARK                            x       y       z     vdW  Elec       q    Type
REMARK                         _______ _______ _______ _____ _____    ______ ____
ROOT
ATOM      1  C   UNL     1       1.172   2.680   4.875  0.00  0.00    +0.219 C 
ENDROOT
BRANCH   1   2
ATOM      2  N   UNL     1       1.287   4.011   4.274  0.00  0.00    -0.243 N 
ATOM      3  C   UNL     1       2.404   4.783   4.247  0.00  0.00    +0.128 A 
ATOM      4  C   UNL     1       2.088   5.937   3.597  0.00  0.00    +0.072 A 
ATOM      5  C   UNL     1       0.745   5.862   3.219  0.00  0.00    +0.150 A 
ATOM      6  N   UNL     1       0.267   4.711   3.617  0.00  0.00    -0.177 NA
ATOM      7  I   UNL     1       3.386   7.540   3.229  0.00  0.00    -0.039 I 
BRANCH   3   8
ATOM      8  N   UNL     1       3.645   4.454   4.787  0.00  0.00    -0.343 N 
ATOM      9  H   UNL     1       3.770   3.602   5.234  0.00  0.00    +0.144 HD
ATOM     10  H   UNL     1       4.385   5.077   4.716  0.00  0.00    +0.144 HD
ENDBRANCH   3   8
ENDBRANCH   1   2
BRANCH   1  14
ATOM     11  C   UNL     1       1.314   0.159   2.237  0.00  0.00    +0.109 A 
ATOM     12  C   UNL     1       2.614   0.183   2.579  0.00  0.00    +0.045 A 
ATOM     13  C   UNL     1       2.747   1.133   3.619  0.00  0.00    +0.047 A 
ATOM     14  C   UNL     1       1.519   1.633   3.849  0.00  0.00    +0.127 A 
ATOM     15  O   UNL     1       0.656   1.043   3.005  0.00  0.00    -0.462 OA
BRANCH  11  19
ATOM     16  C   UNL     1      -0.019   1.526   0.010  0.00  0.00    +0.008 C 
ATOM     17  C   UNL     1       0.002  -0.004   0.002  0.00  0.00    -0.003 C 
ATOM     18  C   UNL     1      -0.828  -0.728   1.065  0.00  0.00    +0.015 C 
ATOM     19  C   UNL     1       0.700  -0.708   1.168  0.00  0.00    +0.058 C 
ENDBRANCH  11  19
ENDBRANCH   1  14
TORSDOF 4
