REMARK  Name = ZINC40346830
REMARK  10 active torsions:
REMARK  status: ('A' for Active; 'I' for Inactive)
REMARK    1  A    between atoms: C_1  and  C_2
REMARK    2  A    between atoms: C_4  and  N_20
REMARK    3  A    between atoms: C_7  and  S_8
REMARK    4  A    between atoms: S_8  and  N_11
REMARK    5  A    between atoms: N_11  and  C_12
REMARK    6  A    between atoms: N_11  and  C_13
REMARK    7  A    between atoms: C_13  and  C_14
REMARK    8  A    between atoms: N_16  and  C_17
REMARK    9  A    between atoms: C_17  and  C_18
REMARK   10  A    between atoms: C_17  and  C_19
REMARK                            x       y       z     vdW  Elec       q    Type
REMARK                         _______ _______ _______ _____ _____    ______ ____
ROOT
ATOM      1  S   UNL     1       0.319   0.109   2.465  0.00  0.00    +0.061 S 
ATOM      2  O   UNL     1      -0.825   0.931   2.276  0.00  0.00    -0.153 OA
ATOM      3  O   UNL     1       0.416  -0.827   3.530  0.00  0.00    -0.153 OA
ENDROOT
BRANCH   1  10
ATOM      4  C   UNL     1       0.234   1.335  -0.296  0.00  0.00    +0.046 C 
ATOM      5  C   UNL     1       0.480  -0.151  -0.246  0.00  0.00    -0.022 A 
ATOM      6  C   UNL     1       0.656  -0.861  -1.418  0.00  0.00    +0.028 A 
ATOM      7  C   UNL     1       0.884  -2.230  -1.371  0.00  0.00    +0.025 A 
ATOM      8  C   UNL     1       0.934  -2.881  -0.145  0.00  0.00    +0.024 A 
ATOM      9  C   UNL     1       0.758  -2.166   1.022  0.00  0.00    +0.030 A 
ATOM     10  C   UNL     1       0.536  -0.802   0.973  0.00  0.00    +0.108 A 
BRANCH   7  11
ATOM     11  N   UNL     1       1.062  -2.951  -2.554  0.00  0.00    -0.358 N 
ATOM     12  H   UNL     1       1.026  -2.495  -3.410  0.00  0.00    +0.142 HD
ATOM     13  H   UNL     1       1.221  -3.907  -2.521  0.00  0.00    +0.142 HD
ENDBRANCH   7  11
ENDBRANCH   1  10
BRANCH   1  14
ATOM     14  N   UNL     1       1.616   1.128   2.611  0.00  0.00    -0.171 NA
ATOM     15  C   UNL     1       1.501   2.526   2.188  0.00  0.00    +0.132 C 
BRANCH  14  16
ATOM     16  C   UNL     1       2.879   0.631   3.163  0.00  0.00    +0.204 C 
BRANCH  16  17
ATOM     17  C   UNL     1       3.790   0.215   2.037  0.00  0.00    +0.229 C 
ATOM     18  O   UNL     1       3.421   0.322   0.887  0.00  0.00    -0.274 OA
ATOM     19  N   UNL     1       5.015  -0.277   2.308  0.00  0.00    -0.312 N 
ATOM     20  H   UNL     1       5.311  -0.363   3.228  0.00  0.00    +0.149 HD
BRANCH  19  21
ATOM     21  C   UNL     1       5.901  -0.682   1.214  0.00  0.00    +0.067 C 
ATOM     22  C   UNL     1       6.666   0.539   0.699  0.00  0.00    +0.027 C 
ATOM     23  C   UNL     1       6.894  -1.729   1.722  0.00  0.00    +0.027 C 
ENDBRANCH  19  21
ENDBRANCH  16  17
ENDBRANCH  14  16
ENDBRANCH   1  14
TORSDOF 6
