REMARK  Name = ZINC10039683
REMARK  9 active torsions:
REMARK  status: ('A' for Active; 'I' for Inactive)
REMARK    1  A    between atoms: C_1  and  C_2
REMARK    2  A    between atoms: C_5  and  S_8
REMARK    3  A    between atoms: S_8  and  C_9
REMARK    4  A    between atoms: C_9  and  C_10
REMARK    5  A    between atoms: C_10  and  C_12
REMARK    6  A    between atoms: C_10  and  N_19
REMARK    7  A    between atoms: N_14  and  C_15
REMARK    8  A    between atoms: C_15  and  C_16
REMARK    9  A    between atoms: C_20  and  C_22
REMARK                            x       y       z     vdW  Elec       q    Type
REMARK                         _______ _______ _______ _____ _____    ______ ____
ROOT
ATOM      1  C   UNL     1      -1.330   1.944   0.019  0.00  0.00    +0.169 C 
ENDROOT
BRANCH   1   2
ATOM      2  N   UNL     1      -2.387   1.047   0.491  0.00  0.00    -0.303 N 
ATOM      3  C   UNL     1      -2.656  -0.090  -0.179  0.00  0.00    +0.211 C 
ATOM      4  O   UNL     1      -2.022  -0.371  -1.175  0.00  0.00    -0.276 OA
ATOM      5  C   UNL     1      -3.744  -1.013   0.307  0.00  0.00    +0.109 C 
ATOM      6  H   UNL     1      -2.894   1.272   1.287  0.00  0.00    +0.149 HD
ENDBRANCH   1   2
BRANCH   1   7
ATOM      7  C   UNL     1      -0.014   1.209   0.009  0.00  0.00    +0.235 C 
ATOM      8  O   UNL     1       0.002  -0.004   0.002  0.00  0.00    -0.274 OA
ATOM      9  N   UNL     1       1.143   1.898   0.001  0.00  0.00    -0.305 N 
ATOM     10  H   UNL     1       1.130   2.868   0.007  0.00  0.00    +0.149 HD
BRANCH   9  11
ATOM     11  C   UNL     1       2.422   1.183  -0.015  0.00  0.00    +0.199 C 
BRANCH  11  12
ATOM     12  C   UNL     1       3.554   2.178  -0.020  0.00  0.00    +0.228 C 
ATOM     13  O   UNL     1       3.316   3.367  -0.011  0.00  0.00    -0.274 OA
ATOM     14  N   UNL     1       4.831   1.746  -0.035  0.00  0.00    -0.328 N 
ATOM     15  H   UNL     1       5.021   0.795  -0.042  0.00  0.00    +0.145 HD
ATOM     16  H   UNL     1       5.559   2.386  -0.038  0.00  0.00    +0.145 HD
ENDBRANCH  11  12
ENDBRANCH   9  11
ENDBRANCH   1   7
BRANCH   1  17
ATOM     17  C   UNL     1      -1.659   2.420  -1.398  0.00  0.00    +0.106 C 
BRANCH  17  18
ATOM     18  S   UNL     1      -3.165   3.430  -1.361  0.00  0.00    -0.123 S 
BRANCH  18  23
ATOM     19  C   UNL     1      -3.996   5.021  -7.125  0.00  0.00    +0.044 C 
ATOM     20  C   UNL     1      -3.788   4.623  -5.686  0.00  0.00    -0.050 A 
ATOM     21  C   UNL     1      -4.678   5.051  -4.717  0.00  0.00    +0.004 A 
ATOM     22  C   UNL     1      -4.491   4.690  -3.397  0.00  0.00    +0.015 A 
ATOM     23  C   UNL     1      -3.408   3.894  -3.044  0.00  0.00    +0.008 A 
ATOM     24  C   UNL     1      -2.513   3.471  -4.019  0.00  0.00    +0.015 A 
ATOM     25  C   UNL     1      -2.709   3.832  -5.337  0.00  0.00    +0.004 A 
ENDBRANCH  18  23
ENDBRANCH  17  18
ENDBRANCH   1  17
TORSDOF 7
