REMARK  Name = ZINC42959901
REMARK  8 active torsions:
REMARK  status: ('A' for Active; 'I' for Inactive)
REMARK    1  A    between atoms: C_1  and  C_2
REMARK    2  A    between atoms: C_2  and  C_3
REMARK    3  A    between atoms: C_3  and  C_5
REMARK    4  A    between atoms: C_3  and  N_22
REMARK    5  A    between atoms: C_5  and  C_7
REMARK    6  A    between atoms: C_5  and  S_14
REMARK    7  A    between atoms: S_14  and  C_15
REMARK    8  A    between atoms: C_18  and  C_21
REMARK                            x       y       z     vdW  Elec       q    Type
REMARK                         _______ _______ _______ _____ _____    ______ ____
ROOT
ATOM      1  C   UNL     1       0.966  -2.004  -1.151  0.00  0.00    +0.070 C 
ENDROOT
BRANCH   1   2
ATOM      2  C   UNL     1       1.861  -2.283  -2.332  0.00  0.00    -0.036 A 
ATOM      3  C   UNL     1       3.056  -1.602  -2.469  0.00  0.00    +0.006 A 
ATOM      4  C   UNL     1       3.877  -1.857  -3.552  0.00  0.00    +0.015 A 
ATOM      5  C   UNL     1       3.502  -2.795  -4.497  0.00  0.00    +0.018 A 
ATOM      6  C   UNL     1       2.306  -3.477  -4.359  0.00  0.00    +0.015 A 
ATOM      7  C   UNL     1       1.488  -3.224  -3.274  0.00  0.00    +0.006 A 
ATOM      8 BR   UNL     1       4.624  -3.145  -5.978  0.00  0.00    -0.050 Br
ENDBRANCH   1   2
BRANCH   1   9
ATOM      9  C   UNL     1       0.547  -0.532  -1.165  0.00  0.00    -0.057 C 
BRANCH   9  10
ATOM     10  N   UNL     1      -0.109  -0.222  -2.442  0.00  0.00    +0.381 N 
ATOM     11  H   UNL     1      -0.385   0.749  -2.451  0.00  0.00    -0.090 HD
ATOM     12  H   UNL     1       0.532  -0.396  -3.201  0.00  0.00    -0.090 HD
ATOM     13  H   UNL     1      -0.926  -0.805  -2.551  0.00  0.00    -0.090 HD
ENDBRANCH   9  10
BRANCH   9  15
ATOM     14  C   UNL     1      -0.739   1.228   0.055  0.00  0.00    +0.002 C 
ATOM     15  C   UNL     1      -0.425  -0.268  -0.014  0.00  0.00    -0.018 C 
ENDBRANCH   9  15
ENDBRANCH   1   9
BRANCH   1  16
ATOM     16  S   UNL     1       1.862  -2.363   0.384  0.00  0.00    -0.080 S 
BRANCH  16  17
ATOM     17  C   UNL     1       2.060  -4.114   0.362  0.00  0.00    +0.185 A 
ATOM     18  N   UNL     1       1.554  -4.940  -0.528  0.00  0.00    -0.206 NA
ATOM     19  H   UNL     1       3.252  -4.513   2.023  0.00  0.00    +0.191 HD
ATOM     20  C   UNL     1       1.908  -6.191  -0.233  0.00  0.00    +0.149 A 
ATOM     21  N   UNL     1       2.643  -6.185   0.847  0.00  0.00    -0.157 NA
ATOM     22  N   UNL     1       2.764  -4.846   1.254  0.00  0.00    -0.254 N 
ATOM     23  C   UNL     1       1.522  -7.418  -1.019  0.00  0.00    +0.090 C 
ENDBRANCH  16  17
ENDBRANCH   1  16
TORSDOF 6
