REMARK  Name = ZINC43141130
REMARK  7 active torsions:
REMARK  status: ('A' for Active; 'I' for Inactive)
REMARK    1  A    between atoms: C_1  and  C_2
REMARK    2  A    between atoms: N_4  and  C_5
REMARK    3  A    between atoms: C_5  and  C_6
REMARK    4  A    between atoms: C_6  and  N_7
REMARK    5  A    between atoms: N_10  and  N_11
REMARK    6  A    between atoms: C_12  and  C_14
REMARK    7  A    between atoms: N_18  and  C_19
REMARK                            x       y       z     vdW  Elec       q    Type
REMARK                         _______ _______ _______ _____ _____    ______ ____
ROOT
ATOM      1  N   UNL     1      -2.510  -4.180  -0.989  0.00  0.00    -0.297 N 
ATOM      2  C   UNL     1      -3.664  -4.873  -1.060  0.00  0.00    +0.316 C 
ATOM      3  O   UNL     1      -4.710  -4.291  -1.272  0.00  0.00    -0.251 OA
ATOM      4  N   UNL     1      -3.658  -6.210  -0.895  0.00  0.00    -0.218 N 
ATOM      5  H   UNL     1      -1.675  -4.644  -0.820  0.00  0.00    +0.150 HD
ATOM      6  H   UNL     1      -4.489  -6.709  -0.946  0.00  0.00    +0.174 HD
ENDROOT
BRANCH   4   7
ATOM      7  N   UNL     1      -2.453  -6.881  -0.650  0.00  0.00    -0.228 N 
ATOM      8  C   UNL     1      -2.447  -8.219  -0.486  0.00  0.00    +0.277 C 
ATOM      9  O   UNL     1      -3.498  -8.831  -0.447  0.00  0.00    -0.267 OA
ATOM     10  H   UNL     1      -1.622  -6.383  -0.600  0.00  0.00    +0.173 HD
BRANCH   8  11
ATOM     11  C   UNL     1      -1.175  -8.936  -0.353  0.00  0.00    +0.107 A 
ATOM     12  C   UNL     1       0.080  -8.366  -0.296  0.00  0.00    +0.047 A 
ATOM     13  C   UNL     1       1.000  -9.412  -0.169  0.00  0.00    +0.036 A 
ATOM     14  C   UNL     1       0.307 -10.576  -0.152  0.00  0.00    +0.101 A 
ATOM     15  N   UNL     1      -1.016 -10.300  -0.258  0.00  0.00    -0.345 N 
ATOM     16  C   UNL     1      -2.097 -11.289  -0.272  0.00  0.00    +0.149 C 
ATOM     17 BR   UNL     1       2.879  -9.232  -0.045  0.00  0.00    -0.049 Br
ENDBRANCH   8  11
ENDBRANCH   4   7
BRANCH   1  18
ATOM     18  C   UNL     1      -2.516  -2.726  -1.168  0.00  0.00    +0.124 C 
BRANCH  18  19
ATOM     19  C   UNL     1      -1.088  -2.191  -1.041  0.00  0.00    +0.123 C 
BRANCH  19  23
ATOM     20  C   UNL     1       0.053   1.452  -1.334  0.00  0.00    +0.109 C 
ATOM     21  C   UNL     1       0.060  -0.044  -1.149  0.00  0.00    +0.210 C 
ATOM     22  O   UNL     1       1.103  -0.625  -0.938  0.00  0.00    -0.276 OA
ATOM     23  N   UNL     1      -1.094  -0.737  -1.220  0.00  0.00    -0.314 N 
ATOM     24  H   UNL     1      -1.929  -0.272  -1.390  0.00  0.00    +0.149 HD
ENDBRANCH  19  23
ENDBRANCH  18  19
ENDBRANCH   1  18
TORSDOF 5
