REMARK  Name = ZINC44977416
REMARK  7 active torsions:
REMARK  status: ('A' for Active; 'I' for Inactive)
REMARK    1  A    between atoms: C_3  and  S_12
REMARK    2  A    between atoms: C_4  and  C_8
REMARK    3  A    between atoms: C_9  and  C_10
REMARK    4  A    between atoms: C_10  and  N_11
REMARK    5  A    between atoms: S_12  and  N_15
REMARK    6  A    between atoms: N_15  and  C_16
REMARK    7  A    between atoms: C_16  and  C_17
REMARK                            x       y       z     vdW  Elec       q    Type
REMARK                         _______ _______ _______ _____ _____    ______ ____
ROOT
ATOM      1  C   UNL     1      -0.037   2.260  -0.089  0.00  0.00    +0.040 A 
ATOM      2  C   UNL     1       1.261   2.736  -0.085  0.00  0.00    +0.032 A 
ATOM      3  C   UNL     1       2.322   1.857  -0.021  0.00  0.00    +0.121 A 
ATOM      4  C   UNL     1       2.084   0.483   0.041  0.00  0.00    +0.054 A 
ATOM      5  C   UNL     1       0.773   0.007   0.038  0.00  0.00    +0.057 A 
ATOM      6  C   UNL     1      -0.282   0.898  -0.027  0.00  0.00    +0.125 A 
ATOM      7  F   UNL     1      -1.553   0.440  -0.031  0.00  0.00    -0.205 F 
ENDROOT
BRANCH   3   8
ATOM      8  S   UNL     1       3.975   2.467  -0.017  0.00  0.00    +0.060 S 
ATOM      9  O   UNL     1       3.886   3.880  -0.130  0.00  0.00    -0.153 OA
ATOM     10  O   UNL     1       4.641   1.829   1.064  0.00  0.00    -0.153 OA
BRANCH   8  11
ATOM     11  N   UNL     1       4.699   1.925  -1.405  0.00  0.00    -0.182 NA
ATOM     12  H   UNL     1       5.457   1.321  -1.352  0.00  0.00    +0.148 HD
BRANCH  11  13
ATOM     13  C   UNL     1       4.197   2.359  -2.711  0.00  0.00    +0.185 C 
BRANCH  13  14
ATOM     14  C   UNL     1       5.230   2.068  -3.768  0.00  0.00    +0.192 A 
ATOM     15  N   UNL     1       6.204   2.875  -4.164  0.00  0.00    -0.110 NA
ATOM     16  N   UNL     1       6.870   2.262  -5.082  0.00  0.00    -0.021 NA
ATOM     17  N   UNL     1       6.347   1.100  -5.274  0.00  0.00    -0.021 NA
ATOM     18  N   UNL     1       5.344   0.955  -4.477  0.00  0.00    -0.110 NA
ENDBRANCH  13  14
ENDBRANCH  11  13
ENDBRANCH   8  11
ENDBRANCH   3   8
BRANCH   4  19
ATOM     19  C   UNL     1       3.182  -0.434   0.108  0.00  0.00    -0.066 C 
ATOM     20  C   UNL     1       4.081  -1.187   0.162  0.00  0.00    -0.117 C 
BRANCH  20  21
ATOM     21  C   UNL     1       5.210  -2.130   0.230  0.00  0.00    +0.005 C 
BRANCH  21  22
ATOM     22  N   UNL     1       4.696  -3.505   0.287  0.00  0.00    +0.385 N 
ATOM     23  H   UNL     1       5.469  -4.151   0.334  0.00  0.00    -0.089 HD
ATOM     24  H   UNL     1       4.116  -3.614   1.105  0.00  0.00    -0.089 HD
ATOM     25  H   UNL     1       4.149  -3.694  -0.540  0.00  0.00    -0.089 HD
ENDBRANCH  21  22
ENDBRANCH  20  21
ENDBRANCH   4  19
TORSDOF 7
