REMARK  Name = ZINC03600544
REMARK  7 active torsions:
REMARK  status: ('A' for Active; 'I' for Inactive)
REMARK    1  A    between atoms: C_1  and  C_2
REMARK    2  A    between atoms: C_2  and  C_4
REMARK    3  A    between atoms: C_9  and  N_10
REMARK    4  A    between atoms: C_11  and  C_13
REMARK    5  A    between atoms: C_13  and  N_14
REMARK    6  A    between atoms: C_17  and  C_21
REMARK    7  A    between atoms: C_17  and  C_22
REMARK                            x       y       z     vdW  Elec       q    Type
REMARK                         _______ _______ _______ _____ _____    ______ ____
ROOT
ATOM      1  N   UNL     1       1.344  -0.352   0.000  0.00  0.00    -0.215 N 
ATOM      2  C   UNL     1       0.042  -0.005   0.032  0.00  0.00    +0.251 C 
ATOM      3  O   UNL     1      -0.914  -0.751   0.051  0.00  0.00    -0.272 OA
ATOM      4  C   UNL     1       0.022   1.510   0.038  0.00  0.00    +0.135 C 
ATOM      5  N   UNL     1       1.449   1.876   0.007  0.00  0.00    -0.281 N 
ATOM      6  C   UNL     1       2.141   0.722  -0.014  0.00  0.00    +0.310 C 
ATOM      7  O   UNL     1       3.355   0.663  -0.042  0.00  0.00    -0.252 OA
ATOM      8  C   UNL     1      -0.640   2.034   1.314  0.00  0.00    +0.047 C 
ATOM      9  H   UNL     1       1.817   2.773   0.002  0.00  0.00    +0.152 HD
ENDROOT
BRANCH   4  10
ATOM     10  C   UNL     1      -0.687   2.036  -1.183  0.00  0.00    -0.015 A 
ATOM     11  C   UNL     1      -1.696   1.295  -1.769  0.00  0.00    +0.007 A 
ATOM     12  C   UNL     1      -2.350   1.780  -2.886  0.00  0.00    +0.020 A 
ATOM     13  C   UNL     1      -1.988   3.002  -3.424  0.00  0.00    +0.041 A 
ATOM     14  C   UNL     1      -0.974   3.741  -2.840  0.00  0.00    +0.020 A 
ATOM     15  C   UNL     1      -0.324   3.257  -1.720  0.00  0.00    +0.007 A 
ATOM     16 CL   UNL     1      -2.805   3.609  -4.830  0.00  0.00    -0.084 Cl
ENDBRANCH   4  10
BRANCH   1  17
ATOM     17  C   UNL     1       1.827  -1.735  -0.018  0.00  0.00    +0.214 C 
BRANCH  17  19
ATOM     18  N   UNL     1       2.392  -3.452  -1.706  0.00  0.00    -0.284 N 
ATOM     19  C   UNL     1       1.960  -2.203  -1.444  0.00  0.00    +0.235 C 
ATOM     20  O   UNL     1       1.680  -1.454  -2.356  0.00  0.00    -0.274 OA
ATOM     21  H   UNL     1       2.679  -4.029  -0.981  0.00  0.00    +0.155 HD
BRANCH  18  27
ATOM     22  C   UNL     1       2.147  -5.265  -3.298  0.00  0.00    +0.038 A 
ATOM     23  C   UNL     1       2.178  -5.715  -4.623  0.00  0.00    +0.013 A 
ATOM     24  C   UNL     1       2.493  -4.840  -5.638  0.00  0.00    +0.001 A 
ATOM     25  C   UNL     1       2.773  -3.512  -5.357  0.00  0.00    +0.002 A 
ATOM     26  C   UNL     1       2.740  -3.050  -4.056  0.00  0.00    +0.024 A 
ATOM     27  C   UNL     1       2.425  -3.916  -3.018  0.00  0.00    +0.044 A 
BRANCH  22  29
ATOM     28  C   UNL     1       1.640  -7.661  -2.499  0.00  0.00    +0.091 C 
ATOM     29  C   UNL     1       1.818  -6.193  -2.209  0.00  0.00    +0.162 C 
ATOM     30  O   UNL     1       1.690  -5.778  -1.077  0.00  0.00    -0.292 OA
ENDBRANCH  22  29
ENDBRANCH  18  27
ENDBRANCH  17  19
ENDBRANCH   1  17
TORSDOF 5
