REMARK  Name = ZINC40378719
REMARK  5 active torsions:
REMARK  status: ('A' for Active; 'I' for Inactive)
REMARK    1  A    between atoms: C_1  and  C_2
REMARK    2  A    between atoms: C_4  and  C_7
REMARK    3  A    between atoms: N_9  and  C_10
REMARK    4  A    between atoms: C_13  and  S_17
REMARK    5  A    between atoms: S_17  and  N_20
REMARK                            x       y       z     vdW  Elec       q    Type
REMARK                         _______ _______ _______ _____ _____    ______ ____
ROOT
ATOM      1  C   UNL     1      -1.765  -5.693   0.072  0.00  0.00    +0.048 A 
ATOM      2  C   UNL     1      -3.143  -5.519   0.067  0.00  0.00    +0.026 A 
ATOM      3  C   UNL     1      -3.976  -6.617   0.156  0.00  0.00    +0.030 A 
ATOM      4  C   UNL     1      -3.441  -7.888   0.252  0.00  0.00    +0.106 A 
ATOM      5  C   UNL     1      -2.069  -8.066   0.258  0.00  0.00    +0.045 A 
ATOM      6  C   UNL     1      -1.230  -6.972   0.163  0.00  0.00    +0.041 A 
ATOM      7 BR   UNL     1       0.646  -7.216   0.163  0.00  0.00    -0.048 Br
ENDROOT
BRANCH   1  10
ATOM      8  C   UNL     1      -1.356  -3.447  -0.596  0.00  0.00    +0.270 C 
ATOM      9  O   UNL     1      -2.448  -3.417  -1.126  0.00  0.00    -0.268 OA
ATOM     10  N   UNL     1      -0.918  -4.583  -0.018  0.00  0.00    -0.279 N 
ATOM     11  H   UNL     1      -0.016  -4.632   0.335  0.00  0.00    +0.155 HD
BRANCH   8  15
ATOM     12  C   UNL     1       0.270   1.302  -1.360  0.00  0.00    +0.089 C 
ATOM     13  C   UNL     1       0.196  -0.140  -0.928  0.00  0.00    +0.135 A 
ATOM     14  C   UNL     1      -0.833  -0.977  -1.147  0.00  0.00    +0.080 A 
ATOM     15  C   UNL     1      -0.504  -2.233  -0.583  0.00  0.00    +0.168 A 
ATOM     16  N   UNL     1       0.688  -2.131  -0.047  0.00  0.00    -0.073 NA
ATOM     17  O   UNL     1       1.149  -0.810  -0.262  0.00  0.00    -0.359 OA
ENDBRANCH   8  15
ENDBRANCH   1  10
BRANCH   4  18
ATOM     18  S   UNL     1      -4.508  -9.285   0.367  0.00  0.00    +0.056 S 
ATOM     19  O   UNL     1      -3.760 -10.318   0.995  0.00  0.00    -0.153 OA
ATOM     20  O   UNL     1      -5.742  -8.812   0.890  0.00  0.00    -0.153 OA
BRANCH  18  21
ATOM     21  N   UNL     1      -4.814  -9.796  -1.179  0.00  0.00    -0.204 NA
ATOM     22  H   UNL     1      -4.419  -9.329  -1.931  0.00  0.00    +0.144 HD
ATOM     23  H   UNL     1      -5.388 -10.563  -1.331  0.00  0.00    +0.144 HD
ENDBRANCH  18  21
ENDBRANCH   4  18
TORSDOF 4
