REMARK  Name = ZINC09314792
REMARK  4 active torsions:
REMARK  status: ('A' for Active; 'I' for Inactive)
REMARK    1  A    between atoms: N_13  and  C_17
REMARK    2  A    between atoms: C_17  and  C_18
REMARK    3  A    between atoms: C_18  and  C_20
REMARK    4  A    between atoms: C_22  and  C_26
REMARK                            x       y       z     vdW  Elec       q    Type
REMARK                         _______ _______ _______ _____ _____    ______ ____
ROOT
ATOM      1  C   UNL     1      -1.528   5.798  -1.078  0.00  0.00    +0.000 A 
ATOM      2  C   UNL     1      -1.606   5.105  -2.272  0.00  0.00    +0.000 A 
ATOM      3  C   UNL     1      -1.352   3.749  -2.296  0.00  0.00    +0.006 A 
ATOM      4  C   UNL     1      -1.018   3.073  -1.129  0.00  0.00    -0.012 A 
ATOM      5  C   UNL     1      -0.935   3.765   0.059  0.00  0.00    -0.042 A 
ATOM      6  C   UNL     1      -1.194   5.129   0.081  0.00  0.00    +0.004 A 
ATOM      7  C   UNL     1      -0.559   3.099   1.357  0.00  0.00    +0.035 C 
ATOM      8  C   UNL     1      -0.741   1.586   1.262  0.00  0.00    +0.008 C 
ATOM      9  C   UNL     1      -0.013   1.086   0.008  0.00  0.00    +0.040 C 
ATOM     10  C   UNL     1      -0.760   1.595  -1.218  0.00  0.00    +0.138 C 
ATOM     11  C   UNL     1       0.015   1.275  -2.477  0.00  0.00    +0.251 C 
ATOM     12  O   UNL     1       1.124   1.664  -2.775  0.00  0.00    -0.272 OA
ATOM     13  N   UNL     1      -0.787   0.466  -3.199  0.00  0.00    -0.216 N 
ATOM     14  C   UNL     1      -1.947   0.236  -2.573  0.00  0.00    +0.310 C 
ATOM     15  O   UNL     1      -2.832  -0.463  -3.026  0.00  0.00    -0.252 OA
ATOM     16  N   UNL     1      -2.025   0.867  -1.386  0.00  0.00    -0.281 N 
ATOM     17  H   UNL     1      -2.768   0.844  -0.764  0.00  0.00    +0.152 HD
ENDROOT
BRANCH  13  18
ATOM     18  C   UNL     1      -0.431  -0.093  -4.505  0.00  0.00    +0.197 C 
BRANCH  18  19
ATOM     19  C   UNL     1      -0.879   0.849  -5.593  0.00  0.00    +0.182 C 
ATOM     20  O   UNL     1      -1.440   1.886  -5.305  0.00  0.00    -0.290 OA
BRANCH  19  21
ATOM     21  C   UNL     1      -0.637   0.513  -7.000  0.00  0.00    +0.037 A 
ATOM     22  C   UNL     1      -0.996   1.292  -8.126  0.00  0.00    +0.043 A 
ATOM     23  C   UNL     1      -0.585   0.609  -9.230  0.00  0.00    +0.103 A 
ATOM     24  N   UNL     1       0.015  -0.562  -8.819  0.00  0.00    -0.356 N 
ATOM     25  H   UNL     1       0.397  -1.233  -9.406  0.00  0.00    +0.165 HD
ATOM     26  C   UNL     1      -0.007  -0.624  -7.479  0.00  0.00    +0.094 A 
BRANCH  23  27
ATOM     27  C   UNL     1      -0.751   1.046 -10.622  0.00  0.00    +0.263 C 
ATOM     28  O   UNL     1      -1.299   2.105 -10.866  0.00  0.00    -0.268 OA
ATOM     29  N   UNL     1      -0.297   0.275 -11.629  0.00  0.00    -0.296 N 
ATOM     30  C   UNL     1       0.386  -1.018 -11.477  0.00  0.00    +0.108 C 
ATOM     31  C   UNL     1       0.741  -1.518 -12.893  0.00  0.00    +0.020 C 
ATOM     32  C   UNL     1       0.750  -0.211 -13.729  0.00  0.00    +0.020 C 
ATOM     33  C   UNL     1      -0.398   0.590 -13.066  0.00  0.00    +0.108 C 
ENDBRANCH  23  27
ENDBRANCH  19  21
ENDBRANCH  18  19
ENDBRANCH  13  18
TORSDOF 4
