REMARK  Name = ZINC04853690
REMARK  4 active torsions:
REMARK  status: ('A' for Active; 'I' for Inactive)
REMARK    1  A    between atoms: C_1  and  C_2
REMARK    2  A    between atoms: C_8  and  C_10
REMARK    3  A    between atoms: C_10  and  S_11
REMARK    4  A    between atoms: S_11  and  C_12
REMARK                            x       y       z     vdW  Elec       q    Type
REMARK                         _______ _______ _______ _____ _____    ______ ____
ROOT
ATOM      1  C   UNL     1      -6.268  -5.421   0.001  0.00  0.00    +0.180 C 
ATOM      2  N   UNL     1      -5.564  -6.508  -0.003  0.00  0.00    -0.106 NA
ATOM      3  S   UNL     1      -6.296  -7.996  -0.018  0.00  0.00    +0.103 S 
ATOM      4  O   UNL     1      -5.719  -8.726  -1.092  0.00  0.00    -0.146 OA
ATOM      5  O   UNL     1      -6.288  -8.470   1.321  0.00  0.00    -0.146 OA
ATOM      6  C   UNL     1      -7.981  -7.702  -0.450  0.00  0.00    +0.136 A 
ATOM      7  C   UNL     1      -8.802  -8.739  -0.834  0.00  0.00    +0.069 A 
ATOM      8  C   UNL     1     -10.122  -8.484  -1.170  0.00  0.00    +0.125 A 
ATOM      9  C   UNL     1     -10.611  -7.189  -1.120  0.00  0.00    +0.040 A 
ATOM     10  C   UNL     1      -9.788  -6.149  -0.735  0.00  0.00    +0.028 A 
ATOM     11  C   UNL     1      -8.465  -6.400  -0.394  0.00  0.00    +0.060 A 
ATOM     12  N   UNL     1      -7.628  -5.359   0.008  0.00  0.00    -0.291 N 
ATOM     13  F   UNL     1     -10.931  -9.498  -1.548  0.00  0.00    -0.205 F 
ATOM     14  H   UNL     1      -8.041  -4.535   0.309  0.00  0.00    +0.154 HD
ENDROOT
BRANCH   1  15
ATOM     15  S   UNL     1      -5.390  -3.893   0.006  0.00  0.00    -0.079 S 
BRANCH  15  16
ATOM     16  C   UNL     1      -3.646  -4.389  -0.006  0.00  0.00    +0.173 C 
BRANCH  16  24
ATOM     17  C   UNL     1      -0.018   1.503   0.010  0.00  0.00    +0.089 C 
ATOM     18  C   UNL     1       0.002  -0.004   0.002  0.00  0.00    +0.136 A 
ATOM     19  C   UNL     1      -1.076  -0.808   0.003  0.00  0.00    +0.091 A 
ATOM     20  C   UNL     1      -0.625  -2.147  -0.007  0.00  0.00    +0.168 A 
ATOM     21  N   UNL     1       0.683  -2.130  -0.013  0.00  0.00    -0.063 NA
ATOM     22  O   UNL     1       1.100  -0.776  -0.013  0.00  0.00    -0.358 OA
ATOM     23  N   UNL     1      -1.432  -3.285  -0.010  0.00  0.00    -0.267 N 
ATOM     24  C   UNL     1      -2.774  -3.159  -0.003  0.00  0.00    +0.229 C 
ATOM     25  O   UNL     1      -3.280  -2.057   0.006  0.00  0.00    -0.275 OA
ATOM     26  H   UNL     1      -1.027  -4.166  -0.017  0.00  0.00    +0.156 HD
ENDBRANCH  16  24
ENDBRANCH  15  16
ENDBRANCH   1  15
TORSDOF 3
