REMARK  Name = ZINC02508373
REMARK  5 active torsions:
REMARK  status: ('A' for Active; 'I' for Inactive)
REMARK    1  A    between atoms: C_1  and  C_2
REMARK    2  A    between atoms: C_4  and  C_25
REMARK    3  A    between atoms: C_7  and  C_8
REMARK    4  A    between atoms: N_14  and  C_15
REMARK    5  A    between atoms: C_19  and  C_21
REMARK                            x       y       z     vdW  Elec       q    Type
REMARK                         _______ _______ _______ _____ _____    ______ ____
ROOT
ATOM      1  C   UNL     1       3.453  11.579   0.666  0.00  0.00    +0.045 C 
ATOM      2  C   UNL     1       3.432  10.077   0.542  0.00  0.00    -0.033 A 
ATOM      3  C   UNL     1       4.609   9.350   0.522  0.00  0.00    +0.027 A 
ATOM      4  C   UNL     1       4.557   7.972   0.408  0.00  0.00    +0.041 A 
ATOM      5  N   UNL     1       3.404   7.337   0.323  0.00  0.00    -0.236 NA
ATOM      6  C   UNL     1       2.250   7.983   0.331  0.00  0.00    +0.139 A 
ATOM      7  C   UNL     1       2.220   9.383   0.445  0.00  0.00    +0.079 A 
ATOM      8  N   UNL     1       1.061   7.274   0.234  0.00  0.00    -0.253 N 
ATOM      9  C   UNL     1       1.085   5.931   0.125  0.00  0.00    +0.309 C 
ATOM     10  O   UNL     1       2.148   5.341   0.112  0.00  0.00    -0.252 OA
ATOM     11  N   UNL     1      -0.069   5.242   0.030  0.00  0.00    -0.269 N 
ATOM     12  C   UNL     1       5.840   7.183   0.386  0.00  0.00    +0.065 C 
ATOM     13  H   UNL     1       0.213   7.745   0.244  0.00  0.00    +0.158 HD
ATOM     14  H   UNL     1      -0.913   5.716  -0.038  0.00  0.00    +0.156 HD
ENDROOT
BRANCH  11  15
ATOM     15  C   UNL     1      -0.051   3.842   0.029  0.00  0.00    +0.035 A 
ATOM     16  C   UNL     1       0.907   3.159   0.767  0.00  0.00    +0.023 A 
ATOM     17  C   UNL     1       0.922   1.778   0.764  0.00  0.00    +0.002 A 
ATOM     18  C   UNL     1      -0.015   1.076   0.028  0.00  0.00    +0.012 A 
ATOM     19  C   UNL     1      -0.966   1.754  -0.712  0.00  0.00    +0.057 A 
ATOM     20  C   UNL     1      -0.990   3.135  -0.710  0.00  0.00    +0.035 A 
BRANCH  19  21
ATOM     21  C   UNL     1      -1.981   0.985  -1.518  0.00  0.00    +0.417 C 
ATOM     22  F   UNL     1      -1.760  -0.387  -1.360  0.00  0.00    -0.166 F 
ATOM     23  F   UNL     1      -3.268   1.304  -1.074  0.00  0.00    -0.166 F 
ATOM     24  F   UNL     1      -1.857   1.324  -2.870  0.00  0.00    -0.166 F 
ENDBRANCH  19  21
ENDBRANCH  11  15
BRANCH   7  25
ATOM     25  C   UNL     1       0.936  10.108   0.461  0.00  0.00    +0.245 C 
ATOM     26  O   UNL     1       0.371  10.321   1.516  0.00  0.00    -0.270 OA
ATOM     27  N   UNL     1       0.389  10.534  -0.695  0.00  0.00    -0.325 N 
ATOM     28  H   UNL     1       0.839  10.364  -1.537  0.00  0.00    +0.145 HD
ATOM     29  H   UNL     1      -0.456  11.011  -0.684  0.00  0.00    +0.145 HD
ENDBRANCH   7  25
TORSDOF 3
