REMARK  Name = ZINC41637360
REMARK  10 active torsions:
REMARK  status: ('A' for Active; 'I' for Inactive)
REMARK    1  A    between atoms: C_1  and  C_2
REMARK    2  A    between atoms: N_4  and  C_5
REMARK    3  A    between atoms: N_4  and  C_6
REMARK    4  A    between atoms: C_6  and  C_7
REMARK    5  A    between atoms: C_12  and  N_13
REMARK    6  A    between atoms: C_14  and  C_16
REMARK    7  A    between atoms: N_18  and  C_19
REMARK    8  A    between atoms: C_19  and  C_20
REMARK    9  A    between atoms: N_26  and  C_27
REMARK   10  A    between atoms: N_26  and  C_28
REMARK                            x       y       z     vdW  Elec       q    Type
REMARK                         _______ _______ _______ _____ _____    ______ ____
ROOT
ATOM      1  N   UNL     1      -3.547  -2.379   1.232  0.00  0.00    -0.277 N 
ATOM      2  C   UNL     1      -4.780  -2.572   1.740  0.00  0.00    +0.303 C 
ATOM      3  O   UNL     1      -4.912  -3.006   2.866  0.00  0.00    -0.265 OA
ATOM      4  H   UNL     1      -3.441  -1.956   0.365  0.00  0.00    +0.155 HD
ENDROOT
BRANCH   1  10
ATOM      5  C   UNL     1      -1.194  -2.178   1.730  0.00  0.00    -0.009 A 
ATOM      6  C   UNL     1      -0.085  -2.579   2.449  0.00  0.00    +0.007 A 
ATOM      7  C   UNL     1      -0.196  -3.591   3.385  0.00  0.00    +0.000 A 
ATOM      8  C   UNL     1      -1.416  -4.204   3.605  0.00  0.00    +0.002 A 
ATOM      9  C   UNL     1      -2.528  -3.808   2.890  0.00  0.00    +0.023 A 
ATOM     10  C   UNL     1      -2.422  -2.787   1.953  0.00  0.00    +0.039 A 
BRANCH   5  11
ATOM     11  C   UNL     1      -1.073  -1.075   0.710  0.00  0.00    +0.144 C 
BRANCH  11  15
ATOM     12  C   UNL     1      -0.906   2.321   2.470  0.00  0.00    +0.109 C 
ATOM     13  C   UNL     1      -0.512   1.009   1.841  0.00  0.00    +0.213 C 
ATOM     14  O   UNL     1       0.655   0.681   1.804  0.00  0.00    -0.276 OA
ATOM     15  N   UNL     1      -1.456   0.200   1.321  0.00  0.00    -0.300 N 
ATOM     16  C   UNL     1      -2.866   0.596   1.367  0.00  0.00    +0.132 C 
ENDBRANCH  11  15
ENDBRANCH   5  11
ENDBRANCH   1  10
BRANCH   2  17
ATOM     17  C   UNL     1      -5.986  -2.254   0.917  0.00  0.00    +0.300 C 
ATOM     18  O   UNL     1      -5.855  -1.821  -0.209  0.00  0.00    -0.265 OA
ATOM     19  N   UNL     1      -7.219  -2.448   1.426  0.00  0.00    -0.303 N 
ATOM     20  H   UNL     1      -7.324  -2.794   2.326  0.00  0.00    +0.149 HD
BRANCH  19  21
ATOM     21  C   UNL     1      -8.401  -2.135   0.619  0.00  0.00    +0.141 C 
BRANCH  21  22
ATOM     22  C   UNL     1      -9.646  -2.439   1.413  0.00  0.00    -0.014 A 
ATOM     23  C   UNL     1     -10.223  -3.701   1.356  0.00  0.00    +0.010 A 
ATOM     24  C   UNL     1     -11.365  -3.938   2.100  0.00  0.00    +0.042 A 
ATOM     25  C   UNL     1     -11.893  -2.910   2.875  0.00  0.00    +0.098 A 
ATOM     26  N   UNL     1     -11.313  -1.720   2.903  0.00  0.00    -0.349 N 
ATOM     27  C   UNL     1     -10.220  -1.468   2.208  0.00  0.00    +0.089 A 
ATOM     28  N   UNL     1     -13.040  -3.134   3.627  0.00  0.00    -0.323 N 
ATOM     29  C   UNL     1     -13.688  -4.448   3.602  0.00  0.00    +0.130 C 
ATOM     30  C   UNL     1     -13.601  -2.057   4.446  0.00  0.00    +0.130 C 
ATOM     31  H   UNL     1     -11.698  -1.018   3.450  0.00  0.00    +0.167 HD
ENDBRANCH  21  22
ENDBRANCH  19  21
ENDBRANCH   2  17
TORSDOF 6
