REMARK  Name = ZINC01102905
REMARK  4 active torsions:
REMARK  status: ('A' for Active; 'I' for Inactive)
REMARK    1  A    between atoms: C_3  and  C_6
REMARK    2  A    between atoms: N_8  and  N_9
REMARK    3  A    between atoms: C_10  and  C_11
REMARK    4  A    between atoms: C_14  and  O_18
REMARK                            x       y       z     vdW  Elec       q    Type
REMARK                         _______ _______ _______ _____ _____    ______ ____
ROOT
ATOM      1  N   UNL     1      -1.234   1.650   0.017  0.00  0.00    -0.187 NA
ATOM      2  C   UNL     1      -2.349   0.986   0.018  0.00  0.00    +0.138 C 
ENDROOT
BRANCH   2   3
ATOM      3  C   UNL     1      -3.636   1.705   0.029  0.00  0.00    -0.003 A 
ATOM      4  C   UNL     1      -3.657   3.102   0.042  0.00  0.00    +0.028 A 
ATOM      5  C   UNL     1      -4.862   3.772   0.047  0.00  0.00    +0.061 A 
ATOM      6  C   UNL     1      -6.055   3.058   0.048  0.00  0.00    +0.145 A 
ATOM      7  C   UNL     1      -6.038   1.669   0.040  0.00  0.00    +0.061 A 
ATOM      8  C   UNL     1      -4.837   0.992   0.030  0.00  0.00    +0.028 A 
ATOM      9 BR   UNL     1      -7.666   0.706   0.043  0.00  0.00    -0.046 Br
ATOM     10 BR   UNL     1      -4.893   5.662   0.057  0.00  0.00    -0.046 Br
BRANCH   6  11
ATOM     11  O   UNL     1      -7.241   3.722   0.059  0.00  0.00    -0.505 OA
ATOM     12  H   UNL     1      -7.580   3.909   0.945  0.00  0.00    +0.292 HD
ENDBRANCH   6  11
ENDBRANCH   2   3
BRANCH   1  15
ATOM     13  C   UNL     1       1.147   1.655   0.000  0.00  0.00    +0.299 C 
ATOM     14  O   UNL     1       1.130   2.873   0.007  0.00  0.00    -0.265 OA
ATOM     15  N   UNL     1      -0.011   0.966   0.007  0.00  0.00    -0.200 N 
ATOM     16  H   UNL     1       0.002  -0.004   0.002  0.00  0.00    +0.178 HD
BRANCH  13  19
ATOM     17  C   UNL     1       4.596   0.461  -0.038  0.00  0.00    +0.042 A 
ATOM     18  C   UNL     1       3.666   1.513  -0.025  0.00  0.00    +0.054 A 
ATOM     19  C   UNL     1       2.426   0.940  -0.016  0.00  0.00    +0.191 A 
ATOM     20  O   UNL     1       2.585  -0.400  -0.019  0.00  0.00    -0.458 OA
ATOM     21  C   UNL     1       3.892  -0.692  -0.037  0.00  0.00    +0.196 A 
ENDBRANCH  13  19
ENDBRANCH   1  15
TORSDOF 4
