REMARK  Name = ZINC40732924
REMARK  4 active torsions:
REMARK  status: ('A' for Active; 'I' for Inactive)
REMARK    1  A    between atoms: C_1  and  C_2
REMARK    2  A    between atoms: C_9  and  N_21
REMARK    3  A    between atoms: C_10  and  S_14
REMARK    4  A    between atoms: S_14  and  C_15
REMARK                            x       y       z     vdW  Elec       q    Type
REMARK                         _______ _______ _______ _____ _____    ______ ____
ROOT
ATOM      1  C   UNL     1      -1.180  -0.149  -2.384  0.00  0.00    +0.007 C 
ATOM      2  C   UNL     1      -0.550  -0.824  -1.164  0.00  0.00    -0.011 C 
ATOM      3  C   UNL     1      -0.549  -2.341  -1.363  0.00  0.00    +0.022 C 
ATOM      4  C   UNL     1       0.113  -3.010  -0.155  0.00  0.00    +0.107 C 
ATOM      5  N   UNL     1      -0.569  -2.563   1.066  0.00  0.00    -0.314 N 
ATOM      6  C   UNL     1      -0.705  -1.121   1.311  0.00  0.00    +0.107 C 
ATOM      7  C   UNL     1      -1.359  -0.472   0.087  0.00  0.00    +0.022 C 
ATOM      8  C   UNL     1      -1.075  -3.486   1.973  0.00  0.00    +0.146 A 
ATOM      9  C   UNL     1      -0.258  -4.025   2.968  0.00  0.00    +0.098 A 
ATOM     10  C   UNL     1      -0.817  -4.949   3.853  0.00  0.00    +0.127 A 
ATOM     11  N   UNL     1      -2.101  -5.277   3.716  0.00  0.00    -0.227 NA
ATOM     12  C   UNL     1      -2.837  -4.745   2.763  0.00  0.00    +0.224 A 
ATOM     13  N   UNL     1      -2.349  -3.866   1.910  0.00  0.00    -0.219 NA
ENDROOT
BRANCH   9  14
ATOM     14  N   UNL     1       1.091  -3.650   3.075  0.00  0.00    -0.353 N 
ATOM     15  H   UNL     1       1.446  -2.950   2.505  0.00  0.00    +0.142 HD
ATOM     16  H   UNL     1       1.667  -4.089   3.720  0.00  0.00    +0.142 HD
ENDBRANCH   9  14
BRANCH  10  17
ATOM     17  S   UNL     1       0.159  -5.668   5.132  0.00  0.00    -0.068 S 
BRANCH  17  18
ATOM     18  C   UNL     1      -0.913  -6.856   5.869  0.00  0.00    +0.014 A 
ATOM     19  C   UNL     1      -1.011  -8.134   5.331  0.00  0.00    +0.015 A 
ATOM     20  C   UNL     1      -1.852  -9.063   5.911  0.00  0.00    +0.001 A 
ATOM     21  C   UNL     1      -2.597  -8.723   7.026  0.00  0.00    +0.000 A 
ATOM     22  C   UNL     1      -2.502  -7.452   7.564  0.00  0.00    +0.001 A 
ATOM     23  C   UNL     1      -1.658  -6.520   6.992  0.00  0.00    +0.015 A 
ENDBRANCH  17  18
ENDBRANCH  10  17
TORSDOF 3
