REMARK  Name = ZINC37692777
REMARK  3 active torsions:
REMARK  status: ('A' for Active; 'I' for Inactive)
REMARK    1  A    between atoms: C_3  and  N_9
REMARK    2  A    between atoms: N_9  and  C_10
REMARK    3  A    between atoms: C_17  and  O_19
REMARK                            x       y       z     vdW  Elec       q    Type
REMARK                         _______ _______ _______ _____ _____    ______ ____
ROOT
ATOM      1  N   UNL     1       3.583   2.125  -0.021  0.00  0.00    -0.336 N 
ATOM      2  H   UNL     1       4.429   1.651  -0.032  0.00  0.00    +0.147 HD
ENDROOT
BRANCH   1   5
ATOM      3  C   UNL     1      -0.017   1.379   0.010  0.00  0.00    +0.017 A 
ATOM      4  C   UNL     1       1.169   2.088   0.002  0.00  0.00    +0.025 A 
ATOM      5  C   UNL     1       2.381   1.411  -0.013  0.00  0.00    +0.046 A 
ATOM      6  C   UNL     1       2.397   0.021  -0.021  0.00  0.00    +0.063 A 
ATOM      7  C   UNL     1       1.208  -0.682  -0.013  0.00  0.00    +0.037 A 
ATOM      8  C   UNL     1       0.002  -0.004   0.002  0.00  0.00    +0.019 A 
ATOM      9 BR   UNL     1      -1.624  -0.970   0.013  0.00  0.00    -0.050 Br
ATOM     10 CL   UNL     1       3.910  -0.831  -0.040  0.00  0.00    -0.082 Cl
ENDBRANCH   1   5
BRANCH   1  11
ATOM     11  C   UNL     1       3.564   3.590  -0.014  0.00  0.00    +0.121 C 
ATOM     12  C   UNL     1       3.409   4.074   1.446  0.00  0.00    +0.190 C 
ATOM     13  S   UNL     1       5.157   4.475   1.880  0.00  0.00    -0.027 S 
ATOM     14  O   UNL     1       5.181   5.598   2.750  0.00  0.00    -0.174 OA
ATOM     15  O   UNL     1       5.836   3.282   2.250  0.00  0.00    -0.174 OA
ATOM     16  C   UNL     1       5.706   4.995   0.196  0.00  0.00    +0.199 C 
ATOM     17  C   UNL     1       4.826   4.096  -0.696  0.00  0.00    +0.157 C 
BRANCH  17  18
ATOM     18  O   UNL     1       4.451   4.839  -1.857  0.00  0.00    -0.388 OA
ATOM     19  H   UNL     1       5.199   5.198  -2.353  0.00  0.00    +0.210 HD
ENDBRANCH  17  18
ENDBRANCH   1  11
TORSDOF 3
