REMARK  Name = ZINC15083206
REMARK  8 active torsions:
REMARK  status: ('A' for Active; 'I' for Inactive)
REMARK    1  A    between atoms: C_1  and  C_2
REMARK    2  A    between atoms: C_2  and  O_3
REMARK    3  A    between atoms: O_3  and  C_4
REMARK    4  A    between atoms: C_4  and  C_6
REMARK    5  A    between atoms: C_8  and  C_21
REMARK    6  A    between atoms: C_15  and  O_16
REMARK    7  A    between atoms: C_18  and  C_19
REMARK    8  A    between atoms: C_18  and  O_20
REMARK                            x       y       z     vdW  Elec       q    Type
REMARK                         _______ _______ _______ _____ _____    ______ ____
ROOT
ATOM      1  C   UNL     1       0.038   0.089   0.090  0.00  0.00    +0.141 C 
ATOM      2  C   UNL     1       0.010   1.617  -0.039  0.00  0.00    +0.072 C 
ATOM      3  C   UNL     1       1.432   2.118  -0.058  0.00  0.00    +0.044 A 
ATOM      4  C   UNL     1       2.514   1.333  -0.296  0.00  0.00    +0.046 A 
ATOM      5  N   UNL     1       3.609   2.109  -0.233  0.00  0.00    -0.278 N 
ATOM      6  H   UNL     1       4.553   1.806  -0.365  0.00  0.00    +0.189 HD
ATOM      7  N   UNL     1       3.195   3.419   0.051  0.00  0.00    -0.136 NA
ATOM      8  C   UNL     1       1.885   3.422   0.156  0.00  0.00    +0.235 A 
ATOM      9  C   UNL     1       2.439  -0.147  -0.577  0.00  0.00    +0.090 C 
ATOM     10  C   UNL     1       0.994  -0.495  -0.955  0.00  0.00    +0.082 C 
ATOM     11  C   UNL     1       0.669   0.095  -2.329  0.00  0.00    +0.042 C 
ENDROOT
BRANCH   2  12
ATOM     12  C   UNL     1      -0.722   2.211   1.137  0.00  0.00    -0.039 A 
ATOM     13  C   UNL     1      -2.051   2.573   1.012  0.00  0.00    +0.004 A 
ATOM     14  C   UNL     1      -2.724   3.115   2.091  0.00  0.00    +0.000 A 
ATOM     15  C   UNL     1      -2.066   3.303   3.292  0.00  0.00    +0.000 A 
ATOM     16  C   UNL     1      -0.736   2.946   3.415  0.00  0.00    +0.000 A 
ATOM     17  C   UNL     1      -0.064   2.400   2.337  0.00  0.00    +0.004 A 
ENDBRANCH   2  12
BRANCH   1  18
ATOM     18  C   UNL     1       0.509  -0.291   1.470  0.00  0.00    +0.314 C 
ATOM     19  O   UNL     1       1.552   0.148   1.894  0.00  0.00    -0.250 OA
BRANCH  18  20
ATOM     20  O   UNL     1      -0.229  -1.117   2.227  0.00  0.00    -0.465 OA
BRANCH  20  22
ATOM     21  C   UNL     1      -0.797  -2.210   4.328  0.00  0.00    +0.048 C 
ATOM     22  C   UNL     1       0.227  -1.349   3.587  0.00  0.00    +0.229 C 
ENDBRANCH  20  22
ENDBRANCH  18  20
ENDBRANCH   1  18
BRANCH   8  23
ATOM     23  O   UNL     1       1.108   4.505   0.425  0.00  0.00    -0.491 OA
ATOM     24  H   UNL     1       1.687   5.313   0.533  0.00  0.00    +0.294 HD
ENDBRANCH   8  23
BRANCH  10  25
ATOM     25  O   UNL     1       0.842  -1.915  -0.998  0.00  0.00    -0.388 OA
ATOM     26  H   UNL     1       1.418  -2.353  -1.640  0.00  0.00    +0.210 HD
ENDBRANCH  10  25
TORSDOF 6
