REMARK  Name = ZINC50307869
REMARK  4 active torsions:
REMARK  status: ('A' for Active; 'I' for Inactive)
REMARK    1  A    between atoms: C_1  and  C_2
REMARK    2  A    between atoms: C_2  and  C_3
REMARK    3  A    between atoms: C_4  and  N_22
REMARK    4  A    between atoms: C_5  and  C_9
REMARK                            x       y       z     vdW  Elec       q    Type
REMARK                         _______ _______ _______ _____ _____    ______ ____
ROOT
ATOM      1  C   UNL     1      -1.399  -0.556   0.006  0.00  0.00    +0.057 A 
ATOM      2  C   UNL     1      -2.206  -0.729  -1.074  0.00  0.00    +0.078 A 
ATOM      3  C   UNL     1      -3.428  -1.231  -0.556  0.00  0.00    +0.168 A 
ATOM      4  N   UNL     1      -3.284  -1.326   0.752  0.00  0.00    -0.167 NA
ATOM      5  N   UNL     1      -2.108  -0.942   1.099  0.00  0.00    -0.279 N 
ATOM      6  H   UNL     1      -1.776  -0.928   2.010  0.00  0.00    +0.189 HD
ENDROOT
BRANCH   3   7
ATOM      7  C   UNL     1      -4.631  -1.581  -1.333  0.00  0.00    +0.269 C 
ATOM      8  O   UNL     1      -4.667  -1.365  -2.530  0.00  0.00    -0.268 OA
ATOM      9  N   UNL     1      -5.691  -2.141  -0.718  0.00  0.00    -0.288 N 
ATOM     10  C   UNL     1      -5.764  -2.312   0.751  0.00  0.00    +0.136 C 
ATOM     11  C   UNL     1      -7.099  -1.800   1.290  0.00  0.00    +0.179 C 
ATOM     12  O   UNL     1      -8.207  -2.249   0.489  0.00  0.00    -0.373 OA
ATOM     13  C   UNL     1      -8.064  -1.845  -0.852  0.00  0.00    +0.139 C 
ATOM     14  C   UNL     1      -6.860  -2.621  -1.447  0.00  0.00    +0.105 C 
ATOM     15  C   UNL     1      -6.957  -2.231  -2.924  0.00  0.00    +0.025 C 
ATOM     16  C   UNL     1      -8.485  -2.306  -3.202  0.00  0.00    +0.004 C 
ATOM     17  C   UNL     1      -9.174  -2.145  -1.845  0.00  0.00    +0.033 C 
ENDBRANCH   3   7
BRANCH   2  18
ATOM     18  N   UNL     1      -1.897  -0.465  -2.417  0.00  0.00    -0.355 N 
ATOM     19  H   UNL     1      -1.022  -0.120  -2.654  0.00  0.00    +0.142 HD
ATOM     20  H   UNL     1      -2.558  -0.628  -3.108  0.00  0.00    +0.142 HD
ENDBRANCH   2  18
BRANCH   1  22
ATOM     21  C   UNL     1       0.002   1.490   0.021  0.00  0.00    +0.010 C 
ATOM     22  C   UNL     1       0.017  -0.040  -0.006  0.00  0.00    +0.053 C 
ENDBRANCH   1  22
TORSDOF 3
