REMARK  Name = ZINC03410587
REMARK  2 active torsions:
REMARK  status: ('A' for Active; 'I' for Inactive)
REMARK    1  A    between atoms: C_1  and  C_2
REMARK    2  A    between atoms: C_2  and  C_9
REMARK                            x       y       z     vdW  Elec       q    Type
REMARK                         _______ _______ _______ _____ _____    ______ ____
ROOT
ATOM      1  C   UNL     1       1.990   1.653  -1.266  0.00  0.00    +0.047 C 
ATOM      2  C   UNL     1       1.158   1.862   0.001  0.00  0.00    +0.135 C 
ATOM      3  C   UNL     1       0.545   3.248   0.013  0.00  0.00    +0.248 C 
ATOM      4  O   UNL     1       1.132   4.309   0.013  0.00  0.00    -0.273 OA
ATOM      5  N   UNL     1      -0.789   3.056   0.025  0.00  0.00    -0.238 N 
ATOM      6  C   UNL     1      -1.101   1.755   0.016  0.00  0.00    +0.307 C 
ATOM      7  O   UNL     1      -2.240   1.333   0.019  0.00  0.00    -0.252 OA
ATOM      8  N   UNL     1      -0.011   0.966   0.007  0.00  0.00    -0.282 N 
ATOM      9  H   UNL     1      -1.443   3.773   0.034  0.00  0.00    +0.159 HD
ATOM     10  H   UNL     1       0.002  -0.004   0.002  0.00  0.00    +0.152 HD
ENDROOT
BRANCH   2  11
ATOM     11  C   UNL     1       2.002   1.641   1.230  0.00  0.00    -0.015 A 
ATOM     12  C   UNL     1       1.627   0.696   2.166  0.00  0.00    +0.006 A 
ATOM     13  C   UNL     1       2.401   0.495   3.292  0.00  0.00    +0.004 A 
ATOM     14  C   UNL     1       3.554   1.238   3.486  0.00  0.00    -0.044 A 
ATOM     15  C   UNL     1       3.930   2.183   2.550  0.00  0.00    -0.044 A 
ATOM     16  C   UNL     1       3.154   2.379   1.419  0.00  0.00    +0.010 A 
ATOM     17  C   UNL     1       5.214   2.854   2.986  0.00  0.00    +0.036 C 
ATOM     18  C   UNL     1       5.347   2.532   4.490  0.00  0.00    +0.009 C 
ATOM     19  C   UNL     1       4.561   1.210   4.616  0.00  0.00    +0.036 C 
ENDBRANCH   2  11
TORSDOF 1
