REMARK  Name = ZINC06705206
REMARK  5 active torsions:
REMARK  status: ('A' for Active; 'I' for Inactive)
REMARK    1  A    between atoms: C_1  and  C_2
REMARK    2  A    between atoms: C_5  and  N_9
REMARK    3  A    between atoms: C_6  and  C_8
REMARK    4  A    between atoms: C_10  and  C_16
REMARK    5  A    between atoms: C_21  and  N_22
REMARK                            x       y       z     vdW  Elec       q    Type
REMARK                         _______ _______ _______ _____ _____    ______ ____
ROOT
ATOM      1  N   UNL     1      -3.769   2.922   0.215  0.00  0.00    -0.254 N 
ATOM      2  C   UNL     1      -2.728   3.963   0.111  0.00  0.00    +0.172 C 
ATOM      3  S   UNL     1      -3.082   4.664  -1.558  0.00  0.00    -0.124 S 
ATOM      4  C   UNL     1      -4.815   4.040  -1.681  0.00  0.00    +0.167 C 
ATOM      5  C   UNL     1      -4.788   2.938  -0.634  0.00  0.00    +0.231 C 
ATOM      6  O   UNL     1      -5.665   2.102  -0.578  0.00  0.00    -0.274 OA
ENDROOT
BRANCH   1  11
ATOM      7  C   UNL     1      -3.417  -1.096   4.204  0.00  0.00    +0.044 C 
ATOM      8  C   UNL     1      -3.510  -0.029   3.145  0.00  0.00    -0.050 A 
ATOM      9  C   UNL     1      -3.579   1.303   3.511  0.00  0.00    +0.005 A 
ATOM     10  C   UNL     1      -3.664   2.284   2.543  0.00  0.00    +0.024 A 
ATOM     11  C   UNL     1      -3.682   1.931   1.199  0.00  0.00    +0.041 A 
ATOM     12  C   UNL     1      -3.619   0.593   0.835  0.00  0.00    -0.029 A 
ATOM     13  C   UNL     1      -3.527  -0.383   1.808  0.00  0.00    +0.008 A 
ATOM     14  C   UNL     1      -3.644   0.206  -0.621  0.00  0.00    +0.045 C 
ENDBRANCH   1  11
BRANCH   2  15
ATOM     15  C   UNL     1      -1.349   3.357   0.163  0.00  0.00    +0.004 A 
ATOM     16  C   UNL     1      -1.111   2.131  -0.428  0.00  0.00    +0.008 A 
ATOM     17  C   UNL     1       0.153   1.572  -0.376  0.00  0.00    +0.000 A 
ATOM     18  C   UNL     1       1.184   2.242   0.256  0.00  0.00    +0.002 A 
ATOM     19  C   UNL     1       0.954   3.471   0.844  0.00  0.00    +0.023 A 
ATOM     20  C   UNL     1      -0.316   4.033   0.799  0.00  0.00    +0.030 A 
BRANCH  20  21
ATOM     21  N   UNL     1      -0.553   5.275   1.391  0.00  0.00    -0.358 N 
ATOM     22  H   UNL     1       0.170   5.747   1.835  0.00  0.00    +0.142 HD
ATOM     23  H   UNL     1      -1.440   5.667   1.359  0.00  0.00    +0.142 HD
ENDBRANCH  20  21
ENDBRANCH   2  15
TORSDOF 3
