REMARK  Name = ZINC09644254
REMARK  8 active torsions:
REMARK  status: ('A' for Active; 'I' for Inactive)
REMARK    1  A    between atoms: C_6  and  C_7
REMARK    2  A    between atoms: C_10  and  S_13
REMARK    3  A    between atoms: N_11  and  N_12
REMARK    4  A    between atoms: S_13  and  C_14
REMARK    5  A    between atoms: C_14  and  C_15
REMARK    6  A    between atoms: N_23  and  C_24
REMARK    7  A    between atoms: C_24  and  C_25
REMARK    8  A    between atoms: C_25  and  O_26
REMARK                            x       y       z     vdW  Elec       q    Type
REMARK                         _______ _______ _______ _____ _____    ______ ____
ROOT
ATOM      1  S   UNL     1      -1.476  -3.598  -0.408  0.00  0.00    -0.077 S 
ENDROOT
BRANCH   1   5
ATOM      2  C   UNL     1       0.002  -0.004   0.002  0.00  0.00    +0.182 A 
ATOM      3  N   UNL     1       1.035  -0.772   0.262  0.00  0.00    -0.127 NA
ATOM      4  N   UNL     1       0.698  -2.008   0.164  0.00  0.00    -0.121 NA
ATOM      5  C   UNL     1      -0.571  -2.106  -0.164  0.00  0.00    +0.209 A 
ATOM      6  N   UNL     1      -1.060  -0.835  -0.273  0.00  0.00    -0.224 N 
BRANCH   2  12
ATOM      7  C   UNL     1      -1.235   2.158   0.020  0.00  0.00    +0.013 A 
ATOM      8  C   UNL     1      -1.247   3.538   0.031  0.00  0.00    +0.021 A 
ATOM      9  C   UNL     1      -0.056   4.243   0.024  0.00  0.00    +0.041 A 
ATOM     10  C   UNL     1       1.155   3.570   0.010  0.00  0.00    +0.021 A 
ATOM     11  C   UNL     1       1.180   2.191   0.003  0.00  0.00    +0.013 A 
ATOM     12  C   UNL     1      -0.018   1.474   0.010  0.00  0.00    +0.021 A 
ATOM     13 CL   UNL     1      -0.079   5.979   0.032  0.00  0.00    -0.084 Cl
ENDBRANCH   2  12
BRANCH   6  14
ATOM     14  N   UNL     1      -2.335  -0.466  -0.593  0.00  0.00    -0.295 N 
ATOM     15  H   UNL     1      -2.442  -0.360  -1.591  0.00  0.00    +0.163 HD
ATOM     16  H   UNL     1      -3.005  -1.124  -0.225  0.00  0.00    +0.163 HD
ENDBRANCH   6  14
ENDBRANCH   1   5
BRANCH   1  17
ATOM     17  C   UNL     1      -0.173  -4.812  -0.083  0.00  0.00    +0.151 C 
BRANCH  17  18
ATOM     18  C   UNL     1      -0.733  -6.202  -0.238  0.00  0.00    +0.121 A 
ATOM     19  N   UNL     1      -0.744  -6.882  -1.348  0.00  0.00    -0.231 NA
ATOM     20  C   UNL     1      -1.319  -8.094  -1.135  0.00  0.00    +0.089 A 
ATOM     21  C   UNL     1      -1.582  -9.193  -1.958  0.00  0.00    +0.031 A 
ATOM     22  C   UNL     1      -2.189 -10.301  -1.439  0.00  0.00    +0.022 A 
ATOM     23  C   UNL     1      -2.551 -10.349  -0.099  0.00  0.00    +0.043 A 
ATOM     24  C   UNL     1      -2.301  -9.276   0.731  0.00  0.00    +0.048 A 
ATOM     25  C   UNL     1      -1.684  -8.142   0.221  0.00  0.00    +0.070 A 
ATOM     26  N   UNL     1      -1.296  -6.933   0.763  0.00  0.00    -0.325 N 
ATOM     27 CL   UNL     1      -3.322 -11.769   0.536  0.00  0.00    -0.083 Cl
BRANCH  26  28
ATOM     28  C   UNL     1      -1.462  -6.512   2.156  0.00  0.00    +0.151 C 
BRANCH  28  29
ATOM     29  C   UNL     1      -2.812  -5.812   2.320  0.00  0.00    +0.177 C 
BRANCH  29  30
ATOM     30  O   UNL     1      -2.974  -5.402   3.679  0.00  0.00    -0.393 OA
ATOM     31  H   UNL     1      -3.810  -4.949   3.857  0.00  0.00    +0.209 HD
ENDBRANCH  29  30
ENDBRANCH  28  29
ENDBRANCH  26  28
ENDBRANCH  17  18
ENDBRANCH   1  17
TORSDOF 8
