REMARK  Name = ZINC06842460
REMARK  5 active torsions:
REMARK  status: ('A' for Active; 'I' for Inactive)
REMARK    1  A    between atoms: C_1  and  C_2
REMARK    2  A    between atoms: C_10  and  C_13
REMARK    3  A    between atoms: C_20  and  C_23
REMARK    4  A    between atoms: N_25  and  C_26
REMARK    5  A    between atoms: C_26  and  C_27
REMARK                            x       y       z     vdW  Elec       q    Type
REMARK                         _______ _______ _______ _____ _____    ______ ____
ROOT
ATOM      1  C   UNL     1      -0.627   4.906   8.885  0.00  0.00    +0.044 C 
ATOM      2  C   UNL     1      -1.073   3.884   7.872  0.00  0.00    -0.048 A 
ATOM      3  C   UNL     1      -2.257   3.194   8.063  0.00  0.00    +0.007 A 
ATOM      4  C   UNL     1      -2.676   2.259   7.136  0.00  0.00    +0.048 A 
ATOM      5  C   UNL     1      -1.904   2.001   6.012  0.00  0.00    +0.142 A 
ATOM      6  C   UNL     1      -0.710   2.691   5.827  0.00  0.00    +0.080 A 
ATOM      7  C   UNL     1      -0.297   3.632   6.756  0.00  0.00    +0.030 A 
ATOM      8  N   UNL     1       0.079   2.428   4.693  0.00  0.00    -0.248 N 
ATOM      9  C   UNL     1      -0.536   1.662   3.595  0.00  0.00    +0.159 C 
ATOM     10  C   UNL     1      -1.347   0.520   4.223  0.00  0.00    +0.188 C 
ATOM     11  O   UNL     1      -2.323   1.080   5.105  0.00  0.00    -0.486 OA
ATOM     12  C   UNL     1      -2.049  -0.277   3.122  0.00  0.00    +0.053 C 
ATOM     13  C   UNL     1       1.353   2.861   4.614  0.00  0.00    +0.309 C 
ATOM     14  O   UNL     1       1.936   3.223   5.617  0.00  0.00    -0.252 OA
ATOM     15  N   UNL     1       1.981   2.892   3.421  0.00  0.00    -0.284 N 
ATOM     16  C   UNL     1       1.213   2.852   2.170  0.00  0.00    +0.109 C 
ATOM     17  C   UNL     1       1.748   1.710   1.300  0.00  0.00    +0.020 C 
ATOM     18  C   UNL     1       3.256   1.884   1.107  0.00  0.00    +0.016 C 
ATOM     19  C   UNL     1       3.956   1.825   2.466  0.00  0.00    +0.092 C 
ATOM     20  C   UNL     1       3.446   2.973   3.349  0.00  0.00    +0.122 C 
ENDROOT
BRANCH  19  21
ATOM     21  C   UNL     1       5.444   1.964   2.272  0.00  0.00    +0.218 C 
ATOM     22  O   UNL     1       5.900   2.098   1.156  0.00  0.00    -0.275 OA
ATOM     23  N   UNL     1       6.268   1.940   3.338  0.00  0.00    -0.311 N 
ATOM     24  H   UNL     1       5.903   1.833   4.231  0.00  0.00    +0.149 HD
BRANCH  23  25
ATOM     25  C   UNL     1       7.715   2.075   3.150  0.00  0.00    +0.139 C 
BRANCH  25  26
ATOM     26  C   UNL     1       8.404   2.017   4.489  0.00  0.00    -0.030 A 
ATOM     27  C   UNL     1       8.626   3.179   5.203  0.00  0.00    +0.008 A 
ATOM     28  C   UNL     1       9.254   3.126   6.433  0.00  0.00    +0.038 A 
ATOM     29  C   UNL     1       9.669   1.908   6.946  0.00  0.00    +0.123 A 
ATOM     30  C   UNL     1       9.450   0.745   6.227  0.00  0.00    +0.038 A 
ATOM     31  C   UNL     1       8.817   0.800   5.000  0.00  0.00    +0.008 A 
ATOM     32  F   UNL     1      10.286   1.855   8.146  0.00  0.00    -0.205 F 
ENDBRANCH  25  26
ENDBRANCH  23  25
ENDBRANCH  19  21
TORSDOF 3
