REMARK  Name = ZINC53082028
REMARK  6 active torsions:
REMARK  status: ('A' for Active; 'I' for Inactive)
REMARK    1  A    between atoms: C_1  and  C_2
REMARK    2  A    between atoms: C_2  and  C_3
REMARK    3  A    between atoms: C_2  and  C_4
REMARK    4  A    between atoms: C_2  and  N_18
REMARK    5  A    between atoms: N_6  and  C_7
REMARK    6  A    between atoms: N_21  and  C_22
REMARK                            x       y       z     vdW  Elec       q    Type
REMARK                         _______ _______ _______ _____ _____    ______ ____
ROOT
ATOM      1  C   UNL     1      -1.412  -0.526   0.013  0.00  0.00    +0.236 C 
ATOM      2  O   UNL     1      -1.939  -0.827   1.062  0.00  0.00    -0.273 OA
ATOM      3  N   UNL     1      -2.090  -0.657  -1.144  0.00  0.00    -0.307 N 
ATOM      4  H   UNL     1      -1.669  -0.416  -1.984  0.00  0.00    +0.149 HD
ENDROOT
BRANCH   3   5
ATOM      5  C   UNL     1      -3.465  -1.164  -1.134  0.00  0.00    +0.103 C 
ATOM      6  C   UNL     1      -4.202  -0.645  -2.366  0.00  0.00    +0.027 C 
ATOM      7  C   UNL     1      -5.558  -1.355  -2.453  0.00  0.00    +0.007 C 
ATOM      8  C   UNL     1      -5.313  -2.817  -2.820  0.00  0.00    +0.035 C 
ATOM      9  C   UNL     1      -4.290  -3.430  -1.899  0.00  0.00    -0.042 A 
ATOM     10  C   UNL     1      -3.438  -2.670  -1.129  0.00  0.00    -0.024 A 
ATOM     11  C   UNL     1      -2.513  -3.298  -0.306  0.00  0.00    +0.006 A 
ATOM     12  C   UNL     1      -2.442  -4.675  -0.253  0.00  0.00    +0.000 A 
ATOM     13  C   UNL     1      -3.299  -5.437  -1.025  0.00  0.00    +0.000 A 
ATOM     14  C   UNL     1      -4.218  -4.815  -1.842  0.00  0.00    +0.004 A 
ENDBRANCH   3   5
BRANCH   1  16
ATOM     15  C   UNL     1      -0.019   1.526   0.010  0.00  0.00    +0.041 C 
ATOM     16  C   UNL     1       0.002  -0.004   0.002  0.00  0.00    +0.106 C 
ATOM     17  C   UNL     1       0.742  -0.511   1.242  0.00  0.00    +0.041 C 
BRANCH  16  18
ATOM     18  N   UNL     1       0.688  -0.476  -1.203  0.00  0.00    -0.286 N 
ATOM     19  C   UNL     1       1.972  -0.132  -1.427  0.00  0.00    +0.300 C 
ATOM     20  O   UNL     1       2.561   0.570  -0.628  0.00  0.00    -0.253 OA
ATOM     21  N   UNL     1       2.602  -0.567  -2.536  0.00  0.00    -0.302 N 
ATOM     22  C   UNL     1       3.998  -0.193  -2.779  0.00  0.00    +0.129 C 
ATOM     23  H   UNL     1       0.218  -1.037  -1.840  0.00  0.00    +0.151 HD
ATOM     24  H   UNL     1       2.132  -1.127  -3.173  0.00  0.00    +0.150 HD
ENDBRANCH  16  18
ENDBRANCH   1  16
TORSDOF 3
