REMARK  Name = ZINC02231529
REMARK  2 active torsions:
REMARK  status: ('A' for Active; 'I' for Inactive)
REMARK    1  A    between atoms: C_4  and  C_8
REMARK    2  A    between atoms: C_11  and  C_18
REMARK                            x       y       z     vdW  Elec       q    Type
REMARK                         _______ _______ _______ _____ _____    ______ ____
ROOT
ATOM      1  C   UNL     1       3.713  -0.710  -0.038  0.00  0.00    +0.162 C 
ATOM      2  C   UNL     1       3.995  -1.201   1.370  0.00  0.00    +0.030 C 
ATOM      3  C   UNL     1       4.161  -2.526   1.544  0.00  0.00    +0.073 C 
ATOM      4  N   UNL     1       4.081  -3.395   0.504  0.00  0.00    -0.216 NA
ATOM      5  C   UNL     1       3.840  -3.043  -0.736  0.00  0.00    +0.227 C 
ATOM      6  N   UNL     1       3.647  -1.736  -1.086  0.00  0.00    -0.162 N 
ATOM      7  N   UNL     1       3.416  -1.694  -2.461  0.00  0.00    -0.055 NA
ATOM      8  N   UNL     1       3.459  -2.840  -2.923  0.00  0.00    -0.058 NA
ATOM      9  N   UNL     1       3.723  -3.755  -1.898  0.00  0.00    -0.187 N 
ATOM     10  H   UNL     1       3.807  -4.717  -1.994  0.00  0.00    +0.179 HD
ENDROOT
BRANCH   1  14
ATOM     11  C   UNL     1      -0.017   1.378   0.010  0.00  0.00    +0.004 A 
ATOM     12  C   UNL     1       1.170   2.086   0.002  0.00  0.00    +0.039 A 
ATOM     13  C   UNL     1       2.379   1.411  -0.013  0.00  0.00    +0.130 A 
ATOM     14  C   UNL     1       2.398   0.026  -0.021  0.00  0.00    +0.032 A 
ATOM     15  C   UNL     1       1.209  -0.680  -0.013  0.00  0.00    +0.049 A 
ATOM     16  C   UNL     1       0.002  -0.004   0.002  0.00  0.00    +0.020 A 
ATOM     17 CL   UNL     1       1.232  -2.416  -0.022  0.00  0.00    -0.083 Cl
ATOM     18  F   UNL     1       3.539   2.103  -0.021  0.00  0.00    -0.205 F 
ENDBRANCH   1  14
BRANCH   3  19
ATOM     19  C   UNL     1       4.440  -3.049   2.904  0.00  0.00    +0.000 A 
ATOM     20  C   UNL     1       4.521  -2.174   3.986  0.00  0.00    +0.011 A 
ATOM     21  C   UNL     1       4.781  -2.665   5.249  0.00  0.00    +0.016 A 
ATOM     22  C   UNL     1       4.960  -4.024   5.443  0.00  0.00    +0.018 A 
ATOM     23  C   UNL     1       4.880  -4.897   4.372  0.00  0.00    +0.016 A 
ATOM     24  C   UNL     1       4.615  -4.417   3.106  0.00  0.00    +0.011 A 
ATOM     25 BR   UNL     1       5.315  -4.690   7.177  0.00  0.00    -0.050 Br
ENDBRANCH   3  19
TORSDOF 2
