REMARK  Name = ZINC34107758
REMARK  8 active torsions:
REMARK  status: ('A' for Active; 'I' for Inactive)
REMARK    1  A    between atoms: C_1  and  C_2
REMARK    2  A    between atoms: C_2  and  C_3
REMARK    3  A    between atoms: C_3  and  C_4
REMARK    4  A    between atoms: C_4  and  N_5
REMARK    5  A    between atoms: C_9  and  C_10
REMARK    6  A    between atoms: C_13  and  C_15
REMARK    7  A    between atoms: C_18  and  S_21
REMARK    8  A    between atoms: S_21  and  N_24
REMARK                            x       y       z     vdW  Elec       q    Type
REMARK                         _______ _______ _______ _____ _____    ______ ____
ROOT
ATOM      1  C   UNL     1       5.161  -3.954   5.080  0.00  0.00    +0.130 A 
ATOM      2  C   UNL     1       6.456  -4.273   5.448  0.00  0.00    +0.050 A 
ATOM      3  C   UNL     1       6.406  -4.684   6.783  0.00  0.00    +0.050 A 
ATOM      4  C   UNL     1       5.101  -4.603   7.181  0.00  0.00    +0.136 A 
ATOM      5  O   UNL     1       4.361  -4.158   6.149  0.00  0.00    -0.455 OA
ENDROOT
BRANCH   1  10
ATOM      6  N   UNL     1       1.471  -2.526   2.420  0.00  0.00    -0.255 N 
ATOM      7  C   UNL     1       2.778  -2.719   2.359  0.00  0.00    +0.258 C 
ATOM      8  O   UNL     1       3.409  -2.503   1.340  0.00  0.00    -0.269 OA
ATOM      9  C   UNL     1       3.433  -3.207   3.584  0.00  0.00    +0.080 C 
ATOM     10  C   UNL     1       4.749  -3.492   3.812  0.00  0.00    +0.066 C 
ATOM     11  S   UNL     1       2.034  -3.325   4.689  0.00  0.00    -0.061 S 
ATOM     12  C   UNL     1       0.777  -2.761   3.552  0.00  0.00    +0.121 C 
ATOM     13  S   UNL     1      -0.901  -2.567   3.832  0.00  0.00    -0.027 S 
BRANCH   6  14
ATOM     14  C   UNL     1       0.763  -2.041   1.233  0.00  0.00    +0.115 C 
BRANCH  14  15
ATOM     15  C   UNL     1       0.742  -0.511   1.242  0.00  0.00    +0.019 C 
BRANCH  15  17
ATOM     16  C   UNL     1      -0.019   1.526   0.010  0.00  0.00    +0.004 C 
ATOM     17  C   UNL     1       0.002  -0.004   0.002  0.00  0.00    -0.002 C 
ENDBRANCH  15  17
ENDBRANCH  14  15
ENDBRANCH   6  14
ENDBRANCH   1  10
BRANCH   4  18
ATOM     18  C   UNL     1       4.589  -4.943   8.522  0.00  0.00    +0.017 A 
ATOM     19  C   UNL     1       5.464  -5.387   9.516  0.00  0.00    +0.013 A 
ATOM     20  C   UNL     1       4.978  -5.703  10.768  0.00  0.00    +0.029 A 
ATOM     21  C   UNL     1       3.627  -5.582  11.040  0.00  0.00    +0.105 A 
ATOM     22  C   UNL     1       2.754  -5.143  10.060  0.00  0.00    +0.029 A 
ATOM     23  C   UNL     1       3.226  -4.818   8.806  0.00  0.00    +0.013 A 
BRANCH  21  24
ATOM     24  S   UNL     1       3.015  -5.988  12.641  0.00  0.00    +0.056 S 
ATOM     25  O   UNL     1       1.641  -6.312  12.481  0.00  0.00    -0.153 OA
ATOM     26  O   UNL     1       3.949  -6.893  13.215  0.00  0.00    -0.153 OA
BRANCH  24  27
ATOM     27  N   UNL     1       3.073  -4.607  13.553  0.00  0.00    -0.204 NA
ATOM     28  H   UNL     1       2.428  -4.468  14.264  0.00  0.00    +0.144 HD
ATOM     29  H   UNL     1       3.751  -3.937  13.375  0.00  0.00    +0.144 HD
ENDBRANCH  24  27
ENDBRANCH  21  24
ENDBRANCH   4  18
TORSDOF 7
