REMARK  Name = ZINC37405705
REMARK  5 active torsions:
REMARK  status: ('A' for Active; 'I' for Inactive)
REMARK    1  A    between atoms: C_2  and  N_11
REMARK    2  A    between atoms: C_12  and  C_14
REMARK    3  A    between atoms: C_14  and  S_15
REMARK    4  A    between atoms: S_15  and  C_16
REMARK    5  A    between atoms: C_16  and  C_17
REMARK                            x       y       z     vdW  Elec       q    Type
REMARK                         _______ _______ _______ _____ _____    ______ ____
ROOT
ATOM      1  N   UNL     1       1.689   3.446   0.733  0.00  0.00    -0.309 N 
ATOM      2  C   UNL     1       2.757   4.220   0.458  0.00  0.00    +0.223 C 
ATOM      3  O   UNL     1       3.548   3.881  -0.397  0.00  0.00    -0.275 OA
ATOM      4  H   UNL     1       1.057   3.718   1.417  0.00  0.00    +0.149 HD
ENDROOT
BRANCH   1   6
ATOM      5  C   UNL     1      -0.023   1.835   0.012  0.00  0.00    +0.189 C 
ATOM      6  C   UNL     1       1.482   2.195  -0.000  0.00  0.00    +0.113 C 
ATOM      7  C   UNL     1       2.296   1.074   0.667  0.00  0.00    +0.123 C 
ATOM      8  C   UNL     1       1.821  -0.285   0.076  0.00  0.00    +0.187 C 
ATOM      9  S   UNL     1       0.002  -0.004   0.002  0.00  0.00    -0.028 S 
ATOM     10  O   UNL     1      -0.589  -0.481   1.203  0.00  0.00    -0.174 OA
ATOM     11  O   UNL     1      -0.486  -0.466  -1.250  0.00  0.00    -0.174 OA
ATOM     12 CL   UNL     1       4.050   1.307   0.324  0.00  0.00    -0.118 Cl
ENDBRANCH   1   6
BRANCH   2  13
ATOM     13  C   UNL     1       2.970   5.507   1.213  0.00  0.00    +0.165 C 
BRANCH  13  14
ATOM     14  S   UNL     1       4.482   6.314   0.618  0.00  0.00    -0.140 S 
BRANCH  14  15
ATOM     15  C   UNL     1       4.592   7.827   1.613  0.00  0.00    +0.194 C 
BRANCH  15  16
ATOM     16  C   UNL     1       5.821   8.602   1.214  0.00  0.00    +0.366 C 
ATOM     17  O   UNL     1       6.555   8.174   0.340  0.00  0.00    -0.245 OA
ATOM     18  O   UNL     1       6.082   9.658   1.766  0.00  0.00    -0.245 OA
ENDBRANCH  15  16
ENDBRANCH  14  15
ENDBRANCH  13  14
ENDBRANCH   2  13
TORSDOF 5
