REMARK  Name = ZINC51104972
REMARK  6 active torsions:
REMARK  status: ('A' for Active; 'I' for Inactive)
REMARK    1  A    between atoms: C_1  and  C_2
REMARK    2  A    between atoms: C_2  and  C_4
REMARK    3  A    between atoms: C_2  and  N_15
REMARK    4  A    between atoms: N_9  and  C_10
REMARK    5  A    between atoms: C_10  and  C_11
REMARK    6  A    between atoms: C_19  and  C_22
REMARK                            x       y       z     vdW  Elec       q    Type
REMARK                         _______ _______ _______ _____ _____    ______ ____
ROOT
ATOM      1  C   UNL     1      -0.019   1.526   0.010  0.00  0.00    +0.034 C 
ATOM      2  C   UNL     1       0.002  -0.004   0.002  0.00  0.00    +0.141 C 
ENDROOT
BRANCH   2   3
ATOM      3  C   UNL     1       0.731  -0.503   1.223  0.00  0.00    +0.237 C 
ATOM      4  O   UNL     1       1.725  -1.186   1.099  0.00  0.00    -0.274 OA
ATOM      5  N   UNL     1       0.278  -0.191   2.453  0.00  0.00    -0.239 N 
ATOM      6  C   UNL     1       0.930  -0.637   3.545  0.00  0.00    +0.306 C 
ATOM      7  O   UNL     1       1.926  -1.322   3.420  0.00  0.00    -0.252 OA
ATOM      8  N   UNL     1       0.476  -0.324   4.775  0.00  0.00    -0.291 N 
ATOM      9  H   UNL     1      -0.517   0.356   2.553  0.00  0.00    +0.159 HD
ATOM     10  H   UNL     1      -0.319   0.222   4.875  0.00  0.00    +0.151 HD
BRANCH   8  11
ATOM     11  C   UNL     1       1.185  -0.810   5.962  0.00  0.00    +0.219 C 
BRANCH  11  12
ATOM     12  C   UNL     1       0.469  -0.316   7.221  0.00  0.00    +0.405 C 
ATOM     13  F   UNL     1      -0.844  -0.800   7.231  0.00  0.00    -0.169 F 
ATOM     14  F   UNL     1       1.146  -0.780   8.354  0.00  0.00    -0.169 F 
ATOM     15  F   UNL     1       0.450   1.083   7.229  0.00  0.00    -0.169 F 
ENDBRANCH  11  12
ENDBRANCH   8  11
ENDBRANCH   2   3
BRANCH   2  16
ATOM     16  N   UNL     1       0.690  -0.478  -1.207  0.00  0.00    -0.287 NA
ATOM     17  C   UNL     1       2.065   0.039  -1.267  0.00  0.00    +0.113 C 
ATOM     18  C   UNL     1       2.762  -0.526  -2.508  0.00  0.00    +0.176 C 
ATOM     19  O   UNL     1       2.003  -0.185  -3.671  0.00  0.00    -0.365 OA
ATOM     20  C   UNL     1       0.659  -0.673  -3.646  0.00  0.00    +0.217 C 
ATOM     21  C   UNL     1      -0.059  -0.110  -2.417  0.00  0.00    +0.126 C 
BRANCH  20  22
ATOM     22  C   UNL     1      -0.059  -0.234  -4.896  0.00  0.00    +0.241 C 
ATOM     23  O   UNL     1       0.491   0.506  -5.683  0.00  0.00    -0.273 OA
ATOM     24  N   UNL     1      -1.313  -0.664  -5.138  0.00  0.00    -0.327 N 
ATOM     25  H   UNL     1      -1.753  -1.256  -4.508  0.00  0.00    +0.145 HD
ATOM     26  H   UNL     1      -1.776  -0.381  -5.942  0.00  0.00    +0.145 HD
ENDBRANCH  20  22
ENDBRANCH   2  16
TORSDOF 5
