REMARK  Name = ZINC39923315
REMARK  10 active torsions:
REMARK  status: ('A' for Active; 'I' for Inactive)
REMARK    1  A    between atoms: C_1  and  C_2
REMARK    2  A    between atoms: C_5  and  N_8
REMARK    3  A    between atoms: C_9  and  C_30
REMARK    4  A    between atoms: C_13  and  S_14
REMARK    5  A    between atoms: S_14  and  C_15
REMARK    6  A    between atoms: C_15  and  C_16
REMARK    7  A    between atoms: N_18  and  N_19
REMARK    8  A    between atoms: C_20  and  C_21
REMARK    9  A    between atoms: C_33  and  O_36
REMARK   10  A    between atoms: O_36  and  C_37
REMARK                            x       y       z     vdW  Elec       q    Type
REMARK                         _______ _______ _______ _____ _____    ______ ____
ROOT
ATOM      1  N   UNL     1       0.050  -4.157  -0.011  0.00  0.00    -0.254 N 
ATOM      2  C   UNL     1       0.172  -5.053   1.150  0.00  0.00    +0.213 C 
ATOM      3  N   UNL     1       0.145  -6.403   0.560  0.00  0.00    -0.242 N 
ATOM      4  N   UNL     1       0.018  -6.222  -0.823  0.00  0.00    -0.162 NA
ATOM      5  C   UNL     1      -0.040  -4.970  -1.132  0.00  0.00    +0.180 C 
ATOM      6  H   UNL     1       0.205  -7.247   1.034  0.00  0.00    +0.170 HD
ENDROOT
BRANCH   1  11
ATOM      7  C   UNL     1      -0.054   1.513   0.081  0.00  0.00    +0.044 C 
ATOM      8  C   UNL     1      -0.027   0.006   0.056  0.00  0.00    -0.050 A 
ATOM      9  C   UNL     1      -1.065  -0.712   0.620  0.00  0.00    +0.005 A 
ATOM     10  C   UNL     1      -1.043  -2.092   0.599  0.00  0.00    +0.024 A 
ATOM     11  C   UNL     1       0.024  -2.760   0.011  0.00  0.00    +0.038 A 
ATOM     12  C   UNL     1       1.065  -2.035  -0.555  0.00  0.00    +0.024 A 
ATOM     13  C   UNL     1       1.034  -0.654  -0.536  0.00  0.00    +0.005 A 
ENDBRANCH   1  11
BRANCH   2  14
ATOM     14  C   UNL     1       1.474  -4.813   1.870  0.00  0.00    -0.008 A 
ATOM     15  C   UNL     1       1.471  -4.510   3.219  0.00  0.00    +0.011 A 
ATOM     16  C   UNL     1       2.663  -4.288   3.881  0.00  0.00    +0.046 A 
ATOM     17  C   UNL     1       3.864  -4.371   3.191  0.00  0.00    +0.120 A 
ATOM     18  C   UNL     1       3.864  -4.676   1.837  0.00  0.00    +0.046 A 
ATOM     19  C   UNL     1       2.669  -4.902   1.181  0.00  0.00    +0.011 A 
BRANCH  17  20
ATOM     20  O   UNL     1       5.038  -4.154   3.839  0.00  0.00    -0.495 OA
ATOM     21  C   UNL     1       6.235  -4.256   3.066  0.00  0.00    +0.277 C 
ENDBRANCH  17  20
ENDBRANCH   2  14
BRANCH   5  22
ATOM     22  S   UNL     1      -0.208  -4.367  -2.779  0.00  0.00    -0.079 S 
BRANCH  22  23
ATOM     23  C   UNL     1      -0.274  -5.871  -3.792  0.00  0.00    +0.174 C 
BRANCH  23  24
ATOM     24  C   UNL     1      -0.419  -5.492  -5.244  0.00  0.00    +0.242 C 
ATOM     25  O   UNL     1      -0.472  -4.324  -5.563  0.00  0.00    -0.273 OA
ATOM     26  N   UNL     1      -0.489  -6.453  -6.186  0.00  0.00    -0.206 N 
ATOM     27  H   UNL     1      -0.446  -7.388  -5.931  0.00  0.00    +0.177 HD
BRANCH  26  28
ATOM     28  N   UNL     1      -0.624  -6.101  -7.536  0.00  0.00    -0.188 NA
ATOM     29  C   UNL     1      -0.692  -7.034  -8.452  0.00  0.00    +0.136 C 
BRANCH  29  30
ATOM     30  C   UNL     1      -0.827  -6.682  -9.803  0.00  0.00    +0.000 C 
ATOM     31  C   UNL     1      -0.918  -7.544 -10.892  0.00  0.00    +0.004 A 
ATOM     32  C   UNL     1      -0.907  -8.953 -10.999  0.00  0.00    +0.010 A 
ATOM     33  C   UNL     1      -1.015  -9.536 -12.219  0.00  0.00    +0.001 A 
ATOM     34  C   UNL     1      -1.138  -8.777 -13.386  0.00  0.00    +0.002 A 
ATOM     35  C   UNL     1      -1.156  -7.423 -13.360  0.00  0.00    +0.026 A 
ATOM     36  C   UNL     1      -1.048  -6.739 -12.120  0.00  0.00    +0.043 A 
ATOM     37  N   UNL     1      -1.039  -5.455 -11.831  0.00  0.00    -0.380 N 
ATOM     38  C   UNL     1      -0.909  -5.286 -10.380  0.00  0.00    +0.150 C 
ATOM     39  H   UNL     1      -1.111  -4.734 -12.475  0.00  0.00    +0.160 HD
ENDBRANCH  29  30
ENDBRANCH  26  28
ENDBRANCH  23  24
ENDBRANCH  22  23
ENDBRANCH   5  22
TORSDOF 8
