REMARK  Name = ZINC61855662
REMARK  4 active torsions:
REMARK  status: ('A' for Active; 'I' for Inactive)
REMARK    1  A    between atoms: C_3  and  C_17
REMARK    2  A    between atoms: C_6  and  S_7
REMARK    3  A    between atoms: S_7  and  C_8
REMARK    4  A    between atoms: C_12  and  N_14
REMARK                            x       y       z     vdW  Elec       q    Type
REMARK                         _______ _______ _______ _____ _____    ______ ____
ROOT
ATOM      1  C   UNL     1      -1.012  -2.585  -0.151  0.00  0.00    +0.196 A 
ATOM      2  N   UNL     1       0.280  -2.877  -0.138  0.00  0.00    -0.207 NA
ATOM      3  C   UNL     1       0.696  -4.136  -0.259  0.00  0.00    +0.122 A 
ATOM      4  C   UNL     1      -0.247  -5.150  -0.400  0.00  0.00    +0.086 A 
ATOM      5  C   UNL     1      -1.595  -4.804  -0.408  0.00  0.00    +0.122 A 
ATOM      6  N   UNL     1      -1.937  -3.524  -0.277  0.00  0.00    -0.207 NA
ATOM      7  N   UNL     1       2.050  -4.432  -0.245  0.00  0.00    -0.343 N 
ATOM      8  H   UNL     1       2.702  -3.721  -0.147  0.00  0.00    +0.144 HD
ATOM      9  H   UNL     1       2.346  -5.352  -0.334  0.00  0.00    +0.144 HD
ENDROOT
BRANCH   5  10
ATOM     10  N   UNL     1      -2.570  -5.781  -0.546  0.00  0.00    -0.343 N 
ATOM     11  H   UNL     1      -2.314  -6.712  -0.637  0.00  0.00    +0.144 HD
ATOM     12  H   UNL     1      -3.507  -5.533  -0.551  0.00  0.00    +0.144 HD
ENDBRANCH   5  10
BRANCH   1  13
ATOM     13  S   UNL     1      -1.513  -0.903   0.012  0.00  0.00    -0.050 S 
BRANCH  13  19
ATOM     14  C   UNL     1       0.584   0.358  -1.213  0.00  0.00    +0.016 A 
ATOM     15  C   UNL     1       1.767   1.061  -1.228  0.00  0.00    +0.021 A 
ATOM     16  C   UNL     1       2.385   1.413  -0.024  0.00  0.00    +0.070 A 
ATOM     17  C   UNL     1       1.798   1.048   1.193  0.00  0.00    +0.059 A 
ATOM     18  C   UNL     1       0.613   0.344   1.200  0.00  0.00    +0.036 A 
ATOM     19  C   UNL     1       0.002  -0.004  -0.001  0.00  0.00    +0.017 A 
ATOM     20 CL   UNL     1       2.561   1.480   2.691  0.00  0.00    -0.082 Cl
BRANCH  16  21
ATOM     21  C   UNL     1       3.616   2.144  -0.036  0.00  0.00    +0.101 C 
ATOM     22  N   UNL     1       4.593   2.724  -0.046  0.00  0.00    -0.191 NA
ENDBRANCH  16  21
ENDBRANCH  13  19
ENDBRANCH   1  13
TORSDOF 4
