REMARK  Name = ZINC17028169
REMARK  8 active torsions:
REMARK  status: ('A' for Active; 'I' for Inactive)
REMARK    1  A    between atoms: C_1  and  C_2
REMARK    2  A    between atoms: C_2  and  C_3
REMARK    3  A    between atoms: C_3  and  C_4
REMARK    4  A    between atoms: C_7  and  N_9
REMARK    5  A    between atoms: C_10  and  C_12
REMARK    6  A    between atoms: N_20  and  C_23
REMARK    7  A    between atoms: C_23  and  C_24
REMARK    8  A    between atoms: C_24  and  C_25
REMARK                            x       y       z     vdW  Elec       q    Type
REMARK                         _______ _______ _______ _____ _____    ______ ____
ROOT
ATOM      1  C   UNL     1       1.040  -8.302  -1.177  0.00  0.00    +0.153 A 
ATOM      2  C   UNL     1       2.239  -8.636  -0.488  0.00  0.00    +0.206 A 
ATOM      3  C   UNL     1       2.562 -10.065  -0.321  0.00  0.00    +0.046 A 
ATOM      4  C   UNL     1       3.720 -10.468   0.344  0.00  0.00    +0.014 A 
ATOM      5  C   UNL     1       3.993 -11.811   0.483  0.00  0.00    +0.001 A 
ATOM      6  C   UNL     1       3.124 -12.760  -0.034  0.00  0.00    +0.002 A 
ATOM      7  C   UNL     1       1.976 -12.377  -0.694  0.00  0.00    +0.026 A 
ATOM      8  C   UNL     1       1.681 -11.025  -0.845  0.00  0.00    +0.056 A 
ATOM      9  N   UNL     1       0.535 -10.625  -1.503  0.00  0.00    -0.307 N 
ATOM     10  C   UNL     1       0.221  -9.318  -1.660  0.00  0.00    +0.268 A 
ATOM     11  O   UNL     1      -0.916  -8.991  -2.306  0.00  0.00    -0.267 OA
ATOM     12  O   UNL     1       2.975  -7.770  -0.049  0.00  0.00    -0.286 OA
ENDROOT
BRANCH   1  14
ATOM     13  N   UNL     1       1.446  -5.939  -0.912  0.00  0.00    -0.181 NA
ATOM     14  C   UNL     1       0.667  -6.896  -1.371  0.00  0.00    +0.289 C 
ATOM     15  O   UNL     1      -0.476  -6.584  -2.022  0.00  0.00    -0.265 OA
BRANCH  13  19
ATOM     16  C   UNL     1       0.739  -2.004  -1.265  0.00  0.00    +0.104 A 
ATOM     17  N   UNL     1      -0.127  -2.860  -1.772  0.00  0.00    -0.144 NA
ATOM     18  N   UNL     1       0.036  -4.108  -1.695  0.00  0.00    -0.121 NA
ATOM     19  C   UNL     1       1.101  -4.637  -1.093  0.00  0.00    +0.218 A 
ATOM     20  S   UNL     1       1.950  -3.141  -0.596  0.00  0.00    -0.031 S 
BRANCH  16  21
ATOM     21  C   UNL     1       0.718  -0.497  -1.257  0.00  0.00    +0.064 C 
BRANCH  21  23
ATOM     22  C   UNL     1      -0.019   1.526   0.010  0.00  0.00    +0.004 C 
ATOM     23  C   UNL     1       0.002  -0.004   0.002  0.00  0.00    +0.003 C 
ENDBRANCH  21  23
ENDBRANCH  16  21
ENDBRANCH  13  19
ENDBRANCH   1  14
BRANCH   9  24
ATOM     24  C   UNL     1      -0.370 -11.644  -2.041  0.00  0.00    +0.125 C 
BRANCH  24  25
ATOM     25  C   UNL     1      -1.407 -12.017  -0.981  0.00  0.00    +0.018 C 
ATOM     26  C   UNL     1      -2.352 -13.081  -1.543  0.00  0.00    +0.005 C 
ENDBRANCH  24  25
ENDBRANCH   9  24
TORSDOF 6
