REMARK  Name = ZINC22916882
REMARK  14 active torsions:
REMARK  status: ('A' for Active; 'I' for Inactive)
REMARK    1  A    between atoms: C_1  and  C_2
REMARK    2  A    between atoms: C_2  and  C_3
REMARK    3  A    between atoms: C_2  and  C_4
REMARK    4  A    between atoms: C_2  and  C_5
REMARK    5  A    between atoms: C_7  and  C_16
REMARK    6  A    between atoms: C_8  and  O_15
REMARK    7  A    between atoms: C_9  and  C_11
REMARK    8  A    between atoms: C_11  and  C_12
REMARK    9  A    between atoms: C_11  and  C_13
REMARK   10  A    between atoms: C_11  and  C_14
REMARK   11  A    between atoms: C_16  and  N_17
REMARK   12  A    between atoms: N_20  and  C_23
REMARK   13  A    between atoms: C_23  and  C_24
REMARK   14  A    between atoms: C_24  and  O_25
REMARK                            x       y       z     vdW  Elec       q    Type
REMARK                         _______ _______ _______ _____ _____    ______ ____
ROOT
ATOM      1  C   UNL     1       1.171   2.370   1.221  0.00  0.00    -0.041 A 
ATOM      2  C   UNL     1       2.358   1.790   0.814  0.00  0.00    +0.009 A 
ATOM      3  C   UNL     1       2.346   0.568   0.169  0.00  0.00    -0.022 A 
ATOM      4  C   UNL     1       1.141  -0.077  -0.070  0.00  0.00    +0.122 A 
ATOM      5  C   UNL     1      -0.049   0.507   0.339  0.00  0.00    -0.000 A 
ATOM      6  C   UNL     1      -0.031   1.729   0.983  0.00  0.00    +0.012 A 
ENDROOT
BRANCH   1   8
ATOM      7  C   UNL     1       0.566   3.554   3.314  0.00  0.00    +0.015 C 
ATOM      8  C   UNL     1       1.187   3.703   1.923  0.00  0.00    -0.013 C 
ATOM      9  C   UNL     1       2.631   4.190   2.060  0.00  0.00    +0.015 C 
ATOM     10  C   UNL     1       0.381   4.718   1.111  0.00  0.00    +0.015 C 
ENDBRANCH   1   8
BRANCH   5  11
ATOM     11  C   UNL     1      -1.359  -0.190   0.080  0.00  0.00    -0.009 C 
ATOM     12  C   UNL     1      -2.507   0.662   0.626  0.00  0.00    +0.015 C 
ATOM     13  C   UNL     1      -1.543  -0.388  -1.426  0.00  0.00    +0.015 C 
ATOM     14  C   UNL     1      -1.358  -1.552   0.777  0.00  0.00    +0.015 C 
ENDBRANCH   5  11
BRANCH   4  15
ATOM     15  O   UNL     1       1.127  -1.279  -0.704  0.00  0.00    -0.506 OA
ATOM     16  H   UNL     1       0.171  -1.789  -0.893  0.00  0.00    +0.292 HD
ENDBRANCH   4  15
BRANCH   3  17
ATOM     17  C   UNL     1       3.641  -0.064  -0.273  0.00  0.00    -0.039 C 
BRANCH  17  18
ATOM     18  N   UNL     1       4.023  -1.116   0.678  0.00  0.00    +0.384 N 
ATOM     19  C   UNL     1       4.490  -0.535   1.945  0.00  0.00    -0.063 C 
ATOM     20  C   UNL     1       4.802  -1.661   2.934  0.00  0.00    +0.066 C 
ATOM     21  N   UNL     1       5.821  -2.548   2.357  0.00  0.00    -0.304 NA
ATOM     22  C   UNL     1       5.354  -3.129   1.091  0.00  0.00    +0.066 C 
ATOM     23  C   UNL     1       5.042  -2.003   0.101  0.00  0.00    -0.063 C 
ATOM     24  H   UNL     1       3.128  -1.719   0.891  0.00  0.00    -0.081 HD
BRANCH  21  25
ATOM     25  C   UNL     1       6.203  -3.600   3.309  0.00  0.00    +0.112 C 
BRANCH  25  26
ATOM     26  C   UNL     1       7.564  -4.176   2.914  0.00  0.00    +0.171 C 
BRANCH  26  27
ATOM     27  O   UNL     1       8.567  -3.167   3.053  0.00  0.00    -0.394 OA
ATOM     28  H   UNL     1       9.615  -3.397   2.813  0.00  0.00    +0.209 HD
ENDBRANCH  26  27
ENDBRANCH  25  26
ENDBRANCH  21  25
ENDBRANCH  17  18
ENDBRANCH   3  17
TORSDOF 8
