REMARK  Name = ZINC35114675
REMARK  3 active torsions:
REMARK  status: ('A' for Active; 'I' for Inactive)
REMARK    1  A    between atoms: C_3  and  C_11
REMARK    2  A    between atoms: N_13  and  C_14
REMARK    3  A    between atoms: C_17  and  O_20
REMARK                            x       y       z     vdW  Elec       q    Type
REMARK                         _______ _______ _______ _____ _____    ______ ____
ROOT
ATOM      1  C   UNL     1       3.536   2.126  -1.299  0.00  0.00    +0.218 C 
ATOM      2  O   UNL     1       3.933   2.820  -0.388  0.00  0.00    -0.275 OA
ATOM      3  N   UNL     1       4.352   1.839  -2.332  0.00  0.00    -0.312 N 
ATOM      4  H   UNL     1       4.035   1.283  -3.061  0.00  0.00    +0.149 HD
ENDROOT
BRANCH   1   7
ATOM      5  C   UNL     1      -0.017   1.532   0.004  0.00  0.00    +0.020 C 
ATOM      6  C   UNL     1       1.421   2.055  -0.004  0.00  0.00    +0.016 C 
ATOM      7  C   UNL     1       2.130   1.584  -1.276  0.00  0.00    +0.092 C 
ATOM      8  C   UNL     1       2.171   0.052  -1.296  0.00  0.00    +0.122 C 
ATOM      9  N   UNL     1       0.802  -0.459  -1.143  0.00  0.00    -0.285 N 
ATOM     10  C   UNL     1      -0.000   0.001  -0.001  0.00  0.00    +0.109 C 
ATOM     11  C   UNL     1       0.293  -1.334  -2.033  0.00  0.00    +0.300 C 
ATOM     12  O   UNL     1       0.930  -1.634  -3.024  0.00  0.00    -0.253 OA
ATOM     13  N   UNL     1      -0.923  -1.876  -1.824  0.00  0.00    -0.313 N 
ATOM     14  H   UNL     1      -1.462  -1.584  -1.072  0.00  0.00    +0.146 HD
ATOM     15  H   UNL     1      -1.260  -2.559  -2.425  0.00  0.00    +0.146 HD
ENDBRANCH   1   7
BRANCH   3  16
ATOM     16  C   UNL     1       5.719   2.365  -2.355  0.00  0.00    +0.073 C 
ATOM     17  C   UNL     1       5.712   3.778  -2.943  0.00  0.00    +0.025 C 
ATOM     18  C   UNL     1       7.139   4.328  -2.967  0.00  0.00    +0.033 C 
ATOM     19  C   UNL     1       8.021   3.421  -3.827  0.00  0.00    +0.115 C 
ATOM     20  C   UNL     1       8.028   2.009  -3.238  0.00  0.00    +0.033 C 
ATOM     21  C   UNL     1       6.601   1.459  -3.215  0.00  0.00    +0.025 C 
BRANCH  19  22
ATOM     22  O   UNL     1       9.354   3.935  -3.849  0.00  0.00    -0.392 OA
ATOM     23  H   UNL     1       9.970   3.409  -4.377  0.00  0.00    +0.210 HD
ENDBRANCH  19  22
ENDBRANCH   3  16
TORSDOF 3
