REMARK  Name = ZINC35488614
REMARK  4 active torsions:
REMARK  status: ('A' for Active; 'I' for Inactive)
REMARK    1  A    between atoms: C_1  and  N_2
REMARK    2  A    between atoms: N_2  and  C_3
REMARK    3  A    between atoms: C_3  and  C_5
REMARK    4  A    between atoms: C_3  and  C_12
REMARK                            x       y       z     vdW  Elec       q    Type
REMARK                         _______ _______ _______ _____ _____    ______ ____
ROOT
ATOM      1  C   UNL     1      -1.376  -0.512   0.012  0.00  0.00    -0.010 C 
ENDROOT
BRANCH   1   2
ATOM      2  C   UNL     1      -2.067  -0.116  -1.267  0.00  0.00    -0.055 A 
ATOM      3  C   UNL     1      -1.380  -0.172  -2.467  0.00  0.00    +0.004 A 
ATOM      4  C   UNL     1      -2.005   0.190  -3.645  0.00  0.00    +0.028 A 
ATOM      5  C   UNL     1      -3.327   0.610  -3.624  0.00  0.00    +0.067 A 
ATOM      6  C   UNL     1      -4.020   0.665  -2.413  0.00  0.00    +0.067 A 
ATOM      7  C   UNL     1      -3.385   0.295  -1.237  0.00  0.00    +0.030 A 
ATOM      8  N   UNL     1      -5.305   1.116  -2.705  0.00  0.00    -0.306 N 
ATOM      9  H   UNL     1      -6.017   1.256  -2.062  0.00  0.00    +0.170 HD
ATOM     10  C   UNL     1      -5.390   1.324  -4.032  0.00  0.00    +0.325 A 
ATOM     11  O   UNL     1      -6.380   1.721  -4.618  0.00  0.00    -0.247 OA
ATOM     12  N   UNL     1      -4.212   1.028  -4.614  0.00  0.00    -0.306 N 
ATOM     13  H   UNL     1      -4.015   1.094  -5.561  0.00  0.00    +0.170 HD
ENDBRANCH   1   2
BRANCH   1  14
ATOM     14  C   UNL     1      -1.356  -2.015   0.128  0.00  0.00    -0.057 A 
ATOM     15  C   UNL     1      -0.411  -2.749  -0.564  0.00  0.00    +0.003 A 
ATOM     16  C   UNL     1      -0.392  -4.127  -0.458  0.00  0.00    +0.015 A 
ATOM     17  C   UNL     1      -1.319  -4.771   0.341  0.00  0.00    +0.018 A 
ATOM     18  C   UNL     1      -2.265  -4.037   1.033  0.00  0.00    +0.015 A 
ATOM     19  C   UNL     1      -2.280  -2.659   0.930  0.00  0.00    +0.003 A 
ATOM     20 BR   UNL     1      -1.295  -6.657   0.486  0.00  0.00    -0.050 Br
ENDBRANCH   1  14
BRANCH   1  22
ATOM     21  C   UNL     1      -0.018   1.465   0.010  0.00  0.00    -0.099 C 
ATOM     22  N   UNL     1       0.002  -0.004   0.002  0.00  0.00    +0.384 N 
ATOM     23  H   UNL     1       0.474  -0.330  -0.828  0.00  0.00    -0.085 HD
ATOM     24  H   UNL     1       0.490  -0.338   0.820  0.00  0.00    -0.085 HD
ENDBRANCH   1  22
TORSDOF 3
