REMARK  Name = ZINC16989953
REMARK  6 active torsions:
REMARK  status: ('A' for Active; 'I' for Inactive)
REMARK    1  A    between atoms: C_1  and  C_2
REMARK    2  A    between atoms: C_13  and  O_15
REMARK    3  A    between atoms: C_20  and  C_34
REMARK    4  A    between atoms: C_22  and  C_27
REMARK    5  A    between atoms: C_27  and  C_29
REMARK    6  A    between atoms: C_27  and  O_33
REMARK                            x       y       z     vdW  Elec       q    Type
REMARK                         _______ _______ _______ _____ _____    ______ ____
ROOT
ATOM      1  C   UNL     1       0.399   1.659   8.173  0.00  0.00    +0.014 C 
ATOM      2  C   UNL     1       1.244   0.671   7.368  0.00  0.00    -0.003 C 
ATOM      3  C   UNL     1       2.117   1.391   6.371  0.00  0.00    +0.010 C 
ATOM      4  C   UNL     1       1.402   1.547   5.021  0.00  0.00    +0.005 C 
ATOM      5  C   UNL     1      -0.108   1.498   5.188  0.00  0.00    -0.001 C 
ATOM      6  C   UNL     1      -0.545   0.109   5.660  0.00  0.00    -0.004 C 
ATOM      7  C   UNL     1       0.398  -0.424   6.695  0.00  0.00    +0.001 C 
ATOM      8  C   UNL     1      -0.211  -1.145   7.907  0.00  0.00    +0.007 C 
ATOM      9  C   UNL     1       0.969  -1.183   8.918  0.00  0.00    +0.032 C 
ATOM     10  C   UNL     1       2.026  -0.180   8.396  0.00  0.00    +0.121 C 
ATOM     11  C   UNL     1      -2.001   0.186   6.104  0.00  0.00    +0.004 C 
ATOM     12  C   UNL     1      -2.840   0.663   4.912  0.00  0.00    +0.005 C 
ATOM     13  C   UNL     1      -1.966   0.819   3.669  0.00  0.00    +0.002 C 
ATOM     14  C   UNL     1      -0.854   1.845   3.895  0.00  0.00    -0.025 C 
ATOM     15  C   UNL     1       0.114   1.801   2.718  0.00  0.00    +0.021 C 
ATOM     16  C   UNL     1      -0.568   2.093   1.397  0.00  0.00    +0.093 C 
ATOM     17  C   UNL     1      -1.996   1.685   1.329  0.00  0.00    +0.139 C 
ATOM     18  O   UNL     1      -2.521   1.689   0.239  0.00  0.00    -0.297 OA
ATOM     19  C   UNL     1      -2.836   1.269   2.492  0.00  0.00    +0.078 C 
ATOM     20  C   UNL     1      -1.436   3.256   4.033  0.00  0.00    +0.012 C 
ENDROOT
BRANCH  10  21
ATOM     21  O   UNL     1       2.497   0.655   9.450  0.00  0.00    -0.391 OA
ATOM     22  H   UNL     1       2.934   0.175  10.166  0.00  0.00    +0.210 HD
ENDBRANCH  10  21
BRANCH  16  23
ATOM     23  C   UNL     1       0.200   1.366   0.289  0.00  0.00    +0.228 C 
BRANCH  23  24
ATOM     24  C   UNL     1       1.623   1.920   0.207  0.00  0.00    +0.416 C 
ATOM     25  F   UNL     1       2.284   1.349  -0.886  0.00  0.00    -0.168 F 
ATOM     26  F   UNL     1       1.575   3.309   0.049  0.00  0.00    -0.168 F 
ATOM     27  F   UNL     1       2.314   1.608   1.383  0.00  0.00    -0.168 F 
ENDBRANCH  23  24
BRANCH  23  28
ATOM     28  O   UNL     1       0.248  -0.032   0.581  0.00  0.00    -0.382 OA
ATOM     29  H   UNL     1       0.685  -0.244   1.417  0.00  0.00    +0.210 HD
ENDBRANCH  23  28
ENDBRANCH  16  23
TORSDOF 4
