REMARK  Name = ZINC06738153
REMARK  4 active torsions:
REMARK  status: ('A' for Active; 'I' for Inactive)
REMARK    1  A    between atoms: C_1  and  C_2
REMARK    2  A    between atoms: C_4  and  C_7
REMARK    3  A    between atoms: N_9  and  C_10
REMARK    4  A    between atoms: C_11  and  C_19
REMARK                            x       y       z     vdW  Elec       q    Type
REMARK                         _______ _______ _______ _____ _____    ______ ____
ROOT
ATOM      1  C   UNL     1       1.684   2.069  -0.003  0.00  0.00    +0.085 A 
ATOM      2  C   UNL     1       2.232   0.794  -0.015  0.00  0.00    +0.068 A 
ATOM      3  C   UNL     1       1.312  -0.332  -0.012  0.00  0.00    -0.023 A 
ATOM      4  C   UNL     1       0.002  -0.004   0.002  0.00  0.00    -0.004 A 
ATOM      5  S   UNL     1      -0.022   1.766   0.012  0.00  0.00    -0.077 S 
ATOM      6  C   UNL     1      -1.164  -0.944   0.007  0.00  0.00    +0.043 C 
ATOM      7  C   UNL     1      -0.660  -2.341  -0.383  0.00  0.00    +0.005 C 
ATOM      8  C   UNL     1       0.590  -2.663   0.440  0.00  0.00    +0.005 C 
ATOM      9  C   UNL     1       1.757  -1.789  -0.023  0.00  0.00    +0.037 C 
ENDROOT
BRANCH   2  10
ATOM     10  C   UNL     1       3.683   0.590  -0.031  0.00  0.00    +0.244 C 
ATOM     11  O   UNL     1       4.275   0.511  -1.091  0.00  0.00    -0.270 OA
ATOM     12  N   UNL     1       4.362   0.489   1.129  0.00  0.00    -0.325 N 
ATOM     13  H   UNL     1       3.890   0.552   1.974  0.00  0.00    +0.145 HD
ATOM     14  H   UNL     1       5.323   0.354   1.119  0.00  0.00    +0.145 HD
ENDBRANCH   2  10
BRANCH   1  17
ATOM     15  C   UNL     1       1.634   4.435   0.010  0.00  0.00    +0.288 C 
ATOM     16  O   UNL     1       0.419   4.400   0.022  0.00  0.00    -0.266 OA
ATOM     17  N   UNL     1       2.341   3.288  -0.003  0.00  0.00    -0.273 N 
ATOM     18  H   UNL     1       3.311   3.316  -0.013  0.00  0.00    +0.156 HD
BRANCH  15  22
ATOM     19  C   UNL     1       2.821   9.363   0.023  0.00  0.00    +0.071 C 
ATOM     20  C   UNL     1       2.868   7.856   0.015  0.00  0.00    +0.100 A 
ATOM     21  C   UNL     1       1.761   6.976   0.016  0.00  0.00    +0.115 A 
ATOM     22  C   UNL     1       2.333   5.731   0.010  0.00  0.00    +0.240 A 
ATOM     23  O   UNL     1       3.666   5.933  -0.003  0.00  0.00    -0.348 OA
ATOM     24  N   UNL     1       3.935   7.112   0.000  0.00  0.00    -0.081 NA
ATOM     25 CL   UNL     1       0.072   7.379   0.027  0.00  0.00    -0.077 Cl
ENDBRANCH  15  22
ENDBRANCH   1  17
TORSDOF 3
