REMARK  Name = ZINC48861786
REMARK  5 active torsions:
REMARK  status: ('A' for Active; 'I' for Inactive)
REMARK    1  A    between atoms: C_2  and  N_20
REMARK    2  A    between atoms: C_5  and  S_8
REMARK    3  A    between atoms: S_8  and  N_11
REMARK    4  A    between atoms: C_15  and  C_17
REMARK    5  A    between atoms: C_17  and  O_18
REMARK                            x       y       z     vdW  Elec       q    Type
REMARK                         _______ _______ _______ _____ _____    ______ ____
ROOT
ATOM      1  C   UNL     1      -0.017   1.378   0.010  0.00  0.00    +0.044 A 
ATOM      2  C   UNL     1       1.177   2.088   0.002  0.00  0.00    +0.027 A 
ATOM      3  C   UNL     1       2.387   1.406  -0.013  0.00  0.00    +0.044 A 
ATOM      4  C   UNL     1       2.400   0.023  -0.021  0.00  0.00    +0.070 A 
ATOM      5  C   UNL     1       1.209  -0.681  -0.014  0.00  0.00    +0.142 A 
ATOM      6  C   UNL     1       0.002  -0.004   0.002  0.00  0.00    +0.070 A 
ATOM      7 CL   UNL     1      -1.490  -0.892   0.011  0.00  0.00    -0.081 Cl
ATOM      8 CL   UNL     1       3.912  -0.830  -0.040  0.00  0.00    -0.081 Cl
ENDROOT
BRANCH   5   9
ATOM      9  S   UNL     1       1.229  -2.443  -0.024  0.00  0.00    +0.064 S 
ATOM     10  O   UNL     1      -0.017  -2.860  -0.565  0.00  0.00    -0.153 OA
ATOM     11  O   UNL     1       2.474  -2.831  -0.589  0.00  0.00    -0.153 OA
BRANCH   9  12
ATOM     12  N   UNL     1       1.250  -2.941   1.555  0.00  0.00    -0.171 NA
ATOM     13  C   UNL     1       2.458  -3.180   2.365  0.00  0.00    +0.110 C 
ATOM     14  C   UNL     1       1.992  -3.007   3.833  0.00  0.00    +0.019 C 
ATOM     15  C   UNL     1       0.570  -3.625   3.783  0.00  0.00    +0.024 C 
ATOM     16  C   UNL     1       0.066  -3.213   2.383  0.00  0.00    +0.105 C 
BRANCH  16  17
ATOM     17  C   UNL     1      -0.748  -4.354   1.770  0.00  0.00    +0.176 C 
BRANCH  17  18
ATOM     18  O   UNL     1       0.019  -5.560   1.808  0.00  0.00    -0.393 OA
ATOM     19  H   UNL     1      -0.436  -6.327   1.434  0.00  0.00    +0.209 HD
ENDBRANCH  17  18
ENDBRANCH  16  17
ENDBRANCH   9  12
ENDBRANCH   5   9
BRANCH   2  20
ATOM     20  N   UNL     1       1.161   3.484   0.009  0.00  0.00    -0.358 N 
ATOM     21  H   UNL     1       0.316   3.959   0.019  0.00  0.00    +0.142 HD
ATOM     22  H   UNL     1       1.996   3.979   0.004  0.00  0.00    +0.142 HD
ENDBRANCH   2  20
TORSDOF 5
