REMARK  Name = ZINC08314152
REMARK  7 active torsions:
REMARK  status: ('A' for Active; 'I' for Inactive)
REMARK    1  A    between atoms: C_1  and  C_2
REMARK    2  A    between atoms: C_6  and  N_9
REMARK    3  A    between atoms: C_7  and  C_8
REMARK    4  A    between atoms: C_10  and  C_12
REMARK    5  A    between atoms: C_12  and  N_13
REMARK    6  A    between atoms: C_14  and  C_16
REMARK    7  A    between atoms: C_16  and  N_17
REMARK                            x       y       z     vdW  Elec       q    Type
REMARK                         _______ _______ _______ _____ _____    ______ ____
ROOT
ATOM      1  N   UNL     1      -0.207  -6.335   3.410  0.00  0.00    -0.305 N 
ATOM      2  C   UNL     1      -0.301  -7.212   4.429  0.00  0.00    +0.231 C 
ATOM      3  O   UNL     1      -0.321  -6.812   5.574  0.00  0.00    -0.274 OA
ATOM      4  H   UNL     1      -0.192  -6.655   2.495  0.00  0.00    +0.149 HD
ENDROOT
BRANCH   1   5
ATOM      5  C   UNL     1      -0.129  -4.898   3.686  0.00  0.00    +0.200 C 
BRANCH   5   7
ATOM      6  N   UNL     1       0.052  -2.797   2.393  0.00  0.00    -0.284 N 
ATOM      7  C   UNL     1      -0.031  -4.143   2.385  0.00  0.00    +0.234 C 
ATOM      8  O   UNL     1      -0.028  -4.745   1.333  0.00  0.00    -0.274 OA
ATOM      9  H   UNL     1       0.130  -2.321   3.234  0.00  0.00    +0.155 HD
BRANCH   6  15
ATOM     10  C   UNL     1       1.206   1.236  -0.172  0.00  0.00    +0.044 C 
ATOM     11  C   UNL     1       0.577  -0.131  -0.084  0.00  0.00    -0.046 A 
ATOM     12  C   UNL     1      -0.027  -0.686  -1.198  0.00  0.00    +0.004 A 
ATOM     13  C   UNL     1      -0.605  -1.940  -1.122  0.00  0.00    +0.002 A 
ATOM     14  C   UNL     1      -0.580  -2.642   0.067  0.00  0.00    +0.023 A 
ATOM     15  C   UNL     1       0.026  -2.088   1.187  0.00  0.00    +0.037 A 
ATOM     16  C   UNL     1       0.610  -0.831   1.106  0.00  0.00    -0.026 A 
ATOM     17  C   UNL     1       1.274  -0.228   2.317  0.00  0.00    +0.046 C 
ENDBRANCH   6  15
ENDBRANCH   5   7
ENDBRANCH   1   5
BRANCH   2  18
ATOM     18  C   UNL     1      -0.383  -8.690   4.146  0.00  0.00    +0.213 C 
BRANCH  18  19
ATOM     19  N   UNL     1      -0.477  -9.425   5.410  0.00  0.00    -0.215 N 
ATOM     20  C   UNL     1       0.588  -9.871   6.111  0.00  0.00    +0.251 C 
ATOM     21  O   UNL     1       1.760  -9.745   5.828  0.00  0.00    -0.272 OA
ATOM     22  C   UNL     1       0.008 -10.557   7.320  0.00  0.00    +0.138 C 
ATOM     23  C   UNL     1       0.424 -12.033   7.375  0.00  0.00    +0.045 C 
ATOM     24  C   UNL     1       0.511 -12.289   8.897  0.00  0.00    +0.038 C 
ATOM     25  C   UNL     1       0.789 -10.934   9.514  0.00  0.00    -0.042 A 
ATOM     26  C   UNL     1       0.495  -9.934   8.600  0.00  0.00    -0.012 A 
ATOM     27  C   UNL     1       0.674  -8.608   8.954  0.00  0.00    +0.006 A 
ATOM     28  C   UNL     1       1.144  -8.278  10.211  0.00  0.00    +0.000 A 
ATOM     29  C   UNL     1       1.437  -9.276  11.121  0.00  0.00    +0.000 A 
ATOM     30  C   UNL     1       1.259 -10.601  10.772  0.00  0.00    +0.004 A 
ATOM     31  N   UNL     1      -1.440 -10.417   7.165  0.00  0.00    -0.281 N 
ATOM     32  C   UNL     1      -1.630  -9.734   6.017  0.00  0.00    +0.310 C 
ATOM     33  O   UNL     1      -2.725  -9.435   5.582  0.00  0.00    -0.252 OA
ATOM     34  H   UNL     1      -2.125 -10.746   7.767  0.00  0.00    +0.152 HD
ENDBRANCH  18  19
ENDBRANCH   2  18
TORSDOF 5
