REMARK  Name = ZINC08997637
REMARK  3 active torsions:
REMARK  status: ('A' for Active; 'I' for Inactive)
REMARK    1  A    between atoms: C_1  and  C_2
REMARK    2  A    between atoms: C_7  and  N_8
REMARK    3  A    between atoms: N_14  and  C_19
REMARK                            x       y       z     vdW  Elec       q    Type
REMARK                         _______ _______ _______ _____ _____    ______ ____
ROOT
ATOM      1  C   UNL     1      -0.018   1.503   0.010  0.00  0.00    +0.046 C 
ATOM      2  C   UNL     1       0.002  -0.004   0.002  0.00  0.00    -0.028 A 
ATOM      3  C   UNL     1       0.005  -0.659  -1.184  0.00  0.00    +0.035 A 
ATOM      4  C   UNL     1       0.024  -2.072  -1.206  0.00  0.00    +0.091 A 
ATOM      5  C   UNL     1       0.040  -2.803   0.068  0.00  0.00    +0.093 A 
ATOM      6  C   UNL     1       0.036  -2.072   1.267  0.00  0.00    +0.053 A 
ATOM      7  C   UNL     1       0.023  -0.696   1.223  0.00  0.00    +0.030 A 
ATOM      8  N   UNL     1       0.058  -4.137   0.076  0.00  0.00    -0.224 NA
ATOM      9  C   UNL     1       0.061  -4.797  -1.077  0.00  0.00    +0.189 A 
ATOM     10  N   UNL     1       0.078  -6.138  -1.117  0.00  0.00    -0.171 NA
ATOM     11  C   UNL     1       0.081  -6.780  -2.274  0.00  0.00    +0.353 A 
ATOM     12  O   UNL     1       0.096  -8.000  -2.261  0.00  0.00    -0.244 OA
ATOM     13  N   UNL     1       0.066  -6.156  -3.461  0.00  0.00    -0.255 N 
ATOM     14  C   UNL     1       0.048  -4.810  -3.552  0.00  0.00    +0.285 A 
ATOM     15  O   UNL     1       0.033  -4.199  -4.748  0.00  0.00    -0.265 OA
ATOM     16  C   UNL     1       0.045  -4.058  -2.347  0.00  0.00    +0.173 A 
ATOM     17  N   UNL     1       0.027  -2.736  -2.356  0.00  0.00    -0.237 NA
ENDROOT
BRANCH  13  18
ATOM     18  C   UNL     1       0.070  -6.955  -4.689  0.00  0.00    +0.095 C 
ATOM     19  C   UNL     1      -1.168  -7.854  -4.716  0.00  0.00    +0.025 C 
ATOM     20  C   UNL     1      -1.164  -8.689  -5.998  0.00  0.00    +0.002 C 
ATOM     21  C   UNL     1       0.097  -9.555  -6.039  0.00  0.00    +0.000 C 
ATOM     22  C   UNL     1       1.335  -8.656  -6.012  0.00  0.00    +0.002 C 
ATOM     23  C   UNL     1       1.330  -7.822  -4.729  0.00  0.00    +0.025 C 
ENDBRANCH  13  18
BRANCH   7  24
ATOM     24  N   UNL     1       0.025   0.024   2.413  0.00  0.00    -0.358 N 
ATOM     25  H   UNL     1       0.011   0.993   2.394  0.00  0.00    +0.142 HD
ATOM     26  H   UNL     1       0.039  -0.444   3.263  0.00  0.00    +0.142 HD
ENDBRANCH   7  24
TORSDOF 2
