REMARK  Name = ZINC62825404
REMARK  6 active torsions:
REMARK  status: ('A' for Active; 'I' for Inactive)
REMARK    1  A    between atoms: C_1  and  C_2
REMARK    2  A    between atoms: C_2  and  C_4
REMARK    3  A    between atoms: C_2  and  C_6
REMARK    4  A    between atoms: C_4  and  N_5
REMARK    5  A    between atoms: N_8  and  C_9
REMARK    6  A    between atoms: C_10  and  C_17
REMARK                            x       y       z     vdW  Elec       q    Type
REMARK                         _______ _______ _______ _____ _____    ______ ____
ROOT
ATOM      1  C   UNL     1       1.051  -0.846  -0.837  0.00  0.00    +0.218 C 
ATOM      2  O   UNL     1       0.729  -1.933  -1.267  0.00  0.00    -0.275 OA
ATOM      3  N   UNL     1       1.991  -0.121  -1.474  0.00  0.00    -0.284 N 
ATOM      4  H   UNL     1       2.192   0.781  -1.177  0.00  0.00    +0.155 HD
ENDROOT
BRANCH   3   5
ATOM      5  C   UNL     1       2.675  -0.666  -2.558  0.00  0.00    +0.062 A 
ATOM      6  C   UNL     1       4.079  -0.683  -2.570  0.00  0.00    +0.086 A 
ATOM      7  C   UNL     1       4.753  -1.234  -3.664  0.00  0.00    +0.032 A 
ATOM      8  C   UNL     1       4.038  -1.754  -4.721  0.00  0.00    +0.020 A 
ATOM      9  C   UNL     1       2.652  -1.735  -4.706  0.00  0.00    +0.032 A 
ATOM     10  C   UNL     1       1.972  -1.200  -3.630  0.00  0.00    +0.041 A 
ATOM     11 BR   UNL     1       0.081  -1.187  -3.619  0.00  0.00    -0.048 Br
ATOM     12 BR   UNL     1       4.952  -2.498  -6.200  0.00  0.00    -0.050 Br
BRANCH   6  13
ATOM     13  C   UNL     1       4.836  -0.125  -1.438  0.00  0.00    +0.388 C 
ATOM     14  O   UNL     1       6.056  -0.048  -1.496  0.00  0.00    -0.241 OA
ATOM     15  O   UNL     1       4.246   0.261  -0.438  0.00  0.00    -0.241 OA
ENDBRANCH   6  13
ENDBRANCH   3   5
BRANCH   1  17
ATOM     16  C   UNL     1      -0.307   1.012   0.087  0.00  0.00    +0.015 C 
ATOM     17  C   UNL     1       0.399  -0.306   0.410  0.00  0.00    +0.055 C 
BRANCH  17  18
ATOM     18  C   UNL     1      -0.624  -1.318   0.930  0.00  0.00    -0.074 C 
BRANCH  18  19
ATOM     19  N   UNL     1      -1.172  -0.847   2.209  0.00  0.00    +0.379 N 
ATOM     20  H   UNL     1      -1.847  -1.515   2.552  0.00  0.00    -0.090 HD
ATOM     21  H   UNL     1      -0.424  -0.750   2.880  0.00  0.00    -0.090 HD
ATOM     22  H   UNL     1      -1.621   0.046   2.074  0.00  0.00    -0.090 HD
ENDBRANCH  18  19
ENDBRANCH  17  18
ENDBRANCH   1  17
TORSDOF 5
