REMARK  Name = ZINC40690463
REMARK  7 active torsions:
REMARK  status: ('A' for Active; 'I' for Inactive)
REMARK    1  A    between atoms: C_1  and  C_2
REMARK    2  A    between atoms: C_2  and  O_4
REMARK    3  A    between atoms: O_4  and  C_5
REMARK    4  A    between atoms: C_7  and  C_33
REMARK    5  A    between atoms: C_9  and  C_32
REMARK    6  A    between atoms: C_24  and  C_31
REMARK    7  A    between atoms: C_27  and  O_30
REMARK                            x       y       z     vdW  Elec       q    Type
REMARK                         _______ _______ _______ _____ _____    ______ ____
ROOT
ATOM      1  C   UNL     1      -0.859  -2.149  -0.237  0.00  0.00    +0.216 C 
ATOM      2  C   UNL     1      -0.830  -2.925  -1.579  0.00  0.00    +0.071 C 
ATOM      3  C   UNL     1      -1.583  -4.236  -1.226  0.00  0.00    +0.010 C 
ATOM      4  C   UNL     1      -0.625  -5.143  -0.449  0.00  0.00    +0.010 C 
ATOM      5  C   UNL     1      -1.406  -6.273   0.222  0.00  0.00    +0.005 C 
ATOM      6  C   UNL     1      -2.366  -5.686   1.256  0.00  0.00    +0.001 C 
ATOM      7  C   UNL     1      -3.420  -4.835   0.543  0.00  0.00    +0.028 C 
ATOM      8  C   UNL     1      -2.711  -3.768  -0.287  0.00  0.00    +0.109 C 
ATOM      9  C   UNL     1      -2.264  -2.435   0.335  0.00  0.00    +0.193 C 
ATOM     10  O   UNL     1      -3.366  -2.534  -0.571  0.00  0.00    -0.360 OA
ATOM     11  C   UNL     1      -4.261  -5.723  -0.376  0.00  0.00    +0.007 C 
ATOM     12  C   UNL     1      -4.940  -6.821   0.445  0.00  0.00    +0.004 C 
ATOM     13  C   UNL     1      -3.870  -7.678   1.124  0.00  0.00    -0.002 C 
ATOM     14  C   UNL     1      -3.053  -6.806   2.033  0.00  0.00    -0.026 C 
ATOM     15  C   UNL     1      -3.968  -6.205   3.102  0.00  0.00    +0.010 C 
ATOM     16  C   UNL     1      -4.647  -7.331   3.884  0.00  0.00    +0.032 C 
ATOM     17  C   UNL     1      -5.478  -8.187   2.926  0.00  0.00    +0.115 C 
ATOM     18  C   UNL     1      -4.540  -8.792   1.929  0.00  0.00    +0.035 C 
ATOM     19  C   UNL     1      -1.993  -7.676   2.713  0.00  0.00    +0.012 C 
ATOM     20  C   UNL     1      -2.139  -4.919  -2.476  0.00  0.00    +0.015 C 
ENDROOT
BRANCH   2  21
ATOM     21  C   UNL     1      -1.556  -2.160  -2.655  0.00  0.00    -0.030 A 
ATOM     22  C   UNL     1      -1.415  -2.523  -4.006  0.00  0.00    +0.042 A 
ATOM     23  C   UNL     1      -2.070  -1.829  -4.961  0.00  0.00    +0.199 A 
ATOM     24  O   UNL     1      -2.858  -0.793  -4.642  0.00  0.00    -0.431 OA
ATOM     25  C   UNL     1      -3.021  -0.413  -3.364  0.00  0.00    +0.337 A 
ATOM     26  O   UNL     1      -3.742   0.533  -3.096  0.00  0.00    -0.245 OA
ATOM     27  C   UNL     1      -2.363  -1.109  -2.334  0.00  0.00    +0.096 A 
ENDBRANCH   2  21
BRANCH  17  28
ATOM     28  O   UNL     1      -6.115  -9.237   3.656  0.00  0.00    -0.392 OA
ATOM     29  H   UNL     1      -6.711  -8.927   4.352  0.00  0.00    +0.210 HD
ENDBRANCH  17  28
BRANCH   1  30
ATOM     30  O   UNL     1      -0.688  -0.748  -0.466  0.00  0.00    -0.458 OA
BRANCH  30  32
ATOM     31  C   UNL     1       0.822   1.199  -0.624  0.00  0.00    +0.136 C 
ATOM     32  C   UNL     1       0.564  -0.268  -0.395  0.00  0.00    +0.304 C 
ATOM     33  O   UNL     1       1.483  -1.012  -0.148  0.00  0.00    -0.251 OA
ENDBRANCH  30  32
ENDBRANCH   1  30
TORSDOF 4
