REMARK  Name = ZINC66926514
REMARK  10 active torsions:
REMARK  status: ('A' for Active; 'I' for Inactive)
REMARK    1  A    between atoms: C_1  and  C_2
REMARK    2  A    between atoms: C_2  and  C_3
REMARK    3  A    between atoms: C_2  and  N_4
REMARK    4  A    between atoms: N_4  and  C_5
REMARK    5  A    between atoms: N_4  and  C_26
REMARK    6  A    between atoms: C_5  and  C_6
REMARK    7  A    between atoms: C_6  and  N_7
REMARK    8  A    between atoms: C_13  and  N_16
REMARK    9  A    between atoms: C_17  and  C_19
REMARK   10  A    between atoms: C_19  and  C_20
REMARK                            x       y       z     vdW  Elec       q    Type
REMARK                         _______ _______ _______ _____ _____    ______ ____
ROOT
ATOM      1  N   UNL     1      -5.106  -3.985   0.095  0.00  0.00    -0.301 N 
ATOM      2  C   UNL     1      -3.950  -4.632  -0.154  0.00  0.00    +0.302 C 
ATOM      3  O   UNL     1      -2.931  -4.000  -0.356  0.00  0.00    -0.253 OA
ATOM      4  N   UNL     1      -3.924  -5.979  -0.180  0.00  0.00    -0.286 N 
ATOM      5  C   UNL     1      -2.653  -6.701  -0.331  0.00  0.00    +0.111 C 
ATOM      6  C   UNL     1      -2.522  -7.712   0.812  0.00  0.00    +0.041 C 
ATOM      7  C   UNL     1      -3.758  -8.615   0.834  0.00  0.00    +0.076 C 
ATOM      8  C   UNL     1      -5.007  -7.766   1.081  0.00  0.00    +0.041 C 
ATOM      9  C   UNL     1      -5.165  -6.755  -0.053  0.00  0.00    +0.111 C 
ATOM     10  H   UNL     1      -5.934  -4.485   0.176  0.00  0.00    +0.150 HD
ENDROOT
BRANCH   7  11
ATOM     11  N   UNL     1      -3.621  -9.605   1.905  0.00  0.00    -0.312 N 
ATOM     12  C   UNL     1      -4.278 -10.779   1.825  0.00  0.00    +0.214 C 
ATOM     13  O   UNL     1      -4.983 -11.015   0.867  0.00  0.00    -0.276 OA
ATOM     14  H   UNL     1      -3.057  -9.415   2.671  0.00  0.00    +0.149 HD
BRANCH  12  15
ATOM     15  C   UNL     1      -4.137 -11.797   2.927  0.00  0.00    +0.099 C 
BRANCH  15  16
ATOM     16  C   UNL     1      -4.980 -13.030   2.593  0.00  0.00    -0.002 C 
ATOM     17  C   UNL     1      -6.461 -12.647   2.582  0.00  0.00    +0.004 C 
ATOM     18  C   UNL     1      -7.304 -13.880   2.248  0.00  0.00    +0.000 C 
ATOM     19  C   UNL     1      -7.064 -14.963   3.302  0.00  0.00    +0.000 C 
ATOM     20  C   UNL     1      -5.583 -15.345   3.313  0.00  0.00    +0.000 C 
ATOM     21  C   UNL     1      -4.740 -14.112   3.647  0.00  0.00    +0.004 C 
ENDBRANCH  15  16
ENDBRANCH  12  15
ENDBRANCH   7  11
BRANCH   1  22
ATOM     22  C   UNL     1      -5.113  -2.528   0.243  0.00  0.00    +0.087 C 
BRANCH  22  23
ATOM     23  C   UNL     1      -6.540  -2.050   0.519  0.00  0.00    -0.059 C 
BRANCH  23  24
ATOM     24  N   UNL     1      -6.567  -0.581   0.550  0.00  0.00    +0.384 N 
ATOM     25  H   UNL     1      -7.516  -0.265   0.681  0.00  0.00    -0.081 HD
BRANCH  24  27
ATOM     26  C   UNL     1      -5.760   1.430   1.691  0.00  0.00    -0.014 C 
ATOM     27  C   UNL     1      -5.732  -0.100   1.659  0.00  0.00    -0.074 C 
ATOM     28  C   UNL     1      -6.274  -0.648   2.980  0.00  0.00    -0.014 C 
ENDBRANCH  24  27
BRANCH  24  29
ATOM     29  C   UNL     1      -6.046  -0.055  -0.719  0.00  0.00    -0.068 C 
ATOM     30  C   UNL     1      -6.838   1.065  -1.397  0.00  0.00    -0.017 C 
ATOM     31  C   UNL     1      -6.850  -0.346  -1.988  0.00  0.00    -0.017 C 
ENDBRANCH  24  29
ENDBRANCH  23  24
ENDBRANCH  22  23
ENDBRANCH   1  22
TORSDOF 8
