REMARK  Name = ZINC04244082
REMARK  4 active torsions:
REMARK  status: ('A' for Active; 'I' for Inactive)
REMARK    1  A    between atoms: C_1  and  C_2
REMARK    2  A    between atoms: C_9  and  C_18
REMARK    3  A    between atoms: C_10  and  C_11
REMARK    4  A    between atoms: N_16  and  N_17
REMARK                            x       y       z     vdW  Elec       q    Type
REMARK                         _______ _______ _______ _____ _____    ______ ____
ROOT
ATOM      1  C   UNL     1       0.345   2.638   5.349  0.00  0.00    +0.047 C 
ATOM      2  C   UNL     1      -0.981   2.634   4.635  0.00  0.00    -0.008 A 
ATOM      3  C   UNL     1      -2.114   3.012   5.287  0.00  0.00    +0.008 A 
ATOM      4  C   UNL     1      -3.345   3.003   4.609  0.00  0.00    +0.018 A 
ATOM      5  C   UNL     1      -3.406   2.623   3.316  0.00  0.00    +0.093 A 
ATOM      6  N   UNL     1      -2.277   2.242   2.649  0.00  0.00    -0.298 N 
ATOM      7  C   UNL     1      -1.061   2.240   3.284  0.00  0.00    +0.141 A 
ATOM      8  N   UNL     1      -0.141   1.833   2.420  0.00  0.00    -0.232 NA
ATOM      9  C   UNL     1      -0.718   1.572   1.248  0.00  0.00    +0.066 A 
ATOM     10  C   UNL     1      -2.055   1.824   1.358  0.00  0.00    +0.095 A 
ATOM     11  C   UNL     1      -0.013   1.086   0.008  0.00  0.00    +0.068 C 
ENDROOT
BRANCH  10  12
ATOM     12  C   UNL     1      -3.070   1.673   0.293  0.00  0.00    +0.099 A 
ATOM     13  C   UNL     1      -4.382   1.458   0.614  0.00  0.00    +0.078 A 
ATOM     14  S   UNL     1      -5.113   1.360  -1.014  0.00  0.00    -0.059 S 
ATOM     15  C   UNL     1      -3.612   1.613  -1.951  0.00  0.00    +0.172 A 
ATOM     16  N   UNL     1      -2.719   1.751  -0.989  0.00  0.00    -0.222 NA
ATOM     17  N   UNL     1      -3.435   1.659  -3.325  0.00  0.00    -0.262 N 
ATOM     18  H   UNL     1      -2.550   1.806  -3.695  0.00  0.00    +0.168 HD
BRANCH  17  19
ATOM     19  N   UNL     1      -4.505   1.497  -4.157  0.00  0.00    -0.255 NA
ATOM     20  H   UNL     1      -5.229   2.169  -3.951  0.00  0.00    +0.140 HD
ATOM     21  H   UNL     1      -4.223   1.554  -5.125  0.00  0.00    +0.140 HD
ENDBRANCH  17  19
ENDBRANCH  10  12
TORSDOF 2
