REMARK  Name = ZINC06243776
REMARK  3 active torsions:
REMARK  status: ('A' for Active; 'I' for Inactive)
REMARK    1  A    between atoms: C_7  and  C_11
REMARK    2  A    between atoms: N_12  and  N_13
REMARK    3  A    between atoms: C_14  and  C_15
REMARK                            x       y       z     vdW  Elec       q    Type
REMARK                         _______ _______ _______ _____ _____    ______ ____
ROOT
ATOM      1  C   UNL     1       1.609   4.236   0.009  0.00  0.00    +0.145 C 
ATOM      2  N   UNL     1       1.104   5.444   0.021  0.00  0.00    -0.155 NA
ENDROOT
BRANCH   1   9
ATOM      3  C   UNL     1      -3.049   3.770   0.051  0.00  0.00    +0.001 A 
ATOM      4  C   UNL     1      -3.446   2.440   0.048  0.00  0.00    +0.002 A 
ATOM      5  C   UNL     1      -2.511   1.429   0.033  0.00  0.00    +0.026 A 
ATOM      6  C   UNL     1      -1.154   1.738   0.016  0.00  0.00    +0.047 A 
ATOM      7  C   UNL     1      -0.754   3.084   0.026  0.00  0.00    +0.008 A 
ATOM      8  C   UNL     1      -1.711   4.096   0.040  0.00  0.00    +0.010 A 
ATOM      9  C   UNL     1       0.720   3.070   0.012  0.00  0.00    +0.020 A 
ATOM     10  C   UNL     1       1.095   1.758   0.001  0.00  0.00    +0.093 A 
ATOM     11  N   UNL     1      -0.011   0.966   0.007  0.00  0.00    -0.360 N 
ATOM     12  H   UNL     1       0.002  -0.004   0.002  0.00  0.00    +0.165 HD
ENDBRANCH   1   9
BRANCH   2  13
ATOM     13  N   UNL     1       1.886   6.470   0.019  0.00  0.00    -0.132 NA
ATOM     14  C   UNL     1       1.379   7.681   0.031  0.00  0.00    +0.164 C 
ATOM     15  N   UNL     1       0.007   7.857   0.046  0.00  0.00    -0.340 N 
ATOM     16  H   UNL     1      -0.580   7.086   0.047  0.00  0.00    +0.144 HD
ATOM     17  H   UNL     1      -0.367   8.752   0.054  0.00  0.00    +0.144 HD
BRANCH  14  18
ATOM     18  C   UNL     1       2.274   8.856   0.029  0.00  0.00    +0.105 A 
ATOM     19  C   UNL     1       3.658   8.672   0.014  0.00  0.00    +0.031 A 
ATOM     20  C   UNL     1       4.483   9.783   0.012  0.00  0.00    +0.004 A 
ATOM     21  C   UNL     1       3.900  11.042   0.024  0.00  0.00    +0.020 A 
ATOM     22  C   UNL     1       2.520  11.152   0.039  0.00  0.00    +0.111 A 
ATOM     23  N   UNL     1       1.756  10.080   0.035  0.00  0.00    -0.252 NA
ENDBRANCH  14  18
ENDBRANCH   2  13
TORSDOF 3
