REMARK  Name = ZINC62870769
REMARK  5 active torsions:
REMARK  status: ('A' for Active; 'I' for Inactive)
REMARK    1  A    between atoms: C_1  and  C_2
REMARK    2  A    between atoms: C_2  and  C_3
REMARK    3  A    between atoms: C_3  and  C_18
REMARK    4  A    between atoms: C_9  and  C_11
REMARK    5  A    between atoms: C_11  and  N_17
REMARK                            x       y       z     vdW  Elec       q    Type
REMARK                         _______ _______ _______ _____ _____    ______ ____
ROOT
ATOM      1  C   UNL     1       0.709  -0.518  -1.358  0.00  0.00    +0.087 C 
ATOM      2  C   UNL     1      -0.017  -0.075  -2.630  0.00  0.00    +0.021 C 
ATOM      3  C   UNL     1      -1.458  -0.588  -2.603  0.00  0.00    +0.020 C 
ATOM      4  C   UNL     1      -1.450  -2.119  -2.559  0.00  0.00    +0.108 C 
ATOM      5  N   UNL     1      -0.632  -2.555  -1.419  0.00  0.00    -0.302 N 
ATOM      6  C   UNL     1       0.742  -2.049  -1.300  0.00  0.00    +0.126 C 
ATOM      7  C   UNL     1      -1.133  -3.405  -0.500  0.00  0.00    +0.204 C 
ATOM      8  O   UNL     1      -0.417  -3.840   0.377  0.00  0.00    -0.277 OA
ENDROOT
BRANCH   7   9
ATOM      9  C   UNL     1      -2.582  -3.813  -0.562  0.00  0.00    +0.007 C 
ATOM     10  C   UNL     1      -2.908  -4.718   0.628  0.00  0.00    -0.004 C 
ATOM     11  C   UNL     1      -2.024  -5.966   0.577  0.00  0.00    -0.001 C 
ATOM     12  C   UNL     1      -2.285  -6.723  -0.726  0.00  0.00    -0.000 C 
ATOM     13  C   UNL     1      -1.959  -5.818  -1.916  0.00  0.00    -0.001 C 
ATOM     14  C   UNL     1      -2.843  -4.570  -1.865  0.00  0.00    -0.004 C 
BRANCH   9  15
ATOM     15  N   UNL     1      -3.431  -2.615  -0.513  0.00  0.00    +0.388 N 
ATOM     16  H   UNL     1      -3.273  -2.057  -1.338  0.00  0.00    -0.089 HD
ATOM     17  H   UNL     1      -4.401  -2.892  -0.475  0.00  0.00    -0.089 HD
ATOM     18  H   UNL     1      -3.203  -2.075   0.308  0.00  0.00    -0.089 HD
ENDBRANCH   9  15
ENDBRANCH   7   9
BRANCH   1  19
ATOM     19  C   UNL     1       2.119   0.015  -1.371  0.00  0.00    +0.364 C 
ATOM     20  O   UNL     1       2.497   0.759  -0.482  0.00  0.00    -0.246 OA
ATOM     21  O   UNL     1       2.881  -0.298  -2.269  0.00  0.00    -0.246 OA
ENDBRANCH   1  19
BRANCH   1  23
ATOM     22  C   UNL     1      -0.063   1.552  -0.191  0.00  0.00    +0.005 C 
ATOM     23  C   UNL     1      -0.031   0.024  -0.133  0.00  0.00    +0.016 C 
ENDBRANCH   1  23
TORSDOF 4
