REMARK  Name = ZINC39678856
REMARK  8 active torsions:
REMARK  status: ('A' for Active; 'I' for Inactive)
REMARK    1  A    between atoms: C_1  and  C_2
REMARK    2  A    between atoms: C_2  and  C_3
REMARK    3  A    between atoms: C_2  and  O_4
REMARK    4  A    between atoms: O_4  and  C_5
REMARK    5  A    between atoms: C_5  and  C_7
REMARK    6  A    between atoms: C_7  and  N_8
REMARK    7  A    between atoms: C_9  and  C_11
REMARK    8  A    between atoms: C_22  and  C_24
REMARK                            x       y       z     vdW  Elec       q    Type
REMARK                         _______ _______ _______ _____ _____    ______ ____
ROOT
ATOM      1  C   UNL     1      -4.032  -5.571  -2.210  0.00  0.00    +0.100 C 
ATOM      2  C   UNL     1      -3.732  -5.350  -3.709  0.00  0.00    +0.121 C 
ATOM      3  N   UNL     1      -4.574  -6.348  -4.410  0.00  0.00    -0.300 N 
ATOM      4  C   UNL     1      -5.849  -6.352  -3.654  0.00  0.00    +0.115 C 
ATOM      5  C   UNL     1      -5.423  -6.228  -2.178  0.00  0.00    -0.004 C 
ATOM      6  C   UNL     1      -6.407  -5.345  -1.417  0.00  0.00    -0.010 C 
ATOM      7  C   UNL     1      -7.767  -6.045  -1.348  0.00  0.00    -0.082 C 
ATOM      8  N   UNL     1      -7.619  -7.340  -0.674  0.00  0.00    +0.379 N 
ATOM      9  C   UNL     1      -6.743  -8.217  -1.461  0.00  0.00    -0.082 C 
ATOM     10  C   UNL     1      -5.340  -7.609  -1.534  0.00  0.00    -0.010 C 
ATOM     11  C   UNL     1      -4.253  -7.086  -5.492  0.00  0.00    +0.219 C 
ATOM     12  O   UNL     1      -5.058  -7.867  -5.954  0.00  0.00    -0.275 OA
ATOM     13  H   UNL     1      -7.216  -7.198   0.240  0.00  0.00    -0.086 HD
ATOM     14  H   UNL     1      -8.525  -7.773  -0.575  0.00  0.00    -0.086 HD
ENDROOT
BRANCH  11  15
ATOM     15  C   UNL     1      -2.893  -6.941  -6.126  0.00  0.00    +0.079 C 
ATOM     16  C   UNL     1      -2.703  -5.499  -6.604  0.00  0.00    +0.041 C 
ATOM     17  C   UNL     1      -1.353  -5.380  -7.317  0.00  0.00    +0.160 C 
ATOM     18  O   UNL     1      -1.307  -6.306  -8.405  0.00  0.00    -0.380 OA
ATOM     19  C   UNL     1      -1.433  -7.674  -8.012  0.00  0.00    +0.160 C 
ATOM     20  C   UNL     1      -2.786  -7.885  -7.328  0.00  0.00    +0.041 C 
ENDBRANCH  11  15
BRANCH   1  22
ATOM     21  N   UNL     1      -3.729  -4.200  -0.174  0.00  0.00    -0.305 N 
ATOM     22  C   UNL     1      -4.058  -4.253  -1.480  0.00  0.00    +0.219 C 
ATOM     23  O   UNL     1      -4.374  -3.240  -2.067  0.00  0.00    -0.275 OA
ATOM     24  H   UNL     1      -3.477  -5.010   0.297  0.00  0.00    +0.149 HD
BRANCH  21  25
ATOM     25  C   UNL     1      -3.754  -2.918   0.536  0.00  0.00    +0.224 C 
BRANCH  25  26
ATOM     26  C   UNL     1      -3.349  -3.131   1.972  0.00  0.00    +0.325 C 
ATOM     27  O   UNL     1      -3.069  -4.240   2.362  0.00  0.00    -0.249 OA
BRANCH  26  28
ATOM     28  O   UNL     1      -3.300  -2.090   2.817  0.00  0.00    -0.461 OA
BRANCH  28  30
ATOM     29  C   UNL     1      -2.201  -1.140   4.749  0.00  0.00    +0.052 C 
ATOM     30  C   UNL     1      -2.908  -2.364   4.163  0.00  0.00    +0.170 C 
ATOM     31  C   UNL     1      -4.148  -2.686   5.000  0.00  0.00    +0.052 C 
ENDBRANCH  28  30
ENDBRANCH  26  28
ENDBRANCH  25  26
ENDBRANCH  21  25
ENDBRANCH   1  22
TORSDOF 6
