REMARK  Name = ZINC39159022
REMARK  6 active torsions:
REMARK  status: ('A' for Active; 'I' for Inactive)
REMARK    1  A    between atoms: C_1  and  C_2
REMARK    2  A    between atoms: C_2  and  O_3
REMARK    3  A    between atoms: O_3  and  C_4
REMARK    4  A    between atoms: C_11  and  N_14
REMARK    5  A    between atoms: N_17  and  C_18
REMARK    6  A    between atoms: C_18  and  C_19
REMARK                            x       y       z     vdW  Elec       q    Type
REMARK                         _______ _______ _______ _____ _____    ______ ____
ROOT
ATOM      1  N   UNL     1       3.073  -7.111  -2.830  0.00  0.00    -0.272 N 
ATOM      2  C   UNL     1       3.770  -7.701  -3.821  0.00  0.00    +0.302 C 
ATOM      3  O   UNL     1       3.385  -7.613  -4.971  0.00  0.00    -0.253 OA
ATOM      4  N   UNL     1       4.893  -8.390  -3.537  0.00  0.00    -0.294 N 
ATOM      5  H   UNL     1       3.379  -7.181  -1.913  0.00  0.00    +0.153 HD
ATOM      6  H   UNL     1       5.200  -8.460  -2.619  0.00  0.00    +0.151 HD
ENDROOT
BRANCH   1  14
ATOM      7  C   UNL     1       0.777  -1.811  -1.336  0.00  0.00    +0.122 A 
ATOM      8  C   UNL     1       0.247  -2.679  -0.393  0.00  0.00    +0.047 A 
ATOM      9  C   UNL     1       0.349  -4.042  -0.548  0.00  0.00    +0.027 A 
ATOM     10  C   UNL     1       0.992  -4.604  -1.665  0.00  0.00    +0.043 A 
ATOM     11  C   UNL     1       1.516  -3.705  -2.599  0.00  0.00    +0.035 A 
ATOM     12  C   UNL     1       1.413  -2.340  -2.452  0.00  0.00    +0.062 A 
ATOM     13  S   UNL     1       2.248  -4.720  -3.862  0.00  0.00    -0.082 S 
ATOM     14  C   UNL     1       1.852  -6.362  -3.139  0.00  0.00    +0.225 C 
ATOM     15  N   UNL     1       1.146  -5.970  -1.911  0.00  0.00    -0.316 N 
ATOM     16  H   UNL     1       0.801  -6.635  -1.295  0.00  0.00    +0.149 HD
BRANCH   7  17
ATOM     17  O   UNL     1       0.671  -0.465  -1.174  0.00  0.00    -0.492 OA
BRANCH  17  19
ATOM     18  C   UNL     1      -0.019   1.526   0.010  0.00  0.00    +0.048 C 
ATOM     19  C   UNL     1       0.002  -0.004   0.002  0.00  0.00    +0.225 C 
ENDBRANCH  17  19
ENDBRANCH   7  17
ENDBRANCH   1  14
BRANCH   4  20
ATOM     20  C   UNL     1       5.651  -9.032  -4.614  0.00  0.00    +0.159 C 
BRANCH  20  21
ATOM     21  C   UNL     1       6.854  -9.730  -4.035  0.00  0.00    +0.034 A 
ATOM     22  H   UNL     1       8.267  -8.203  -3.943  0.00  0.00    +0.166 HD
ATOM     23  C   UNL     1       6.903 -11.029  -3.698  0.00  0.00    +0.032 A 
ATOM     24  C   UNL     1       8.248 -11.287  -3.179  0.00  0.00    -0.000 A 
ATOM     25  C   UNL     1       8.896 -12.419  -2.682  0.00  0.00    +0.010 A 
ATOM     26  C   UNL     1      10.194 -12.329  -2.264  0.00  0.00    +0.001 A 
ATOM     27  C   UNL     1      10.874 -11.121  -2.331  0.00  0.00    +0.002 A 
ATOM     28  C   UNL     1      10.254  -9.991  -2.819  0.00  0.00    +0.026 A 
ATOM     29  C   UNL     1       8.933 -10.060  -3.249  0.00  0.00    +0.047 A 
ATOM     30  N   UNL     1       8.059  -9.136  -3.779  0.00  0.00    -0.357 N 
ENDBRANCH  20  21
ENDBRANCH   4  20
TORSDOF 5
