REMARK  Name = ZINC05602318
REMARK  3 active torsions:
REMARK  status: ('A' for Active; 'I' for Inactive)
REMARK    1  A    between atoms: C_1  and  C_2
REMARK    2  A    between atoms: N_4  and  N_5
REMARK    3  A    between atoms: C_7  and  N_13
REMARK                            x       y       z     vdW  Elec       q    Type
REMARK                         _______ _______ _______ _____ _____    ______ ____
ROOT
ATOM      1  N   UNL     1       0.002  -0.004   0.002  0.00  0.00    -0.247 N 
ATOM      2  C   UNL     1       1.214  -0.682  -0.013  0.00  0.00    +0.160 A 
ATOM      3  C   UNL     1       1.246  -2.083  -0.015  0.00  0.00    +0.104 A 
ATOM      4  C   UNL     1       2.484  -2.710  -0.036  0.00  0.00    +0.155 A 
ATOM      5  N   UNL     1       3.584  -1.967  -0.043  0.00  0.00    -0.222 NA
ATOM      6  C   UNL     1       3.515  -0.652  -0.035  0.00  0.00    +0.225 A 
ATOM      7  N   UNL     1       2.362  -0.013  -0.021  0.00  0.00    -0.218 NA
ATOM      8 CL   UNL     1       2.593  -4.443  -0.047  0.00  0.00    -0.060 Cl
ATOM      9  H   UNL     1      -0.831  -0.500   0.007  0.00  0.00    +0.172 HD
ENDROOT
BRANCH   1  13
ATOM     10  C   UNL     1      -1.214   3.562   0.027  0.00  0.00    +0.110 C 
ATOM     11  C   UNL     1      -1.193   2.055   0.019  0.00  0.00    +0.226 C 
ATOM     12  O   UNL     1      -2.235   1.434   0.020  0.00  0.00    -0.275 OA
ATOM     13  N   UNL     1      -0.017   1.397   0.010  0.00  0.00    -0.236 N 
ATOM     14  H   UNL     1       0.816   1.893   0.004  0.00  0.00    +0.173 HD
ENDBRANCH   1  13
BRANCH   3  15
ATOM     15  N   UNL     1       0.061  -2.830  -0.002  0.00  0.00    -0.353 N 
ATOM     16  H   UNL     1      -0.797  -2.378   0.010  0.00  0.00    +0.143 HD
ATOM     17  H   UNL     1       0.099  -3.799  -0.003  0.00  0.00    +0.143 HD
ENDBRANCH   3  15
TORSDOF 2
