REMARK  Name = ZINC13146646
REMARK  7 active torsions:
REMARK  status: ('A' for Active; 'I' for Inactive)
REMARK    1  A    between atoms: C_1  and  C_2
REMARK    2  A    between atoms: C_2  and  O_3
REMARK    3  A    between atoms: O_3  and  C_4
REMARK    4  A    between atoms: C_4  and  C_6
REMARK    5  A    between atoms: N_7  and  C_8
REMARK    6  A    between atoms: N_16  and  N_17
REMARK    7  A    between atoms: N_17  and  C_18
REMARK                            x       y       z     vdW  Elec       q    Type
REMARK                         _______ _______ _______ _____ _____    ______ ____
ROOT
ATOM      1  C   UNL     1       1.376  -2.333  -2.519  0.00  0.00    +0.196 C 
ATOM      2  N   UNL     1       1.309  -3.702  -2.800  0.00  0.00    -0.319 N 
ATOM      3  N   UNL     1       1.949  -1.519  -3.365  0.00  0.00    -0.288 N 
ATOM      4  H   UNL     1       1.756  -4.059  -3.583  0.00  0.00    +0.148 HD
ATOM      5  H   UNL     1       2.081  -0.588  -3.129  0.00  0.00    +0.186 HD
ENDROOT
BRANCH   2   6
ATOM      6  C   UNL     1       0.565  -4.597  -1.910  0.00  0.00    +0.094 C 
ATOM      7  C   UNL     1       1.464  -5.033  -0.741  0.00  0.00    +0.046 C 
ATOM      8  C   UNL     1       0.808  -6.212   0.018  0.00  0.00    +0.168 C 
ATOM      9  S   UNL     1      -0.194  -7.027  -1.291  0.00  0.00    -0.029 S 
ATOM     10  O   UNL     1       0.380  -8.292  -1.593  0.00  0.00    -0.174 OA
ATOM     11  O   UNL     1      -1.568  -6.949  -0.937  0.00  0.00    -0.174 OA
ATOM     12  C   UNL     1       0.133  -5.872  -2.689  0.00  0.00    +0.188 C 
ENDBRANCH   2   6
BRANCH   1  13
ATOM     13  C   UNL     1       0.801  -1.810  -1.274  0.00  0.00    +0.372 C 
ATOM     14  O   UNL     1       0.339  -2.576  -0.449  0.00  0.00    -0.242 OA
BRANCH  13  15
ATOM     15  O   UNL     1       0.786  -0.481  -1.043  0.00  0.00    -0.460 OA
BRANCH  15  17
ATOM     16  C   UNL     1       0.285   1.483   0.273  0.00  0.00    +0.048 C 
ATOM     17  C   UNL     1       0.212  -0.043   0.190  0.00  0.00    +0.229 C 
ENDBRANCH  15  17
ENDBRANCH  13  15
ENDBRANCH   1  13
BRANCH   3  18
ATOM     18  N   UNL     1       2.373  -1.993  -4.613  0.00  0.00    -0.259 N 
ATOM     19  H   UNL     1       2.312  -2.938  -4.820  0.00  0.00    +0.172 HD
BRANCH  18  20
ATOM     20  C   UNL     1       2.884  -1.104  -5.560  0.00  0.00    +0.046 A 
ATOM     21  C   UNL     1       2.978   0.251  -5.263  0.00  0.00    +0.026 A 
ATOM     22  C   UNL     1       3.484   1.128  -6.202  0.00  0.00    +0.017 A 
ATOM     23  C   UNL     1       3.897   0.660  -7.437  0.00  0.00    +0.018 A 
ATOM     24  C   UNL     1       3.806  -0.688  -7.735  0.00  0.00    +0.017 A 
ATOM     25  C   UNL     1       3.306  -1.572  -6.799  0.00  0.00    +0.026 A 
ATOM     26 BR   UNL     1       4.589   1.865  -8.719  0.00  0.00    -0.050 Br
ENDBRANCH  18  20
ENDBRANCH   3  18
TORSDOF 6
