REMARK  Name = ZINC37910159
REMARK  4 active torsions:
REMARK  status: ('A' for Active; 'I' for Inactive)
REMARK    1  A    between atoms: C_1  and  C_2
REMARK    2  A    between atoms: C_6  and  N_12
REMARK    3  A    between atoms: C_7  and  N_11
REMARK    4  A    between atoms: C_16  and  C_18
REMARK                            x       y       z     vdW  Elec       q    Type
REMARK                         _______ _______ _______ _____ _____    ______ ____
ROOT
ATOM      1  C   UNL     1      -0.018   1.503   0.010  0.00  0.00    +0.073 C 
ATOM      2  C   UNL     1       0.002  -0.004   0.002  0.00  0.00    +0.076 A 
ATOM      3  N   UNL     1      -1.015  -0.815   0.002  0.00  0.00    -0.244 NA
ATOM      4  C   UNL     1      -0.864  -2.157  -0.006  0.00  0.00    +0.080 A 
ATOM      5  C   UNL     1      -1.843  -3.175  -0.007  0.00  0.00    +0.053 A 
ATOM      6  C   UNL     1      -1.473  -4.499  -0.015  0.00  0.00    +0.053 A 
ATOM      7  C   UNL     1      -0.125  -4.875  -0.023  0.00  0.00    +0.047 A 
ATOM      8  C   UNL     1       0.855  -3.894  -0.022  0.00  0.00    +0.041 A 
ATOM      9  C   UNL     1       0.486  -2.570  -0.014  0.00  0.00    +0.041 A 
ATOM     10  S   UNL     1       1.346  -1.018  -0.017  0.00  0.00    -0.072 S 
ENDROOT
BRANCH   6  11
ATOM     11  N   UNL     1      -2.464  -5.490  -0.014  0.00  0.00    -0.326 N 
ATOM     12  C   UNL     1      -3.070  -6.099   1.184  0.00  0.00    +0.105 C 
ATOM     13  C   UNL     1      -4.452  -6.614   0.711  0.00  0.00    +0.021 C 
ATOM     14  C   UNL     1      -4.126  -7.111  -0.722  0.00  0.00    +0.023 C 
ATOM     15  C   UNL     1      -3.076  -6.091  -1.209  0.00  0.00    +0.070 C 
ATOM     16  C   UNL     1      -2.006  -6.804  -2.038  0.00  0.00    +0.028 C 
ENDBRANCH   6  11
BRANCH   7  17
ATOM     17  N   UNL     1       0.231  -6.230  -0.030  0.00  0.00    -0.357 N 
ATOM     18  H   UNL     1      -0.458  -6.913  -0.030  0.00  0.00    +0.142 HD
ATOM     19  H   UNL     1       1.167  -6.486  -0.036  0.00  0.00    +0.142 HD
ENDBRANCH   7  17
TORSDOF 2
