REMARK  Name = ZINC38966286
REMARK  6 active torsions:
REMARK  status: ('A' for Active; 'I' for Inactive)
REMARK    1  A    between atoms: C_1  and  C_2
REMARK    2  A    between atoms: C_2  and  C_3
REMARK    3  A    between atoms: C_8  and  N_9
REMARK    4  A    between atoms: N_9  and  C_10
REMARK    5  A    between atoms: N_13  and  S_14
REMARK    6  A    between atoms: S_14  and  C_17
REMARK                            x       y       z     vdW  Elec       q    Type
REMARK                         _______ _______ _______ _____ _____    ______ ____
ROOT
ATOM      1  C   UNL     1      -2.047  -0.600   3.743  0.00  0.00    +0.235 C 
ATOM      2  C   UNL     1      -3.251  -1.444   3.391  0.00  0.00    +0.170 C 
ATOM      3  N   UNL     1      -3.102  -2.595   2.805  0.00  0.00    -0.111 NA
ATOM      4  N   UNL     1      -4.477  -0.987   3.693  0.00  0.00    -0.338 N 
ATOM      5  C   UNL     1      -4.654   0.175   4.287  0.00  0.00    +0.064 A 
ATOM      6  C   UNL     1      -5.964   0.626   4.590  0.00  0.00    +0.028 A 
ATOM      7  C   UNL     1      -6.151   1.818   5.198  0.00  0.00    +0.002 A 
ATOM      8  C   UNL     1      -5.088   2.663   5.558  0.00  0.00    +0.002 A 
ATOM      9  C   UNL     1      -3.802   2.330   5.314  0.00  0.00    +0.027 A 
ATOM     10  C   UNL     1      -3.512   1.048   4.655  0.00  0.00    +0.061 A 
ATOM     11  N   UNL     1      -2.284   0.693   4.405  0.00  0.00    -0.359 N 
ATOM     12  H   UNL     1      -1.542   1.268   4.649  0.00  0.00    +0.162 HD
ATOM     13  H   UNL     1      -5.251  -1.526   3.469  0.00  0.00    +0.167 HD
ENDROOT
BRANCH   3  14
ATOM     14  S   UNL     1      -4.429  -3.509   2.426  0.00  0.00    +0.107 S 
ATOM     15  O   UNL     1      -5.017  -3.903   3.659  0.00  0.00    -0.146 OA
ATOM     16  O   UNL     1      -5.149  -2.789   1.435  0.00  0.00    -0.146 OA
BRANCH  14  17
ATOM     17  C   UNL     1      -3.845  -4.981   1.654  0.00  0.00    +0.150 A 
ATOM     18  C   UNL     1      -3.511  -6.167   2.219  0.00  0.00    +0.037 A 
ATOM     19  C   UNL     1      -3.072  -7.196   1.407  0.00  0.00    +0.010 A 
ATOM     20  C   UNL     1      -2.988  -6.989   0.070  0.00  0.00    +0.047 A 
ATOM     21  S   UNL     1      -3.546  -5.300  -0.077  0.00  0.00    -0.076 S 
ENDBRANCH  14  17
ENDBRANCH   3  14
BRANCH   1  22
ATOM     22  N   UNL     1      -1.307  -0.339   2.506  0.00  0.00    -0.318 N 
ATOM     23  H   UNL     1      -1.768   0.016   1.730  0.00  0.00    +0.148 HD
BRANCH  22  29
ATOM     24  C   UNL     1       0.739  -0.489   1.234  0.00  0.00    -0.027 A 
ATOM     25  C   UNL     1       2.095  -0.745   1.177  0.00  0.00    +0.005 A 
ATOM     26  C   UNL     1       2.779  -1.121   2.318  0.00  0.00    +0.000 A 
ATOM     27  C   UNL     1       2.108  -1.241   3.522  0.00  0.00    +0.002 A 
ATOM     28  C   UNL     1       0.752  -0.986   3.587  0.00  0.00    +0.023 A 
ATOM     29  C   UNL     1       0.063  -0.603   2.442  0.00  0.00    +0.032 A 
BRANCH  24  31
ATOM     30  C   UNL     1      -0.084   1.446  -0.079  0.00  0.00    +0.009 C 
ATOM     31  C   UNL     1      -0.005  -0.080  -0.011  0.00  0.00    +0.033 C 
ENDBRANCH  24  31
ENDBRANCH  22  29
ENDBRANCH   1  22
TORSDOF 5
