REMARK  Name = ZINC17827125
REMARK  10 active torsions:
REMARK  status: ('A' for Active; 'I' for Inactive)
REMARK    1  A    between atoms: C_1  and  C_2
REMARK    2  A    between atoms: C_3  and  C_13
REMARK    3  A    between atoms: C_4  and  C_12
REMARK    4  A    between atoms: C_13  and  C_14
REMARK    5  A    between atoms: N_16  and  C_17
REMARK    6  A    between atoms: C_17  and  C_18
REMARK    7  A    between atoms: C_18  and  C_19
REMARK    8  A    between atoms: C_19  and  N_20
REMARK    9  A    between atoms: N_20  and  C_21
REMARK   10  A    between atoms: N_20  and  C_22
REMARK                            x       y       z     vdW  Elec       q    Type
REMARK                         _______ _______ _______ _____ _____    ______ ____
ROOT
ATOM      1  C   UNL     1      -1.330   1.944   0.019  0.00  0.00    +0.134 C 
ENDROOT
BRANCH   1   4
ATOM      2  C   UNL     1      -2.451   0.999  -2.496  0.00  0.00    +0.066 C 
ATOM      3  C   UNL     1      -3.003   0.493  -1.188  0.00  0.00    +0.047 A 
ATOM      4  C   UNL     1      -2.462   0.950   0.019  0.00  0.00    +0.004 A 
ATOM      5  C   UNL     1      -2.972   0.489   1.191  0.00  0.00    +0.049 A 
ATOM      6  N   UNL     1      -3.993  -0.407   1.159  0.00  0.00    -0.199 N 
ATOM      7  C   UNL     1      -4.495  -0.837  -0.037  0.00  0.00    +0.255 A 
ATOM      8  N   UNL     1      -3.986  -0.379  -1.186  0.00  0.00    -0.216 NA
ATOM      9  N   UNL     1      -5.471  -1.698   0.230  0.00  0.00    -0.176 NA
ATOM     10  C   UNL     1      -5.606  -1.829   1.548  0.00  0.00    +0.234 A 
ATOM     11  N   UNL     1      -4.726  -1.061   2.157  0.00  0.00    -0.128 NA
ATOM     12  N   UNL     1      -6.534  -2.650   2.183  0.00  0.00    -0.326 N 
ATOM     13  C   UNL     1      -2.415   0.967   2.507  0.00  0.00    +0.066 C 
ATOM     14  H   UNL     1      -6.566  -2.687   3.152  0.00  0.00    +0.145 HD
ATOM     15  H   UNL     1      -7.149  -3.185   1.657  0.00  0.00    +0.145 HD
ENDBRANCH   1   4
BRANCH   1  16
ATOM     16  C   UNL     1      -0.014   1.209   0.009  0.00  0.00    +0.217 C 
ATOM     17  O   UNL     1       0.002  -0.004   0.002  0.00  0.00    -0.275 OA
ATOM     18  N   UNL     1       1.143   1.898   0.001  0.00  0.00    -0.315 N 
ATOM     19  H   UNL     1       1.130   2.868   0.007  0.00  0.00    +0.149 HD
BRANCH  18  20
ATOM     20  C   UNL     1       2.422   1.183  -0.015  0.00  0.00    +0.105 C 
BRANCH  20  21
ATOM     21  C   UNL     1       3.571   2.193  -0.020  0.00  0.00    +0.037 C 
BRANCH  21  22
ATOM     22  C   UNL     1       4.907   1.446  -0.037  0.00  0.00    +0.106 C 
BRANCH  22  23
ATOM     23  N   UNL     1       6.007   2.413  -0.042  0.00  0.00    -0.333 N 
ATOM     24  C   UNL     1       6.545   2.904  -1.314  0.00  0.00    +0.129 C 
BRANCH  23  25
ATOM     25  C   UNL     1       6.543   2.868   1.165  0.00  0.00    +0.029 A 
ATOM     26  C   UNL     1       6.030   2.408   2.371  0.00  0.00    +0.023 A 
ATOM     27  C   UNL     1       6.566   2.856   3.563  0.00  0.00    +0.002 A 
ATOM     28  C   UNL     1       7.605   3.769   3.556  0.00  0.00    +0.000 A 
ATOM     29  C   UNL     1       8.114   4.232   2.357  0.00  0.00    +0.002 A 
ATOM     30  C   UNL     1       7.587   3.785   1.161  0.00  0.00    +0.023 A 
ENDBRANCH  23  25
ENDBRANCH  22  23
ENDBRANCH  21  22
ENDBRANCH  20  21
ENDBRANCH  18  20
ENDBRANCH   1  16
TORSDOF 7
