REMARK  Name = ZINC49645582
REMARK  3 active torsions:
REMARK  status: ('A' for Active; 'I' for Inactive)
REMARK    1  A    between atoms: C_3  and  N_9
REMARK    2  A    between atoms: N_9  and  S_10
REMARK    3  A    between atoms: S_10  and  C_13
REMARK                            x       y       z     vdW  Elec       q    Type
REMARK                         _______ _______ _______ _____ _____    ______ ____
ROOT
ATOM      1  S   UNL     1       5.028   1.319  -0.039  0.00  0.00    +0.063 S 
ATOM      2  O   UNL     1       5.062   0.610   1.191  0.00  0.00    -0.153 OA
ATOM      3  O   UNL     1       5.038   0.623  -1.278  0.00  0.00    -0.153 OA
ENDROOT
BRANCH   1   4
ATOM      4  C   UNL     1       6.291   2.622  -0.045  0.00  0.00    +0.136 C 
ATOM      5  C   UNL     1       6.143   3.484   1.212  0.00  0.00    +0.024 C 
ATOM      6  C   UNL     1       7.261   4.530   1.237  0.00  0.00    -0.017 C 
ATOM      7  C   UNL     1       8.616   3.822   1.176  0.00  0.00    -0.082 C 
ATOM      8  N   UNL     1       8.706   3.036  -0.061  0.00  0.00    +0.380 N 
ATOM      9  C   UNL     1       7.682   1.984  -0.060  0.00  0.00    -0.054 C 
ATOM     10  H   UNL     1       8.563   3.642  -0.855  0.00  0.00    -0.086 HD
ATOM     11  H   UNL     1       9.620   2.614  -0.124  0.00  0.00    -0.086 HD
ENDBRANCH   1   4
BRANCH   1  12
ATOM     12  N   UNL     1       3.583   2.128  -0.021  0.00  0.00    -0.100 NA
BRANCH  12  15
ATOM     13  C   UNL     1      -0.017   1.379   0.010  0.00  0.00    +0.022 A 
ATOM     14  C   UNL     1       1.169   2.088   0.002  0.00  0.00    +0.031 A 
ATOM     15  C   UNL     1       2.381   1.412  -0.013  0.00  0.00    +0.109 A 
ATOM     16  C   UNL     1       2.398   0.021  -0.021  0.00  0.00    +0.149 A 
ATOM     17  C   UNL     1       1.208  -0.683  -0.013  0.00  0.00    +0.060 A 
ATOM     18  C   UNL     1       0.002  -0.004   0.002  0.00  0.00    +0.044 A 
ATOM     19 CL   UNL     1      -1.490  -0.891   0.011  0.00  0.00    -0.083 Cl
ATOM     20  F   UNL     1       3.576  -0.641  -0.036  0.00  0.00    -0.203 F 
ENDBRANCH  12  15
ENDBRANCH   1  12
TORSDOF 3
