REMARK  Name = ZINC40429785
REMARK  4 active torsions:
REMARK  status: ('A' for Active; 'I' for Inactive)
REMARK    1  A    between atoms: C_4  and  S_8
REMARK    2  A    between atoms: C_6  and  N_7
REMARK    3  A    between atoms: S_8  and  C_9
REMARK    4  A    between atoms: C_15  and  O_17
REMARK                            x       y       z     vdW  Elec       q    Type
REMARK                         _______ _______ _______ _____ _____    ______ ____
ROOT
ATOM      1  C   UNL     1      -0.017   1.388   0.010  0.00  0.00    +0.086 A 
ATOM      2  C   UNL     1       1.198   2.067   0.002  0.00  0.00    +0.122 A 
ATOM      3  N   UNL     1       2.331   1.368  -0.013  0.00  0.00    -0.207 NA
ATOM      4  C   UNL     1       2.311   0.043  -0.020  0.00  0.00    +0.192 A 
ATOM      5  N   UNL     1       1.173  -0.636  -0.013  0.00  0.00    -0.207 NA
ATOM      6  C   UNL     1       0.002  -0.004   0.002  0.00  0.00    +0.122 A 
ATOM      7  N   UNL     1       1.228   3.453   0.008  0.00  0.00    -0.343 N 
ATOM      8  H   UNL     1       0.398   3.956   0.019  0.00  0.00    +0.144 HD
ATOM      9  H   UNL     1       2.078   3.920   0.003  0.00  0.00    +0.144 HD
ENDROOT
BRANCH   6  10
ATOM     10  N   UNL     1      -1.183  -0.723   0.010  0.00  0.00    -0.343 N 
ATOM     11  H   UNL     1      -2.034  -0.255   0.021  0.00  0.00    +0.144 HD
ATOM     12  H   UNL     1      -1.163  -1.692   0.004  0.00  0.00    +0.144 HD
ENDBRANCH   6  10
BRANCH   4  13
ATOM     13  S   UNL     1       3.837  -0.838  -0.040  0.00  0.00    -0.080 S 
BRANCH  13  14
ATOM     14  C   UNL     1       3.337  -2.581  -0.044  0.00  0.00    +0.083 C 
ATOM     15  C   UNL     1       2.623  -2.910   1.269  0.00  0.00    +0.017 C 
ATOM     16  C   UNL     1       2.201  -4.381   1.265  0.00  0.00    +0.001 C 
ATOM     17  C   UNL     1       3.440  -5.267   1.122  0.00  0.00    +0.003 C 
ATOM     18  C   UNL     1       4.154  -4.938  -0.191  0.00  0.00    +0.032 C 
ATOM     19  C   UNL     1       4.576  -3.467  -0.187  0.00  0.00    +0.128 C 
BRANCH  19  20
ATOM     20  O   UNL     1       5.461  -3.228   0.909  0.00  0.00    -0.391 OA
ATOM     21  H   UNL     1       6.270  -3.757   0.884  0.00  0.00    +0.210 HD
ENDBRANCH  19  20
ENDBRANCH  13  14
ENDBRANCH   4  13
TORSDOF 4
