REMARK  Name = ZINC66739663
REMARK  3 active torsions:
REMARK  status: ('A' for Active; 'I' for Inactive)
REMARK    1  A    between atoms: N_15  and  C_16
REMARK    2  A    between atoms: C_16  and  C_17
REMARK    3  A    between atoms: C_17  and  C_18
REMARK                            x       y       z     vdW  Elec       q    Type
REMARK                         _______ _______ _______ _____ _____    ______ ____
ROOT
ATOM      1  C   UNL     1      -0.017   1.373   0.010  0.00  0.00    +0.012 A 
ATOM      2  C   UNL     1       1.171   2.082   0.002  0.00  0.00    +0.042 A 
ATOM      3  C   UNL     1       2.378   1.405  -0.013  0.00  0.00    +0.160 A 
ATOM      4  C   UNL     1       2.401   0.021  -0.021  0.00  0.00    +0.180 A 
ATOM      5  C   UNL     1       1.207  -0.698  -0.013  0.00  0.00    +0.079 A 
ATOM      6  C   UNL     1       0.002  -0.004   0.002  0.00  0.00    +0.024 A 
ATOM      7  C   UNL     1      -1.079  -1.050   0.005  0.00  0.00    +0.195 C 
ATOM      8  C   UNL     1      -0.343  -2.365  -0.005  0.00  0.00    +0.261 C 
ATOM      9  O   UNL     1      -0.840  -3.472  -0.005  0.00  0.00    -0.271 OA
ATOM     10  N   UNL     1       0.971  -2.076  -0.016  0.00  0.00    -0.280 N 
ATOM     11  N   UNL     1      -1.941  -0.929   1.178  0.00  0.00    -0.285 N 
ATOM     12  C   UNL     1      -3.122  -0.385   0.810  0.00  0.00    +0.229 C 
ATOM     13  O   UNL     1      -4.056  -0.152   1.548  0.00  0.00    -0.274 OA
ATOM     14  C   UNL     1      -3.082  -0.113  -0.679  0.00  0.00    +0.183 C 
ATOM     15  N   UNL     1      -1.943  -0.922  -1.182  0.00  0.00    -0.262 NA
ATOM     16  F   UNL     1       3.583  -0.634  -0.036  0.00  0.00    -0.201 F 
ATOM     17  F   UNL     1       3.539   2.096  -0.021  0.00  0.00    -0.202 F 
ATOM     18  H   UNL     1       1.673  -2.745  -0.025  0.00  0.00    +0.155 HD
ATOM     19  H   UNL     1      -1.704  -1.197   2.079  0.00  0.00    +0.151 HD
ENDROOT
BRANCH  15  20
ATOM     20  C   UNL     1      -2.398  -2.239  -1.647  0.00  0.00    +0.088 C 
BRANCH  20  21
ATOM     21  C   UNL     1      -3.078  -2.091  -3.010  0.00  0.00    +0.019 C 
BRANCH  21  22
ATOM     22  C   UNL     1      -3.551  -3.463  -3.495  0.00  0.00    -0.010 C 
ATOM     23  C   UNL     1      -2.339  -4.362  -3.743  0.00  0.00    +0.003 C 
ATOM     24  C   UNL     1      -2.812  -5.734  -4.228  0.00  0.00    +0.000 C 
ATOM     25  C   UNL     1      -3.601  -5.571  -5.529  0.00  0.00    +0.000 C 
ATOM     26  C   UNL     1      -4.813  -4.671  -5.281  0.00  0.00    +0.000 C 
ATOM     27  C   UNL     1      -4.340  -3.299  -4.796  0.00  0.00    +0.003 C 
ENDBRANCH  21  22
ENDBRANCH  20  21
ENDBRANCH  15  20
TORSDOF 3
