REMARK  Name = ZINC39918822
REMARK  10 active torsions:
REMARK  status: ('A' for Active; 'I' for Inactive)
REMARK    1  A    between atoms: C_1  and  C_2
REMARK    2  A    between atoms: C_2  and  O_3
REMARK    3  A    between atoms: O_3  and  C_4
REMARK    4  A    between atoms: C_4  and  C_6
REMARK    5  A    between atoms: C_7  and  N_31
REMARK    6  A    between atoms: C_11  and  C_30
REMARK    7  A    between atoms: N_12  and  C_29
REMARK    8  A    between atoms: N_23  and  C_26
REMARK    9  A    between atoms: C_26  and  C_27
REMARK   10  A    between atoms: C_26  and  C_28
REMARK                            x       y       z     vdW  Elec       q    Type
REMARK                         _______ _______ _______ _____ _____    ______ ____
ROOT
ATOM      1  C   UNL     1       1.447  -2.050  -2.472  0.00  0.00    +0.117 C 
ATOM      2  C   UNL     1       1.520  -3.387  -2.704  0.00  0.00    +0.196 C 
ATOM      3  O   UNL     1       2.068  -3.883  -3.825  0.00  0.00    -0.441 OA
ATOM      4  C   UNL     1       2.886  -3.118  -4.577  0.00  0.00    +0.142 A 
ATOM      5  C   UNL     1       3.753  -3.721  -5.512  0.00  0.00    +0.068 A 
ATOM      6  C   UNL     1       4.569  -2.952  -6.264  0.00  0.00    +0.022 A 
ATOM      7  N   UNL     1       4.568  -1.599  -6.135  0.00  0.00    -0.315 N 
ATOM      8  C   UNL     1       3.755  -0.987  -5.254  0.00  0.00    +0.260 A 
ATOM      9  O   UNL     1       3.770   0.230  -5.154  0.00  0.00    -0.267 OA
ATOM     10  C   UNL     1       2.891  -1.744  -4.452  0.00  0.00    +0.083 A 
ATOM     11  C   UNL     1       1.977  -1.063  -3.471  0.00  0.00    +0.144 C 
ATOM     12  C   UNL     1       0.859  -0.360  -4.176  0.00  0.00    -0.002 A 
ATOM     13  C   UNL     1      -0.152  -0.836  -4.984  0.00  0.00    +0.007 A 
ATOM     14  C   UNL     1      -1.047   0.100  -5.490  0.00  0.00    +0.000 A 
ATOM     15  C   UNL     1      -0.926   1.443  -5.195  0.00  0.00    +0.002 A 
ATOM     16  C   UNL     1       0.087   1.928  -4.383  0.00  0.00    +0.024 A 
ATOM     17  C   UNL     1       0.993   0.999  -3.869  0.00  0.00    +0.041 A 
ATOM     18  N   UNL     1       2.084   1.200  -3.043  0.00  0.00    -0.267 N 
ATOM     19  C   UNL     1       2.723   0.046  -2.758  0.00  0.00    +0.240 C 
ATOM     20  O   UNL     1       3.707  -0.080  -2.061  0.00  0.00    -0.274 OA
ATOM     21  C   UNL     1       5.465  -0.795  -6.968  0.00  0.00    +0.152 C 
ATOM     22  C   UNL     1       5.493  -3.603  -7.260  0.00  0.00    +0.064 C 
ENDROOT
BRANCH  18  23
ATOM     23  C   UNL     1       2.499   2.511  -2.538  0.00  0.00    +0.075 C 
ATOM     24  C   UNL     1       2.517   2.486  -1.008  0.00  0.00    +0.028 C 
ATOM     25  C   UNL     1       3.899   2.839  -3.060  0.00  0.00    +0.028 C 
ENDBRANCH  18  23
BRANCH   2  26
ATOM     26  N   UNL     1       1.020  -4.252  -1.768  0.00  0.00    -0.329 N 
ATOM     27  H   UNL     1       0.548  -3.909  -0.993  0.00  0.00    +0.145 HD
ATOM     28  H   UNL     1       1.138  -5.209  -1.880  0.00  0.00    +0.145 HD
ENDBRANCH   2  26
BRANCH   1  29
ATOM     29  C   UNL     1       0.862  -1.585  -1.285  0.00  0.00    +0.342 C 
ATOM     30  O   UNL     1      -0.268  -1.132  -1.299  0.00  0.00    -0.245 OA
BRANCH  29  31
ATOM     31  O   UNL     1       1.553  -1.641  -0.125  0.00  0.00    -0.462 OA
BRANCH  31  33
ATOM     32  C   UNL     1       1.823  -1.280   2.249  0.00  0.00    +0.048 C 
ATOM     33  C   UNL     1       0.856  -1.262   1.064  0.00  0.00    +0.229 C 
ENDBRANCH  31  33
ENDBRANCH  29  31
ENDBRANCH   1  29
TORSDOF 5
