REMARK  Name = ZINC37496044
REMARK  2 active torsions:
REMARK  status: ('A' for Active; 'I' for Inactive)
REMARK    1  A    between atoms: C_8  and  C_21
REMARK    2  A    between atoms: C_12  and  C_14
REMARK                            x       y       z     vdW  Elec       q    Type
REMARK                         _______ _______ _______ _____ _____    ______ ____
ROOT
ATOM      1  C   UNL     1       0.869   1.381   3.677  0.00  0.00    +0.000 A 
ATOM      2  C   UNL     1       0.195   1.685   2.508  0.00  0.00    +0.000 A 
ATOM      3  C   UNL     1       0.214   0.792   1.456  0.00  0.00    +0.005 A 
ATOM      4  C   UNL     1       0.901  -0.409   1.564  0.00  0.00    -0.027 A 
ATOM      5  C   UNL     1       1.565  -0.717   2.730  0.00  0.00    -0.040 A 
ATOM      6  C   UNL     1       1.551   0.187   3.785  0.00  0.00    +0.004 A 
ATOM      7  C   UNL     1       2.306  -2.013   2.930  0.00  0.00    +0.067 C 
ATOM      8  C   UNL     1       2.643  -2.661   1.588  0.00  0.00    +0.167 C 
ATOM      9  N   UNL     1       1.427  -2.644   0.759  0.00  0.00    -0.280 N 
ATOM     10  C   UNL     1       0.894  -1.333   0.371  0.00  0.00    +0.144 C 
ATOM     11  C   UNL     1       0.827  -3.786   0.371  0.00  0.00    +0.264 C 
ATOM     12  O   UNL     1       1.212  -4.855   0.808  0.00  0.00    -0.268 OA
ENDROOT
BRANCH  11  13
ATOM     13  C   UNL     1      -0.291  -3.743  -0.578  0.00  0.00    +0.103 A 
ATOM     14  C   UNL     1      -1.192  -4.757  -0.823  0.00  0.00    +0.047 A 
ATOM     15  C   UNL     1      -2.084  -4.289  -1.794  0.00  0.00    +0.036 A 
ATOM     16  C   UNL     1      -1.720  -3.025  -2.118  0.00  0.00    +0.098 A 
ATOM     17  N   UNL     1      -0.635  -2.679  -1.381  0.00  0.00    -0.356 N 
ATOM     18  H   UNL     1      -0.176  -1.825  -1.416  0.00  0.00    +0.165 HD
ATOM     19 BR   UNL     1      -3.539  -5.251  -2.525  0.00  0.00    -0.049 Br
ENDBRANCH  11  13
BRANCH   8  20
ATOM     20  C   UNL     1       3.092  -4.082   1.807  0.00  0.00    +0.231 C 
ATOM     21  O   UNL     1       4.083  -4.498   1.246  0.00  0.00    -0.274 OA
ATOM     22  N   UNL     1       2.392  -4.892   2.626  0.00  0.00    -0.328 N 
ATOM     23  H   UNL     1       1.598  -4.560   3.075  0.00  0.00    +0.145 HD
ATOM     24  H   UNL     1       2.681  -5.807   2.767  0.00  0.00    +0.145 HD
ENDBRANCH   8  20
TORSDOF 2
