REMARK  Name = ZINC50602324
REMARK  3 active torsions:
REMARK  status: ('A' for Active; 'I' for Inactive)
REMARK    1  A    between atoms: C_6  and  N_7
REMARK    2  A    between atoms: N_8  and  C_9
REMARK    3  A    between atoms: C_9  and  C_10
REMARK                            x       y       z     vdW  Elec       q    Type
REMARK                         _______ _______ _______ _____ _____    ______ ____
ROOT
ATOM      1  C   UNL     1      -0.017   1.384   0.010  0.00  0.00    +0.043 A 
ATOM      2  C   UNL     1       1.196   2.062   0.002  0.00  0.00    +0.038 A 
ATOM      3  C   UNL     1       2.374   1.343  -0.013  0.00  0.00    +0.128 A 
ATOM      4  N   UNL     1       2.364   0.022  -0.020  0.00  0.00    -0.238 NA
ATOM      5  C   UNL     1       1.234  -0.664  -0.013  0.00  0.00    +0.140 A 
ATOM      6  C   UNL     1       0.002  -0.004   0.002  0.00  0.00    +0.066 A 
ATOM      7  N   UNL     1       1.271  -2.057  -0.021  0.00  0.00    -0.327 N 
ATOM      8 BR   UNL     1       1.232   3.953   0.011  0.00  0.00    -0.049 Br
ATOM      9  H   UNL     1       0.444  -2.564  -0.016  0.00  0.00    +0.148 HD
ENDROOT
BRANCH   6  10
ATOM     10  N   UNL     1      -1.194  -0.731   0.009  0.00  0.00    -0.355 N 
ATOM     11  H   UNL     1      -2.045  -0.265   0.020  0.00  0.00    +0.142 HD
ATOM     12  H   UNL     1      -1.173  -1.701   0.004  0.00  0.00    +0.142 HD
ENDBRANCH   6  10
BRANCH   7  13
ATOM     13  C   UNL     1       2.558  -2.756  -0.037  0.00  0.00    +0.108 C 
BRANCH  13  14
ATOM     14  C   UNL     1       2.319  -4.267  -0.043  0.00  0.00    +0.029 C 
ATOM     15  C   UNL     1       1.677  -4.696   1.287  0.00  0.00    +0.029 C 
ATOM     16  C   UNL     1       1.726  -6.237   1.423  0.00  0.00    +0.166 C 
ATOM     17  S   UNL     1       3.211  -6.683   0.434  0.00  0.00    -0.031 S 
ATOM     18  O   UNL     1       2.810  -7.491  -0.664  0.00  0.00    -0.174 OA
ATOM     19  O   UNL     1       4.227  -7.150   1.311  0.00  0.00    -0.174 OA
ATOM     20  C   UNL     1       3.676  -5.013  -0.189  0.00  0.00    +0.171 C 
ENDBRANCH  13  14
ENDBRANCH   7  13
TORSDOF 3
