REMARK  Name = ZINC15253309
REMARK  7 active torsions:
REMARK  status: ('A' for Active; 'I' for Inactive)
REMARK    1  A    between atoms: C_1  and  C_2
REMARK    2  A    between atoms: C_2  and  C_3
REMARK    3  A    between atoms: C_7  and  N_9
REMARK    4  A    between atoms: C_13  and  C_14
REMARK    5  A    between atoms: C_16  and  C_22
REMARK    6  A    between atoms: C_17  and  O_21
REMARK    7  A    between atoms: C_18  and  C_20
REMARK                            x       y       z     vdW  Elec       q    Type
REMARK                         _______ _______ _______ _____ _____    ______ ____
ROOT
ATOM      1  N   UNL     1      -0.195  -2.798   2.403  0.00  0.00    -0.217 N 
ATOM      2  C   UNL     1      -0.246  -4.140   2.522  0.00  0.00    +0.271 C 
ATOM      3  O   UNL     1      -0.428  -4.947   1.629  0.00  0.00    -0.268 OA
ATOM      4  C   UNL     1      -0.034  -4.433   3.947  0.00  0.00    +0.097 C 
ATOM      5  C   UNL     1       0.001  -5.652   4.542  0.00  0.00    +0.036 C 
ATOM      6  N   UNL     1       0.119  -3.183   4.561  0.00  0.00    -0.292 N 
ATOM      7  C   UNL     1       0.016  -2.242   3.606  0.00  0.00    +0.148 C 
ATOM      8  S   UNL     1       0.139  -0.558   3.887  0.00  0.00    -0.018 S 
ATOM      9  H   UNL     1       0.273  -3.024   5.505  0.00  0.00    +0.154 HD
ENDROOT
BRANCH   5  10
ATOM     10  C   UNL     1      -0.007  -6.870   3.721  0.00  0.00    -0.022 A 
ATOM     11  C   UNL     1       0.713  -6.913   2.521  0.00  0.00    +0.015 A 
ATOM     12  C   UNL     1       0.707  -8.059   1.758  0.00  0.00    -0.008 A 
ATOM     13  C   UNL     1      -0.022  -9.168   2.172  0.00  0.00    +0.123 A 
ATOM     14  C   UNL     1      -0.743  -9.129   3.360  0.00  0.00    -0.008 A 
ATOM     15  C   UNL     1      -0.739  -7.990   4.133  0.00  0.00    +0.015 A 
ATOM     16  C   UNL     1      -1.531 -10.336   3.801  0.00  0.00    +0.047 C 
ATOM     17  C   UNL     1       1.486  -8.109   0.470  0.00  0.00    +0.047 C 
BRANCH  13  18
ATOM     18  O   UNL     1      -0.029 -10.294   1.413  0.00  0.00    -0.506 OA
ATOM     19  H   UNL     1      -0.737 -10.320   0.755  0.00  0.00    +0.292 HD
ENDBRANCH  13  18
ENDBRANCH   5  10
BRANCH   1  24
ATOM     20  C   UNL     1       0.451  -1.512  -0.983  0.00  0.00    -0.046 A 
ATOM     21  C   UNL     1      -0.644  -0.685  -1.162  0.00  0.00    +0.004 A 
ATOM     22  C   UNL     1      -1.594  -0.566  -0.165  0.00  0.00    +0.002 A 
ATOM     23  C   UNL     1      -1.448  -1.263   1.018  0.00  0.00    +0.024 A 
ATOM     24  C   UNL     1      -0.347  -2.089   1.203  0.00  0.00    +0.044 A 
ATOM     25  C   UNL     1       0.603  -2.211   0.198  0.00  0.00    +0.027 A 
BRANCH  20  27
ATOM     26  C   UNL     1       1.094  -2.795  -3.005  0.00  0.00    +0.009 C 
ATOM     27  C   UNL     1       1.481  -1.643  -2.074  0.00  0.00    +0.032 C 
ENDBRANCH  20  27
ENDBRANCH   1  24
TORSDOF 4
