REMARK  Name = ZINC39940472
REMARK  7 active torsions:
REMARK  status: ('A' for Active; 'I' for Inactive)
REMARK    1  A    between atoms: C_1  and  C_2
REMARK    2  A    between atoms: C_5  and  C_20
REMARK    3  A    between atoms: C_6  and  C_19
REMARK    4  A    between atoms: N_8  and  C_9
REMARK    5  A    between atoms: C_13  and  C_15
REMARK    6  A    between atoms: C_21  and  C_22
REMARK    7  A    between atoms: C_21  and  C_24
REMARK                            x       y       z     vdW  Elec       q    Type
REMARK                         _______ _______ _______ _____ _____    ______ ____
ROOT
ATOM      1  C   UNL     1      -0.916   2.113  -0.042  0.00  0.00    +0.032 C 
ATOM      2  C   UNL     1      -0.670   0.610  -0.186  0.00  0.00    +0.094 C 
ATOM      3  C   UNL     1      -1.970  -0.137  -0.044  0.00  0.00    +0.000 C 
ATOM      4  C   UNL     1      -1.899  -0.968   0.991  0.00  0.00    -0.028 C 
ATOM      5  C   UNL     1      -0.545  -0.856   1.641  0.00  0.00    +0.101 C 
ATOM      6  N   UNL     1       0.223   0.146   0.884  0.00  0.00    -0.317 N 
ATOM      7  C   UNL     1      -0.702  -0.408   3.095  0.00  0.00    +0.033 C 
ENDROOT
BRANCH   6   8
ATOM      8  C   UNL     1       1.532   0.570   1.131  0.00  0.00    +0.031 A 
ATOM      9  C   UNL     1       2.252   0.023   2.188  0.00  0.00    +0.024 A 
ATOM     10  C   UNL     1       3.546   0.438   2.437  0.00  0.00    +0.022 A 
ATOM     11  C   UNL     1       4.135   1.398   1.638  0.00  0.00    +0.055 A 
ATOM     12  C   UNL     1       3.420   1.954   0.572  0.00  0.00    +0.083 A 
ATOM     13  C   UNL     1       2.114   1.529   0.318  0.00  0.00    +0.039 A 
ATOM     14 CL   UNL     1       5.761   1.916   1.957  0.00  0.00    -0.083 Cl
BRANCH  12  15
ATOM     15  C   UNL     1       4.045   2.979  -0.284  0.00  0.00    +0.388 C 
ATOM     16  O   UNL     1       3.417   3.464  -1.215  0.00  0.00    -0.241 OA
ATOM     17  O   UNL     1       5.190   3.346  -0.062  0.00  0.00    -0.241 OA
ENDBRANCH  12  15
ENDBRANCH   6   8
BRANCH   4  18
ATOM     18  C   UNL     1      -2.974  -1.857   1.433  0.00  0.00    +0.023 C 
ATOM     19  C   UNL     1      -3.535  -2.725   0.561  0.00  0.00    +0.072 C 
BRANCH  19  20
ATOM     20  C   UNL     1      -2.975  -2.861  -0.832  0.00  0.00    +0.216 C 
ATOM     21  N   UNL     1      -2.725  -4.275  -1.138  0.00  0.00    -0.359 N 
ATOM     22  C   UNL     1      -3.461  -4.589  -2.164  0.00  0.00    +0.060 A 
ATOM     23  C   UNL     1      -3.641  -5.836  -2.921  0.00  0.00    +0.027 A 
ATOM     24  C   UNL     1      -4.494  -5.863  -3.965  0.00  0.00    +0.002 A 
ATOM     25  C   UNL     1      -5.231  -4.737  -4.371  0.00  0.00    +0.002 A 
ATOM     26  C   UNL     1      -5.140  -3.545  -3.748  0.00  0.00    +0.027 A 
ATOM     27  C   UNL     1      -4.241  -3.397  -2.595  0.00  0.00    +0.060 A 
ATOM     28  N   UNL     1      -3.957  -2.392  -1.818  0.00  0.00    -0.359 N 
ATOM     29  H   UNL     1      -2.121  -4.867  -0.662  0.00  0.00    +0.162 HD
ATOM     30  H   UNL     1      -4.326  -1.497  -1.879  0.00  0.00    +0.162 HD
ENDBRANCH  19  20
BRANCH  19  31
ATOM     31  C   UNL     1      -4.661  -3.514   0.960  0.00  0.00    +0.099 C 
ATOM     32  N   UNL     1      -5.554  -4.141   1.277  0.00  0.00    -0.191 NA
ENDBRANCH  19  31
ENDBRANCH   4  18
TORSDOF 5
