REMARK  Name = ZINC16226457
REMARK  8 active torsions:
REMARK  status: ('A' for Active; 'I' for Inactive)
REMARK    1  A    between atoms: C_1  and  O_2
REMARK    2  A    between atoms: O_2  and  C_3
REMARK    3  A    between atoms: C_8  and  C_9
REMARK    4  A    between atoms: C_10  and  C_11
REMARK    5  A    between atoms: N_13  and  C_14
REMARK    6  A    between atoms: C_14  and  N_16
REMARK    7  A    between atoms: N_16  and  C_17
REMARK    8  A    between atoms: C_18  and  C_25
REMARK                            x       y       z     vdW  Elec       q    Type
REMARK                         _______ _______ _______ _____ _____    ______ ____
ROOT
ATOM      1  C   UNL     1       3.581  -4.723  -0.528  0.00  0.00    +0.242 C 
ATOM      2  O   UNL     1       4.621  -4.099  -0.626  0.00  0.00    -0.270 OA
ATOM      3  N   UNL     1       2.420  -4.071  -0.319  0.00  0.00    -0.264 N 
ATOM      4  H   UNL     1       1.591  -4.568  -0.241  0.00  0.00    +0.157 HD
ENDROOT
BRANCH   1   6
ATOM      5  C   UNL     1       4.753  -6.834  -0.849  0.00  0.00    +0.016 C 
ATOM      6  C   UNL     1       3.590  -6.180  -0.639  0.00  0.00    +0.068 C 
BRANCH   5  12
ATOM      7  C   UNL     1       5.968  -8.983  -1.184  0.00  0.00    +0.127 A 
ATOM      8  C   UNL     1       5.965 -10.365  -1.281  0.00  0.00    +0.047 A 
ATOM      9  C   UNL     1       4.780 -11.066  -1.168  0.00  0.00    +0.019 A 
ATOM     10  C   UNL     1       3.586 -10.395  -0.953  0.00  0.00    +0.019 A 
ATOM     11  C   UNL     1       3.569  -9.021  -0.848  0.00  0.00    +0.026 A 
ATOM     12  C   UNL     1       4.762  -8.299  -0.960  0.00  0.00    +0.018 A 
ATOM     13 BR   UNL     1       1.973 -11.371  -0.802  0.00  0.00    -0.050 Br
BRANCH   7  15
ATOM     14  C   UNL     1       8.318  -9.057  -1.527  0.00  0.00    +0.277 C 
ATOM     15  O   UNL     1       7.131  -8.293  -1.300  0.00  0.00    -0.495 OA
ENDBRANCH   7  15
ENDBRANCH   5  12
ENDBRANCH   1   6
BRANCH   3  16
ATOM     16  C   UNL     1       2.412  -2.727  -0.217  0.00  0.00    +0.141 C 
ATOM     17  S   UNL     1       3.875  -1.848  -0.355  0.00  0.00    -0.018 S 
BRANCH  16  18
ATOM     18  N   UNL     1       1.251  -2.074  -0.007  0.00  0.00    -0.295 N 
ATOM     19  H   UNL     1       0.433  -2.574   0.141  0.00  0.00    +0.154 HD
BRANCH  18  20
ATOM     20  C   UNL     1       1.226  -0.682  -0.004  0.00  0.00    +0.065 A 
ATOM     21  C   UNL     1       0.307   0.009  -0.808  0.00  0.00    +0.087 A 
ATOM     22  C   UNL     1       0.292   1.407  -0.796  0.00  0.00    +0.037 A 
ATOM     23  C   UNL     1       1.178   2.097   0.005  0.00  0.00    +0.043 A 
ATOM     24  C   UNL     1       2.084   1.411   0.799  0.00  0.00    +0.042 A 
ATOM     25  C   UNL     1       2.111   0.030   0.797  0.00  0.00    +0.064 A 
ATOM     26 CL   UNL     1       3.250  -0.817   1.796  0.00  0.00    -0.082 Cl
ATOM     27 CL   UNL     1       1.158   3.833   0.018  0.00  0.00    -0.083 Cl
BRANCH  21  28
ATOM     28  C   UNL     1      -0.636  -0.734  -1.662  0.00  0.00    +0.388 C 
ATOM     29  O   UNL     1      -0.555  -1.944  -1.746  0.00  0.00    -0.241 OA
ATOM     30  O   UNL     1      -1.588  -0.073  -2.349  0.00  0.00    -0.241 OA
ENDBRANCH  21  28
ENDBRANCH  18  20
ENDBRANCH  16  18
ENDBRANCH   3  16
TORSDOF 7
