REMARK  Name = ZINC33626942
REMARK  3 active torsions:
REMARK  status: ('A' for Active; 'I' for Inactive)
REMARK    1  A    between atoms: C_10  and  N_11
REMARK    2  A    between atoms: C_15  and  C_16
REMARK    3  A    between atoms: C_19  and  O_22
REMARK                            x       y       z     vdW  Elec       q    Type
REMARK                         _______ _______ _______ _____ _____    ______ ____
ROOT
ATOM      1  N   UNL     1       4.669   0.553  -0.062  0.00  0.00    -0.214 N 
ATOM      2  C   UNL     1       5.257   0.861   1.081  0.00  0.00    +0.263 C 
ATOM      3  O   UNL     1       4.657   0.805   2.139  0.00  0.00    -0.269 OA
ATOM      4  C   UNL     1       6.671   1.274   1.019  0.00  0.00    +0.078 C 
ATOM      5  C   UNL     1       7.506   1.638   2.024  0.00  0.00    +0.028 C 
ATOM      6  S   UNL     1       6.991   1.164  -0.736  0.00  0.00    -0.049 S 
ATOM      7  C   UNL     1       5.371   0.618  -1.252  0.00  0.00    +0.165 C 
ATOM      8  N   UNL     1       4.952   0.348  -2.457  0.00  0.00    -0.279 NA
ATOM      9  H   UNL     1       5.555   0.436  -3.211  0.00  0.00    +0.189 HD
ENDROOT
BRANCH   1  19
ATOM     10  C   UNL     1       0.248   2.954  -0.489  0.00  0.00    +0.001 A 
ATOM     11  C   UNL     1       1.577   3.373  -0.485  0.00  0.00    +0.001 A 
ATOM     12  C   UNL     1       2.594   2.478  -0.350  0.00  0.00    +0.010 A 
ATOM     13  C   UNL     1       2.302   1.111  -0.212  0.00  0.00    +0.004 A 
ATOM     14  C   UNL     1       0.951   0.684  -0.216  0.00  0.00    -0.016 A 
ATOM     15  C   UNL     1      -0.071   1.638  -0.358  0.00  0.00    +0.008 A 
ATOM     16  C   UNL     1       0.658  -0.683  -0.077  0.00  0.00    +0.008 A 
ATOM     17  C   UNL     1       1.669  -1.585   0.059  0.00  0.00    +0.002 A 
ATOM     18  C   UNL     1       3.000  -1.177   0.065  0.00  0.00    +0.024 A 
ATOM     19  C   UNL     1       3.329   0.154  -0.069  0.00  0.00    +0.051 A 
ENDBRANCH   1  19
BRANCH   5  20
ATOM     20  C   UNL     1       7.081   1.491   3.422  0.00  0.00    -0.024 A 
ATOM     21  C   UNL     1       7.391   2.484   4.359  0.00  0.00    +0.011 A 
ATOM     22  C   UNL     1       6.989   2.342   5.668  0.00  0.00    +0.046 A 
ATOM     23  C   UNL     1       6.277   1.214   6.060  0.00  0.00    +0.117 A 
ATOM     24  C   UNL     1       5.967   0.225   5.134  0.00  0.00    +0.046 A 
ATOM     25  C   UNL     1       6.358   0.360   3.821  0.00  0.00    +0.011 A 
BRANCH  23  26
ATOM     26  O   UNL     1       5.884   1.078   7.353  0.00  0.00    -0.507 OA
ATOM     27  H   UNL     1       5.013   1.452   7.540  0.00  0.00    +0.292 HD
ENDBRANCH  23  26
ENDBRANCH   5  20
TORSDOF 3
