REMARK  Name = ZINC12504192
REMARK  5 active torsions:
REMARK  status: ('A' for Active; 'I' for Inactive)
REMARK    1  A    between atoms: C_1  and  C_2
REMARK    2  A    between atoms: C_5  and  O_32
REMARK    3  A    between atoms: C_18  and  C_31
REMARK    4  A    between atoms: C_19  and  O_30
REMARK    5  A    between atoms: C_22  and  C_24
REMARK                            x       y       z     vdW  Elec       q    Type
REMARK                         _______ _______ _______ _____ _____    ______ ____
ROOT
ATOM      1  C   UNL     1       2.057   5.629  -2.929  0.00  0.00    +0.012 C 
ATOM      2  C   UNL     1       1.254   5.406  -1.645  0.00  0.00    -0.026 C 
ATOM      3  C   UNL     1       2.210   5.086  -0.495  0.00  0.00    +0.010 C 
ATOM      4  C   UNL     1       3.178   6.254  -0.296  0.00  0.00    +0.032 C 
ATOM      5  C   UNL     1       2.386   7.521   0.035  0.00  0.00    +0.115 C 
ATOM      6  C   UNL     1       1.427   7.843  -1.116  0.00  0.00    +0.035 C 
ATOM      7  C   UNL     1       0.462   6.671  -1.313  0.00  0.00    -0.002 C 
ATOM      8  C   UNL     1      -0.335   6.445  -0.026  0.00  0.00    +0.004 C 
ATOM      9  C   UNL     1      -1.307   5.281  -0.231  0.00  0.00    +0.007 C 
ATOM     10  C   UNL     1      -0.524   4.011  -0.574  0.00  0.00    +0.025 C 
ATOM     11  C   UNL     1       0.277   4.246  -1.852  0.00  0.00    +0.001 C 
ATOM     12  C   UNL     1       1.085   2.981  -2.165  0.00  0.00    +0.005 C 
ATOM     13  C   UNL     1       0.109   1.837  -2.436  0.00  0.00    +0.010 C 
ATOM     14  C   UNL     1      -0.778   1.582  -1.226  0.00  0.00    +0.004 C 
ATOM     15  C   UNL     1      -1.509   2.853  -0.754  0.00  0.00    +0.075 C 
ATOM     16  C   UNL     1      -1.973   2.438   0.674  0.00  0.00    +0.036 C 
ATOM     17  C   UNL     1      -0.781   1.629   1.230  0.00  0.00    +0.011 C 
ATOM     18  C   UNL     1      -0.013   1.086   0.008  0.00  0.00    +0.027 C 
ATOM     19  C   UNL     1      -1.817   0.531  -1.621  0.00  0.00    +0.014 C 
ENDROOT
BRANCH  18  20
ATOM     20  C   UNL     1       1.395   1.624  -0.003  0.00  0.00    -0.022 C 
ATOM     21  C   UNL     1       1.864   2.630   0.731  0.00  0.00    +0.094 C 
ATOM     22  C   UNL     1       3.282   2.839   0.427  0.00  0.00    +0.332 C 
ATOM     23  O   UNL     1       3.988   3.684   0.940  0.00  0.00    -0.246 OA
ATOM     24  O   UNL     1       3.685   1.959  -0.508  0.00  0.00    -0.457 OA
ATOM     25  C   UNL     1       2.541   1.128  -0.853  0.00  0.00    +0.264 C 
ENDBRANCH  18  20
BRANCH  15  26
ATOM     26  O   UNL     1      -2.605   3.206  -1.601  0.00  0.00    -0.388 OA
ATOM     27  H   UNL     1      -3.118   3.963  -1.286  0.00  0.00    +0.210 HD
ENDBRANCH  15  26
BRANCH   5  28
ATOM     28  O   UNL     1       3.290   8.613   0.220  0.00  0.00    -0.392 OA
ATOM     29  H   UNL     1       3.928   8.479   0.934  0.00  0.00    +0.210 HD
ENDBRANCH   5  28
TORSDOF 3
