REMARK  Name = ZINC36179640
REMARK  7 active torsions:
REMARK  status: ('A' for Active; 'I' for Inactive)
REMARK    1  A    between atoms: C_1  and  O_2
REMARK    2  A    between atoms: O_2  and  C_3
REMARK    3  A    between atoms: C_6  and  S_10
REMARK    4  A    between atoms: S_10  and  N_13
REMARK    5  A    between atoms: N_13  and  C_14
REMARK    6  A    between atoms: C_14  and  C_15
REMARK    7  A    between atoms: C_15  and  N_16
REMARK                            x       y       z     vdW  Elec       q    Type
REMARK                         _______ _______ _______ _____ _____    ______ ____
ROOT
ATOM      1  S   UNL     1       2.617  -2.616  -4.582  0.00  0.00    +0.058 S 
ATOM      2  O   UNL     1       2.051  -3.915  -4.687  0.00  0.00    -0.153 OA
ATOM      3  O   UNL     1       2.586  -1.682  -5.652  0.00  0.00    -0.153 OA
ENDROOT
BRANCH   1   7
ATOM      4  C   UNL     1       0.606  -0.607  -1.056  0.00  0.00    +0.134 A 
ATOM      5  C   UNL     1       1.173   0.160  -2.062  0.00  0.00    +0.048 A 
ATOM      6  C   UNL     1       1.786  -0.455  -3.137  0.00  0.00    +0.032 A 
ATOM      7  C   UNL     1       1.835  -1.835  -3.209  0.00  0.00    +0.107 A 
ATOM      8  C   UNL     1       1.271  -2.603  -2.208  0.00  0.00    +0.047 A 
ATOM      9  C   UNL     1       0.661  -1.992  -1.128  0.00  0.00    +0.061 A 
ATOM     10 BR   UNL     1      -0.103  -3.043   0.246  0.00  0.00    -0.046 Br
BRANCH   4  12
ATOM     11  C   UNL     1      -0.017   1.425   0.010  0.00  0.00    +0.277 C 
ATOM     12  O   UNL     1       0.002  -0.004   0.002  0.00  0.00    -0.494 OA
ENDBRANCH   4  12
ENDBRANCH   1   7
BRANCH   1  13
ATOM     13  N   UNL     1       4.211  -2.825  -4.182  0.00  0.00    -0.192 NA
ATOM     14  H   UNL     1       4.900  -2.355  -4.677  0.00  0.00    +0.148 HD
BRANCH  13  15
ATOM     15  C   UNL     1       4.579  -3.721  -3.083  0.00  0.00    +0.086 C 
BRANCH  15  16
ATOM     16  C   UNL     1       6.076  -4.030  -3.156  0.00  0.00    -0.069 C 
BRANCH  16  17
ATOM     17  N   UNL     1       6.445  -4.928  -2.054  0.00  0.00    +0.379 N 
ATOM     18  H   UNL     1       6.236  -4.482  -1.173  0.00  0.00    -0.090 HD
ATOM     19  H   UNL     1       5.920  -5.786  -2.129  0.00  0.00    -0.090 HD
ATOM     20  H   UNL     1       7.432  -5.131  -2.102  0.00  0.00    -0.090 HD
ENDBRANCH  16  17
ENDBRANCH  15  16
ENDBRANCH  13  15
ENDBRANCH   1  13
TORSDOF 6
