REMARK  Name = ZINC02927220
REMARK  8 active torsions:
REMARK  status: ('A' for Active; 'I' for Inactive)
REMARK    1  A    between atoms: C_1  and  C_2
REMARK    2  A    between atoms: C_2  and  C_3
REMARK    3  A    between atoms: C_3  and  C_5
REMARK    4  A    between atoms: C_3  and  S_12
REMARK    5  A    between atoms: S_12  and  C_13
REMARK    6  A    between atoms: C_17  and  C_21
REMARK    7  A    between atoms: N_24  and  C_25
REMARK    8  A    between atoms: C_30  and  C_31
REMARK                            x       y       z     vdW  Elec       q    Type
REMARK                         _______ _______ _______ _____ _____    ______ ____
ROOT
ATOM      1  C   UNL     1       4.050  -0.541  -0.128  0.00  0.00    +0.178 A 
ATOM      2  N   UNL     1       3.475   0.632  -0.020  0.00  0.00    -0.201 NA
ATOM      3  C   UNL     1       2.142   0.776   0.033  0.00  0.00    +0.187 A 
ATOM      4  C   UNL     1       1.319  -0.356  -0.027  0.00  0.00    +0.082 A 
ATOM      5  C   UNL     1      -0.013   0.088   0.049  0.00  0.00    +0.046 A 
ATOM      6  N   UNL     1      -0.007   1.389   0.146  0.00  0.00    -0.279 N 
ATOM      7  N   UNL     1       1.315   1.851   0.141  0.00  0.00    -0.153 NA
ATOM      8  H   UNL     1      -0.957   1.940   0.216  0.00  0.00    +0.189 HD
ATOM      9  C   UNL     1      -1.238  -0.789   0.021  0.00  0.00    +0.066 C 
ATOM     10  C   UNL     1       1.956  -1.675  -0.147  0.00  0.00    +0.124 A 
ATOM     11  N   UNL     1       1.244  -2.773  -0.207  0.00  0.00    -0.384 N 
ATOM     12  N   UNL     1       3.341  -1.709  -0.194  0.00  0.00    -0.274 N 
ATOM     13  H   UNL     1       1.745  -3.748  -0.297  0.00  0.00    +0.157 HD
ATOM     14  H   UNL     1       0.146  -2.720  -0.168  0.00  0.00    +0.157 HD
ENDROOT
BRANCH  12  15
ATOM     15  C   UNL     1       4.011  -2.934  -0.309  0.00  0.00    +0.055 A 
ATOM     16  C   UNL     1       4.306  -3.451  -1.563  0.00  0.00    +0.026 A 
ATOM     17  C   UNL     1       4.967  -4.659  -1.674  0.00  0.00    +0.003 A 
ATOM     18  C   UNL     1       5.336  -5.353  -0.536  0.00  0.00    +0.020 A 
ATOM     19  C   UNL     1       5.043  -4.841   0.716  0.00  0.00    +0.046 A 
ATOM     20  C   UNL     1       4.388  -3.630   0.832  0.00  0.00    -0.008 A 
ATOM     21  C   UNL     1       4.076  -3.068   2.195  0.00  0.00    +0.047 C 
ATOM     22 CL   UNL     1       5.508  -5.717   2.141  0.00  0.00    -0.083 Cl
ENDBRANCH  12  15
BRANCH   1  23
ATOM     23  S   UNL     1       5.809  -0.615  -0.191  0.00  0.00    -0.075 S 
BRANCH  23  24
ATOM     24  C   UNL     1       6.199   1.152  -0.211  0.00  0.00    +0.140 C 
BRANCH  24  25
ATOM     25  C   UNL     1       5.862   1.756   1.129  0.00  0.00    +0.229 C 
ATOM     26  O   UNL     1       5.846   1.059   2.121  0.00  0.00    -0.274 OA
ATOM     27  N   UNL     1       5.580   3.070   1.224  0.00  0.00    -0.301 N 
ATOM     28  C   UNL     1       5.571   4.027   0.108  0.00  0.00    +0.108 C 
ATOM     29  C   UNL     1       5.220   5.411   0.694  0.00  0.00    +0.020 C 
ATOM     30  C   UNL     1       5.615   5.264   2.187  0.00  0.00    +0.020 C 
ATOM     31  C   UNL     1       5.237   3.788   2.465  0.00  0.00    +0.108 C 
ENDBRANCH  24  25
BRANCH  24  33
ATOM     32  C   UNL     1       8.004   0.857  -1.913  0.00  0.00    +0.005 C 
ATOM     33  C   UNL     1       7.690   1.343  -0.496  0.00  0.00    +0.020 C 
ENDBRANCH  24  33
ENDBRANCH  23  24
ENDBRANCH   1  23
TORSDOF 5
