REMARK  Name = ZINC40800280
REMARK  4 active torsions:
REMARK  status: ('A' for Active; 'I' for Inactive)
REMARK    1  A    between atoms: C_3  and  N_8
REMARK    2  A    between atoms: C_10  and  N_24
REMARK    3  A    between atoms: C_11  and  N_15
REMARK    4  A    between atoms: N_15  and  C_16
REMARK                            x       y       z     vdW  Elec       q    Type
REMARK                         _______ _______ _______ _____ _____    ______ ____
ROOT
ATOM      1  N   UNL     1       3.611   2.001   0.046  0.00  0.00    -0.295 N 
ATOM      2  C   UNL     1       3.660   3.385  -0.077  0.00  0.00    +0.149 A 
ATOM      3  C   UNL     1       4.886   4.042  -0.206  0.00  0.00    +0.106 A 
ATOM      4  C   UNL     1       4.878   5.433  -0.326  0.00  0.00    +0.149 A 
ATOM      5  N   UNL     1       3.712   6.075  -0.313  0.00  0.00    -0.219 NA
ATOM      6  C   UNL     1       2.577   5.416  -0.189  0.00  0.00    +0.225 A 
ATOM      7  N   UNL     1       2.540   4.104  -0.079  0.00  0.00    -0.219 NA
ATOM      8  H   UNL     1       4.433   1.490   0.111  0.00  0.00    +0.154 HD
ENDROOT
BRANCH   1  11
ATOM      9  C   UNL     1       0.070   1.254   0.679  0.00  0.00    +0.022 A 
ATOM     10  C   UNL     1       1.273   1.943   0.676  0.00  0.00    +0.028 A 
ATOM     11  C   UNL     1       2.377   1.345   0.075  0.00  0.00    +0.070 A 
ATOM     12  C   UNL     1       2.233   0.085  -0.497  0.00  0.00    +0.150 A 
ATOM     13  N   UNL     1       1.070  -0.535  -0.472  0.00  0.00    -0.242 NA
ATOM     14  C   UNL     1       0.006   0.005   0.090  0.00  0.00    +0.112 A 
ATOM     15 CL   UNL     1       3.598  -0.677  -1.252  0.00  0.00    -0.060 Cl
ENDBRANCH   1  11
BRANCH   3  16
ATOM     16  N   UNL     1       6.092   3.324  -0.215  0.00  0.00    -0.353 N 
ATOM     17  H   UNL     1       6.082   2.358  -0.130  0.00  0.00    +0.143 HD
ATOM     18  H   UNL     1       6.935   3.795  -0.305  0.00  0.00    +0.143 HD
ENDBRANCH   3  16
BRANCH   4  19
ATOM     19  N   UNL     1       6.069   6.137  -0.457  0.00  0.00    -0.296 N 
ATOM     20  H   UNL     1       6.907   5.658  -0.555  0.00  0.00    +0.154 HD
BRANCH  19  21
ATOM     21  C   UNL     1       6.060   7.537  -0.447  0.00  0.00    +0.068 A 
ATOM     22  C   UNL     1       5.026   8.221   0.178  0.00  0.00    +0.029 A 
ATOM     23  C   UNL     1       5.019   9.603   0.187  0.00  0.00    +0.040 A 
ATOM     24  C   UNL     1       6.042  10.306  -0.426  0.00  0.00    +0.126 A 
ATOM     25  C   UNL     1       7.075   9.628  -1.050  0.00  0.00    +0.078 A 
ATOM     26  C   UNL     1       7.090   8.245  -1.056  0.00  0.00    +0.147 A 
ATOM     27  F   UNL     1       8.101   7.583  -1.660  0.00  0.00    -0.203 F 
ATOM     28  F   UNL     1       6.032  11.657  -0.415  0.00  0.00    -0.205 F 
ENDBRANCH  19  21
ENDBRANCH   4  19
TORSDOF 4
