REMARK  Name = ZINC02569717
REMARK  7 active torsions:
REMARK  status: ('A' for Active; 'I' for Inactive)
REMARK    1  A    between atoms: C_9  and  O_11
REMARK    2  A    between atoms: O_11  and  C_12
REMARK    3  A    between atoms: C_14  and  O_27
REMARK    4  A    between atoms: C_16  and  O_26
REMARK    5  A    between atoms: C_18  and  O_25
REMARK    6  A    between atoms: C_20  and  C_23
REMARK    7  A    between atoms: C_23  and  O_24
REMARK                            x       y       z     vdW  Elec       q    Type
REMARK                         _______ _______ _______ _____ _____    ______ ____
ROOT
ATOM      1  C   UNL     1       0.716  -0.499  -1.259  0.00  0.00    +0.339 C 
ATOM      2  C   UNL     1       0.002  -0.004   0.002  0.00  0.00    +0.214 C 
ATOM      3  C   UNL     1      -1.435  -0.535   0.010  0.00  0.00    +0.180 C 
ATOM      4  C   UNL     1      -1.402  -2.064  -0.077  0.00  0.00    +0.177 C 
ATOM      5  C   UNL     1      -0.636  -2.480  -1.336  0.00  0.00    +0.179 C 
ATOM      6  O   UNL     1       0.682  -1.927  -1.294  0.00  0.00    -0.331 OA
ENDROOT
BRANCH   4   7
ATOM      7  O   UNL     1      -0.749  -2.595   1.078  0.00  0.00    -0.386 OA
ATOM      8  H   UNL     1      -1.180  -2.366   1.913  0.00  0.00    +0.210 HD
ENDBRANCH   4   7
BRANCH   3   9
ATOM      9  O   UNL     1      -2.084  -0.139   1.219  0.00  0.00    -0.386 OA
ATOM     10  H   UNL     1      -2.134   0.818   1.343  0.00  0.00    +0.210 HD
ENDBRANCH   3   9
BRANCH   2  11
ATOM     11  O   UNL     1      -0.017   1.425   0.010  0.00  0.00    -0.383 OA
ATOM     12  H   UNL     1       0.861   1.830   0.004  0.00  0.00    +0.210 HD
ENDBRANCH   2  11
BRANCH   1  13
ATOM     13  O   UNL     1       2.073  -0.054  -1.244  0.00  0.00    -0.459 OA
BRANCH  13  22
ATOM     14  C   UNL     1       2.934  -0.988  -4.656  0.00  0.00    +0.004 A 
ATOM     15  C   UNL     1       4.235  -0.598  -4.749  0.00  0.00    +0.010 A 
ATOM     16  C   UNL     1       4.864  -0.001  -3.645  0.00  0.00    +0.004 A 
ATOM     17  C   UNL     1       6.208   0.415  -3.703  0.00  0.00    +0.011 A 
ATOM     18  C   UNL     1       6.754   0.988  -2.590  0.00  0.00    +0.020 A 
ATOM     19  C   UNL     1       5.983   1.146  -1.440  0.00  0.00    +0.111 A 
ATOM     20  N   UNL     1       4.732   0.757  -1.390  0.00  0.00    -0.251 NA
ATOM     21  C   UNL     1       4.136   0.194  -2.445  0.00  0.00    +0.113 A 
ATOM     22  C   UNL     1       2.792  -0.226  -2.384  0.00  0.00    +0.150 A 
ATOM     23  C   UNL     1       2.214  -0.803  -3.479  0.00  0.00    +0.048 A 
ENDBRANCH  13  22
ENDBRANCH   1  13
BRANCH   5  24
ATOM     24  C   UNL     1      -0.547  -4.006  -1.399  0.00  0.00    +0.190 C 
BRANCH  24  25
ATOM     25  O   UNL     1       0.065  -4.397  -2.629  0.00  0.00    -0.392 OA
ATOM     26  H   UNL     1       0.154  -5.354  -2.738  0.00  0.00    +0.210 HD
ENDBRANCH  24  25
ENDBRANCH   5  24
TORSDOF 7
