REMARK  Name = ZINC39084080
REMARK  5 active torsions:
REMARK  status: ('A' for Active; 'I' for Inactive)
REMARK    1  A    between atoms: C_1  and  C_2
REMARK    2  A    between atoms: C_2  and  C_4
REMARK    3  A    between atoms: C_2  and  N_17
REMARK    4  A    between atoms: N_6  and  C_7
REMARK    5  A    between atoms: C_12  and  C_14
REMARK                            x       y       z     vdW  Elec       q    Type
REMARK                         _______ _______ _______ _____ _____    ______ ____
ROOT
ATOM      1  C   UNL     1      -1.412  -0.526   0.013  0.00  0.00    +0.199 C 
ATOM      2  O   UNL     1      -1.790  -1.233   0.922  0.00  0.00    -0.278 OA
ATOM      3  N   UNL     1      -2.256  -0.206  -0.988  0.00  0.00    -0.310 N 
ATOM      4  H   UNL     1      -1.953   0.360  -1.716  0.00  0.00    +0.149 HD
ENDROOT
BRANCH   3   5
ATOM      5  C   UNL     1      -3.630  -0.713  -0.978  0.00  0.00    +0.100 C 
ATOM      6  C   UNL     1      -4.523   0.226  -1.787  0.00  0.00    +0.053 C 
ATOM      7  C   UNL     1      -4.191   0.121  -3.252  0.00  0.00    -0.024 C 
ATOM      8  C   UNL     1      -3.832  -1.042  -3.776  0.00  0.00    +0.011 C 
ATOM      9  C   UNL     1      -3.754  -2.242  -2.915  0.00  0.00    +0.061 C 
ATOM     10  C   UNL     1      -3.659  -2.093  -1.581  0.00  0.00    +0.010 C 
BRANCH   9  11
ATOM     11  C   UNL     1      -3.780  -3.590  -3.513  0.00  0.00    +0.386 C 
ATOM     12  O   UNL     1      -3.716  -4.578  -2.796  0.00  0.00    -0.241 OA
ATOM     13  O   UNL     1      -3.868  -3.719  -4.726  0.00  0.00    -0.241 OA
ENDBRANCH   9  11
ENDBRANCH   3   5
BRANCH   1  15
ATOM     14  C   UNL     1      -0.019   1.526   0.010  0.00  0.00    -0.005 C 
ATOM     15  C   UNL     1       0.002  -0.004   0.002  0.00  0.00    +0.010 C 
BRANCH  15  16
ATOM     16  N   UNL     1       0.713  -0.491   1.192  0.00  0.00    +0.385 N 
ATOM     17  H   UNL     1       0.240  -0.165   2.022  0.00  0.00    -0.089 HD
ATOM     18  H   UNL     1       0.726  -1.500   1.187  0.00  0.00    -0.089 HD
ATOM     19  H   UNL     1       1.659  -0.141   1.185  0.00  0.00    -0.089 HD
ENDBRANCH  15  16
ENDBRANCH   1  15
TORSDOF 4
