REMARK  Name = ZINC13557214
REMARK  8 active torsions:
REMARK  status: ('A' for Active; 'I' for Inactive)
REMARK    1  A    between atoms: C_6  and  C_7
REMARK    2  A    between atoms: C_7  and  C_8
REMARK    3  A    between atoms: C_8  and  N_9
REMARK    4  A    between atoms: N_21  and  C_22
REMARK    5  A    between atoms: C_22  and  C_24
REMARK    6  A    between atoms: C_24  and  O_25
REMARK    7  A    between atoms: O_25  and  C_26
REMARK    8  A    between atoms: C_26  and  C_27
REMARK                            x       y       z     vdW  Elec       q    Type
REMARK                         _______ _______ _______ _____ _____    ______ ____
ROOT
ATOM      1  N   UNL     1      -3.004  -1.777  -1.421  0.00  0.00    -0.306 N 
ATOM      2  C   UNL     1      -3.110  -3.209  -1.422  0.00  0.00    +0.111 C 
ATOM      3  C   UNL     1      -1.948  -4.178  -1.405  0.00  0.00    +0.189 C 
ATOM      4  S   UNL     1      -2.823  -5.720  -0.865  0.00  0.00    -0.028 S 
ATOM      5  O   UNL     1      -2.225  -6.198   0.332  0.00  0.00    -0.174 OA
ATOM      6  O   UNL     1      -2.956  -6.593  -1.979  0.00  0.00    -0.174 OA
ATOM      7  C   UNL     1      -4.481  -4.989  -0.465  0.00  0.00    +0.182 C 
ATOM      8  C   UNL     1      -4.004  -3.547  -0.167  0.00  0.00    +0.097 C 
ATOM      9  S   UNL     1      -5.250  -2.254  -0.507  0.00  0.00    -0.086 S 
ATOM     10  C   UNL     1      -4.277  -1.203  -1.406  0.00  0.00    +0.150 C 
ATOM     11  N   UNL     1      -4.650  -0.065  -1.980  0.00  0.00    -0.157 NA
ENDROOT
BRANCH  11  12
ATOM     12  C   UNL     1      -5.909   0.353  -1.874  0.00  0.00    +0.264 C 
ATOM     13  O   UNL     1      -6.718  -0.308  -1.253  0.00  0.00    -0.271 OA
BRANCH  12  14
ATOM     14  C   UNL     1      -6.332   1.644  -2.525  0.00  0.00    +0.258 C 
BRANCH  14  15
ATOM     15  O   UNL     1      -7.719   1.874  -2.272  0.00  0.00    -0.359 OA
BRANCH  15  16
ATOM     16  C   UNL     1      -8.224   3.080  -2.849  0.00  0.00    +0.285 C 
BRANCH  16  17
ATOM     17  C   UNL     1      -9.688   3.220  -2.521  0.00  0.00    +0.381 C 
ATOM     18  O   UNL     1     -10.247   2.366  -1.854  0.00  0.00    -0.244 OA
ATOM     19  O   UNL     1     -10.313   4.187  -2.921  0.00  0.00    -0.244 OA
ENDBRANCH  16  17
ENDBRANCH  15  16
ENDBRANCH  14  15
ENDBRANCH  12  14
ENDBRANCH  11  12
BRANCH   1  20
ATOM     20  C   UNL     1      -1.745  -1.028  -1.429  0.00  0.00    +0.112 C 
BRANCH  20  21
ATOM     21  C   UNL     1      -1.293  -0.775   0.010  0.00  0.00    +0.054 C 
BRANCH  21  27
ATOM     22  C   UNL     1      -0.017   1.378   0.010  0.00  0.00    +0.006 A 
ATOM     23  C   UNL     1       1.170   2.086   0.002  0.00  0.00    +0.038 A 
ATOM     24  C   UNL     1       2.379   1.410  -0.013  0.00  0.00    +0.123 A 
ATOM     25  C   UNL     1       2.396   0.026  -0.021  0.00  0.00    +0.038 A 
ATOM     26  C   UNL     1       1.208  -0.680  -0.013  0.00  0.00    +0.006 A 
ATOM     27  C   UNL     1       0.002  -0.004   0.002  0.00  0.00    -0.046 A 
ATOM     28  F   UNL     1       3.540   2.101  -0.021  0.00  0.00    -0.205 F 
ENDBRANCH  21  27
ENDBRANCH  20  21
ENDBRANCH   1  20
TORSDOF 8
