REMARK  Name = ZINC50708903
REMARK  5 active torsions:
REMARK  status: ('A' for Active; 'I' for Inactive)
REMARK    1  A    between atoms: C_1  and  C_2
REMARK    2  A    between atoms: C_7  and  C_9
REMARK    3  A    between atoms: C_7  and  C_10
REMARK    4  A    between atoms: C_11  and  C_13
REMARK    5  A    between atoms: C_15  and  N_20
REMARK                            x       y       z     vdW  Elec       q    Type
REMARK                         _______ _______ _______ _____ _____    ______ ____
ROOT
ATOM      1  C   UNL     1      -0.956   1.086   0.371  0.00  0.00    +0.039 C 
ATOM      2  C   UNL     1      -0.642  -0.403   0.215  0.00  0.00    +0.133 C 
ATOM      3  C   UNL     1       0.230  -0.615  -1.028  0.00  0.00    +0.139 C 
ATOM      4  N   UNL     1       0.672  -2.018  -1.051  0.00  0.00    -0.292 N 
ATOM      5  C   UNL     1       1.282  -2.571   0.169  0.00  0.00    +0.142 C 
ATOM      6  C   UNL     1       0.359  -2.264   1.353  0.00  0.00    +0.080 C 
ATOM      7  O   UNL     1       0.063  -0.866   1.370  0.00  0.00    -0.368 OA
ATOM      8  C   UNL     1       1.056  -2.654   2.659  0.00  0.00    +0.043 C 
ATOM      9  C   UNL     1      -0.940  -3.059   1.209  0.00  0.00    +0.043 C 
ATOM     10  C   UNL     1       0.523  -2.775  -2.156  0.00  0.00    +0.247 C 
ATOM     11  O   UNL     1       0.955  -3.910  -2.179  0.00  0.00    -0.270 OA
ENDROOT
BRANCH  10  12
ATOM     12  C   UNL     1      -0.169  -2.222  -3.344  0.00  0.00    +0.043 A 
ATOM     13  C   UNL     1       0.155  -0.957  -3.837  0.00  0.00    +0.056 A 
ATOM     14  C   UNL     1      -0.518  -0.477  -4.955  0.00  0.00    +0.119 A 
ATOM     15  N   UNL     1      -1.453  -1.205  -5.546  0.00  0.00    -0.221 NA
ATOM     16  C   UNL     1      -1.785  -2.404  -5.107  0.00  0.00    +0.132 A 
ATOM     17  C   UNL     1      -1.160  -2.956  -4.005  0.00  0.00    +0.053 A 
ATOM     18 CL   UNL     1      -3.020  -3.305  -5.929  0.00  0.00    -0.062 Cl
BRANCH  14  19
ATOM     19  N   UNL     1      -0.207   0.781  -5.458  0.00  0.00    -0.343 N 
ATOM     20  H   UNL     1       0.477   1.319  -5.029  0.00  0.00    +0.144 HD
ATOM     21  H   UNL     1      -0.673   1.121  -6.237  0.00  0.00    +0.144 HD
ENDBRANCH  14  19
ENDBRANCH  10  12
TORSDOF 2
