REMARK  Name = ZINC43560522
REMARK  3 active torsions:
REMARK  status: ('A' for Active; 'I' for Inactive)
REMARK    1  A    between atoms: C_5  and  C_7
REMARK    2  A    between atoms: C_9  and  C_12
REMARK    3  A    between atoms: C_17  and  N_18
REMARK                            x       y       z     vdW  Elec       q    Type
REMARK                         _______ _______ _______ _____ _____    ______ ____
ROOT
ATOM      1  C   UNL     1       1.806  -2.585   0.598  0.00  0.00    +0.203 A 
ATOM      2  N   UNL     1       0.631  -3.230   0.524  0.00  0.00    -0.187 NA
ATOM      3  C   UNL     1       0.834  -4.501   0.264  0.00  0.00    +0.261 A 
ATOM      4  O   UNL     1       2.160  -4.703   0.164  0.00  0.00    -0.332 OA
ATOM      5  N   UNL     1       2.774  -3.442   0.380  0.00  0.00    -0.056 NA
ENDROOT
BRANCH   3   6
ATOM      6  C   UNL     1      -0.211  -5.531   0.108  0.00  0.00    +0.063 A 
ATOM      7  C   UNL     1      -1.254  -5.617   1.034  0.00  0.00    +0.035 A 
ATOM      8  C   UNL     1      -2.229  -6.581   0.883  0.00  0.00    +0.043 A 
ATOM      9  C   UNL     1      -2.180  -7.466  -0.183  0.00  0.00    +0.042 A 
ATOM     10  C   UNL     1      -1.155  -7.392  -1.105  0.00  0.00    +0.064 A 
ATOM     11  C   UNL     1      -0.167  -6.423  -0.972  0.00  0.00    +0.056 A 
ATOM     12 CL   UNL     1      -1.103  -8.506  -2.436  0.00  0.00    -0.082 Cl
ATOM     13 CL   UNL     1      -3.524  -6.687   2.034  0.00  0.00    -0.083 Cl
BRANCH  11  14
ATOM     14  N   UNL     1       0.864  -6.343  -1.904  0.00  0.00    -0.356 N 
ATOM     15  H   UNL     1       1.500  -5.612  -1.861  0.00  0.00    +0.142 HD
ATOM     16  H   UNL     1       0.946  -7.017  -2.596  0.00  0.00    +0.142 HD
ENDBRANCH  11  14
ENDBRANCH   3   6
BRANCH   1  21
ATOM     17  C   UNL     1       1.034   1.018   1.345  0.00  0.00    +0.001 A 
ATOM     18  C   UNL     1       2.305   1.564   1.389  0.00  0.00    +0.001 A 
ATOM     19  C   UNL     1       3.414   0.766   1.177  0.00  0.00    +0.016 A 
ATOM     20  C   UNL     1       3.258  -0.582   0.920  0.00  0.00    +0.029 A 
ATOM     21  C   UNL     1       1.980  -1.137   0.875  0.00  0.00    +0.036 A 
ATOM     22  C   UNL     1       0.867  -0.327   1.089  0.00  0.00    +0.013 A 
ATOM     23 BR   UNL     1       4.775  -1.673   0.629  0.00  0.00    -0.050 Br
ENDBRANCH   1  21
TORSDOF 3
