REMARK  Name = ZINC05681022
REMARK  4 active torsions:
REMARK  status: ('A' for Active; 'I' for Inactive)
REMARK    1  A    between atoms: C_6  and  C_7
REMARK    2  A    between atoms: C_7  and  N_8
REMARK    3  A    between atoms: C_9  and  C_11
REMARK    4  A    between atoms: C_11  and  N_12
REMARK                            x       y       z     vdW  Elec       q    Type
REMARK                         _______ _______ _______ _____ _____    ______ ____
ROOT
ATOM      1  N   UNL     1       0.002  -0.004   0.002  0.00  0.00    -0.215 N 
ATOM      2  C   UNL     1       0.023  -0.769   1.114  0.00  0.00    +0.251 C 
ATOM      3  O   UNL     1       0.030  -0.391   2.266  0.00  0.00    -0.272 OA
ATOM      4  C   UNL     1       0.037  -2.194   0.620  0.00  0.00    +0.139 C 
ATOM      5  C   UNL     1       1.283  -2.927   1.095  0.00  0.00    +0.040 C 
ATOM      6  C   UNL     1       1.197  -4.410   0.719  0.00  0.00    +0.008 C 
ATOM      7  C   UNL     1       0.096  -5.073   1.559  0.00  0.00    +0.043 C 
ATOM      8  C   UNL     1      -1.126  -4.216   1.506  0.00  0.00    -0.005 A 
ATOM      9  C   UNL     1      -1.211  -2.920   1.094  0.00  0.00    -0.005 A 
ATOM     10  C   UNL     1      -2.476  -2.335   1.139  0.00  0.00    +0.014 A 
ATOM     11  C   UNL     1      -3.538  -3.049   1.575  0.00  0.00    +0.046 A 
ATOM     12  S   UNL     1      -2.791  -4.627   1.954  0.00  0.00    -0.101 S 
ATOM     13  N   UNL     1       0.020  -2.071  -0.841  0.00  0.00    -0.281 N 
ATOM     14  C   UNL     1      -0.004  -0.751  -1.109  0.00  0.00    +0.310 C 
ATOM     15  O   UNL     1      -0.026  -0.290  -2.234  0.00  0.00    -0.252 OA
ATOM     16  H   UNL     1       0.022  -2.796  -1.486  0.00  0.00    +0.152 HD
ENDROOT
BRANCH   1  17
ATOM     17  C   UNL     1      -0.018   1.461   0.010  0.00  0.00    +0.213 C 
BRANCH  17  19
ATOM     18  N   UNL     1       1.624   3.311   0.004  0.00  0.00    -0.310 N 
ATOM     19  C   UNL     1       1.396   1.982  -0.001  0.00  0.00    +0.231 C 
ATOM     20  O   UNL     1       2.328   1.207  -0.014  0.00  0.00    -0.274 OA
ATOM     21  H   UNL     1       0.879   3.931   0.015  0.00  0.00    +0.149 HD
BRANCH  18  22
ATOM     22  C   UNL     1       2.999   3.818  -0.006  0.00  0.00    +0.139 C 
BRANCH  22  28
ATOM     23  C   UNL     1       2.980   6.008   1.204  0.00  0.00    +0.009 A 
ATOM     24  C   UNL     1       2.961   7.390   1.216  0.00  0.00    +0.050 A 
ATOM     25  C   UNL     1       2.941   8.094   0.024  0.00  0.00    +0.166 A 
ATOM     26  C   UNL     1       2.939   7.406  -1.187  0.00  0.00    +0.167 A 
ATOM     27  C   UNL     1       2.963   6.021  -1.192  0.00  0.00    +0.054 A 
ATOM     28  C   UNL     1       2.978   5.325   0.002  0.00  0.00    -0.027 A 
ATOM     29  O   UNL     1       2.917   8.315  -2.205  0.00  0.00    -0.453 OA
ATOM     30  C   UNL     1       3.318   9.565  -1.614  0.00  0.00    +0.466 C 
ATOM     31  O   UNL     1       2.920   9.434  -0.236  0.00  0.00    -0.453 OA
ENDBRANCH  22  28
ENDBRANCH  18  22
ENDBRANCH  17  19
ENDBRANCH   1  17
TORSDOF 4
