REMARK  Name = ZINC44257213
REMARK  8 active torsions:
REMARK  status: ('A' for Active; 'I' for Inactive)
REMARK    1  A    between atoms: C_2  and  C_18
REMARK    2  A    between atoms: C_6  and  S_7
REMARK    3  A    between atoms: S_7  and  N_10
REMARK    4  A    between atoms: N_10  and  C_11
REMARK    5  A    between atoms: C_11  and  C_12
REMARK    6  A    between atoms: C_19  and  C_20
REMARK    7  A    between atoms: C_20  and  C_21
REMARK    8  A    between atoms: C_21  and  O_22
REMARK                            x       y       z     vdW  Elec       q    Type
REMARK                         _______ _______ _______ _____ _____    ______ ____
ROOT
ATOM      1  C   UNL     1      -0.017   1.379   0.010  0.00  0.00    +0.048 A 
ATOM      2  C   UNL     1       1.206   2.060   0.002  0.00  0.00    +0.045 A 
ATOM      3  C   UNL     1       2.389   1.319  -0.014  0.00  0.00    +0.127 A 
ATOM      4  N   UNL     1       2.355   0.003  -0.020  0.00  0.00    -0.260 NA
ATOM      5  C   UNL     1       1.217  -0.665  -0.013  0.00  0.00    +0.139 A 
ATOM      6  C   UNL     1       0.002  -0.004   0.002  0.00  0.00    +0.124 A 
ENDROOT
BRANCH   6   7
ATOM      7  S   UNL     1      -1.506  -0.915   0.012  0.00  0.00    +0.060 S 
ATOM      8  O   UNL     1      -1.205  -2.194   0.553  0.00  0.00    -0.153 OA
ATOM      9  O   UNL     1      -2.492  -0.062   0.577  0.00  0.00    -0.153 OA
BRANCH   7  10
ATOM     10  N   UNL     1      -1.941  -1.159  -1.567  0.00  0.00    -0.185 NA
ATOM     11  H   UNL     1      -2.751  -0.755  -1.915  0.00  0.00    +0.148 HD
BRANCH  10  12
ATOM     12  C   UNL     1      -1.102  -1.986  -2.438  0.00  0.00    +0.144 C 
BRANCH  12  13
ATOM     13  C   UNL     1      -1.875  -2.355  -3.678  0.00  0.00    +0.005 A 
ATOM     14  C   UNL     1      -2.659  -3.448  -3.832  0.00  0.00    +0.109 A 
ATOM     15  N   UNL     1      -3.171  -3.413  -5.080  0.00  0.00    -0.284 N 
ATOM     16  H   UNL     1      -3.769  -4.070  -5.470  0.00  0.00    +0.188 HD
ATOM     17  N   UNL     1      -2.687  -2.261  -5.713  0.00  0.00    -0.182 NA
ATOM     18  C   UNL     1      -1.916  -1.625  -4.870  0.00  0.00    +0.139 A 
ENDBRANCH  12  13
ENDBRANCH  10  12
ENDBRANCH   7  10
ENDBRANCH   6   7
BRANCH   2  19
ATOM     19  C   UNL     1       1.244   3.491   0.009  0.00  0.00    -0.065 C 
ATOM     20  C   UNL     1       1.274   4.665   0.014  0.00  0.00    -0.095 C 
BRANCH  20  21
ATOM     21  C   UNL     1       1.312   6.136   0.021  0.00  0.00    +0.117 C 
BRANCH  21  22
ATOM     22  C   UNL     1       2.767   6.609   0.010  0.00  0.00    +0.168 C 
BRANCH  22  23
ATOM     23  O   UNL     1       2.804   8.037   0.017  0.00  0.00    -0.394 OA
ATOM     24  H   UNL     1       3.698   8.408   0.010  0.00  0.00    +0.209 HD
ENDBRANCH  22  23
ENDBRANCH  21  22
ENDBRANCH  20  21
ENDBRANCH   2  19
TORSDOF 8
