REMARK  Name = ZINC21956265
REMARK  6 active torsions:
REMARK  status: ('A' for Active; 'I' for Inactive)
REMARK    1  A    between atoms: C_1  and  C_2
REMARK    2  A    between atoms: C_4  and  N_20
REMARK    3  A    between atoms: C_7  and  N_8
REMARK    4  A    between atoms: N_11  and  C_12
REMARK    5  A    between atoms: C_17  and  O_18
REMARK    6  A    between atoms: O_18  and  C_19
REMARK                            x       y       z     vdW  Elec       q    Type
REMARK                         _______ _______ _______ _____ _____    ______ ____
ROOT
ATOM      1  N   UNL     1      -4.872   3.685   0.054  0.00  0.00    -0.269 N 
ATOM      2  C   UNL     1      -4.892   5.028   0.157  0.00  0.00    +0.308 C 
ATOM      3  O   UNL     1      -3.850   5.654   0.155  0.00  0.00    -0.252 OA
ATOM      4  N   UNL     1      -6.068   5.678   0.264  0.00  0.00    -0.266 N 
ATOM      5  H   UNL     1      -5.814   3.126  -0.037  0.00  0.00    +0.156 HD
ATOM      6  H   UNL     1      -7.006   5.109   0.344  0.00  0.00    +0.156 HD
ENDROOT
BRANCH   1  13
ATOM      7  C   UNL     1      -4.753   1.133  -1.196  0.00  0.00    +0.046 C 
ATOM      8  C   UNL     1      -3.548   1.751  -0.536  0.00  0.00    -0.027 A 
ATOM      9  C   UNL     1      -2.343   1.077  -0.527  0.00  0.00    +0.028 A 
ATOM     10  C   UNL     1      -1.232   1.647   0.081  0.00  0.00    +0.025 A 
ATOM     11  C   UNL     1      -1.335   2.893   0.685  0.00  0.00    +0.024 A 
ATOM     12  C   UNL     1      -2.538   3.570   0.671  0.00  0.00    +0.025 A 
ATOM     13  C   UNL     1      -3.648   3.000   0.063  0.00  0.00    +0.038 A 
BRANCH  10  14
ATOM     14  N   UNL     1      -0.011   0.963   0.089  0.00  0.00    -0.358 N 
ATOM     15  H   UNL     1       0.869   1.415   0.571  0.00  0.00    +0.142 HD
ATOM     16  H   UNL     1       0.069  -0.026  -0.385  0.00  0.00    +0.142 HD
ENDBRANCH  10  14
ENDBRANCH   1  13
BRANCH   4  17
ATOM     17  C   UNL     1      -6.096   7.079   0.272  0.00  0.00    +0.077 A 
ATOM     18  C   UNL     1      -5.069   7.792   0.872  0.00  0.00    +0.027 A 
ATOM     19  C   UNL     1      -5.096   9.174   0.874  0.00  0.00    +0.002 A 
ATOM     20  C   UNL     1      -6.152   9.849   0.289  0.00  0.00    +0.004 A 
ATOM     21  C   UNL     1      -7.182   9.145  -0.306  0.00  0.00    +0.047 A 
ATOM     22  C   UNL     1      -7.159   7.760  -0.318  0.00  0.00    +0.141 A 
BRANCH  22  23
ATOM     23  O   UNL     1      -8.172   7.066  -0.902  0.00  0.00    -0.493 OA
ATOM     24  C   UNL     1      -9.229   7.830  -1.487  0.00  0.00    +0.277 C 
ENDBRANCH  22  23
ENDBRANCH   4  17
TORSDOF 4
