REMARK  Name = ZINC35839028
REMARK  10 active torsions:
REMARK  status: ('A' for Active; 'I' for Inactive)
REMARK    1  A    between atoms: C_6  and  O_7
REMARK    2  A    between atoms: O_7  and  C_8
REMARK    3  A    between atoms: C_8  and  C_9
REMARK    4  A    between atoms: C_9  and  C_11
REMARK    5  A    between atoms: C_9  and  O_35
REMARK    6  A    between atoms: C_11  and  N_12
REMARK    7  A    between atoms: N_15  and  C_18
REMARK    8  A    between atoms: C_18  and  C_19
REMARK    9  A    between atoms: C_21  and  C_24
REMARK   10  A    between atoms: N_26  and  C_27
REMARK                            x       y       z     vdW  Elec       q    Type
REMARK                         _______ _______ _______ _____ _____    ______ ____
ROOT
ATOM      1  N   UNL     1      -3.674  -4.859   0.140  0.00  0.00    -0.303 NA
ATOM      2  C   UNL     1      -4.403  -4.463   1.353  0.00  0.00    +0.066 C 
ATOM      3  C   UNL     1      -5.824  -5.027   1.298  0.00  0.00    -0.063 C 
ATOM      4  N   UNL     1      -5.767  -6.491   1.196  0.00  0.00    +0.387 N 
ATOM      5  C   UNL     1      -5.058  -6.871  -0.034  0.00  0.00    -0.063 C 
ATOM      6  C   UNL     1      -3.630  -6.322   0.011  0.00  0.00    +0.066 C 
ATOM      7  H   UNL     1      -5.277  -6.865   1.995  0.00  0.00    -0.081 HD
ENDROOT
BRANCH   1   8
ATOM      8  C   UNL     1      -2.320  -4.288   0.129  0.00  0.00    +0.119 C 
BRANCH   8   9
ATOM      9  C   UNL     1      -2.410  -2.765   0.013  0.00  0.00    +0.166 C 
BRANCH   9  10
ATOM     10  O   UNL     1      -3.083  -2.418  -1.199  0.00  0.00    -0.387 OA
ATOM     11  H   UNL     1      -2.644  -2.740  -1.998  0.00  0.00    +0.210 HD
ENDBRANCH   9  10
BRANCH   9  12
ATOM     12  C   UNL     1      -1.000  -2.171   0.002  0.00  0.00    +0.261 C 
BRANCH  12  13
ATOM     13  O   UNL     1      -1.084  -0.744   0.011  0.00  0.00    -0.489 OA
BRANCH  13  19
ATOM     14  C   UNL     1       0.080   1.330   0.011  0.00  0.00    +0.047 A 
ATOM     15  C   UNL     1       1.273   2.027   0.003  0.00  0.00    +0.023 A 
ATOM     16  C   UNL     1       2.475   1.343  -0.013  0.00  0.00    +0.041 A 
ATOM     17  C   UNL     1       2.485  -0.041  -0.021  0.00  0.00    +0.023 A 
ATOM     18  C   UNL     1       1.295  -0.741  -0.014  0.00  0.00    +0.047 A 
ATOM     19  C   UNL     1       0.088  -0.057   0.003  0.00  0.00    +0.121 A 
ATOM     20 CL   UNL     1       3.973   2.221  -0.024  0.00  0.00    -0.084 Cl
ENDBRANCH  13  19
ENDBRANCH  12  13
ENDBRANCH   9  12
ENDBRANCH   8   9
ENDBRANCH   1   8
BRANCH   4  21
ATOM     21  C   UNL     1      -7.131  -7.033   1.160  0.00  0.00    +0.019 C 
BRANCH  21  22
ATOM     22  C   UNL     1      -7.075  -8.539   1.180  0.00  0.00    +0.179 A 
ATOM     23  N   UNL     1      -7.083  -9.278   2.248  0.00  0.00    -0.210 NA
ATOM     24  C   UNL     1      -7.020 -10.584   1.870  0.00  0.00    +0.164 A 
ATOM     25  C   UNL     1      -6.972 -10.604   0.510  0.00  0.00    +0.230 A 
ATOM     26  O   UNL     1      -7.013  -9.327   0.097  0.00  0.00    -0.449 OA
BRANCH  24  27
ATOM     27  C   UNL     1      -7.007 -11.755   2.764  0.00  0.00    +0.270 C 
ATOM     28  O   UNL     1      -6.947 -12.877   2.297  0.00  0.00    -0.268 OA
ATOM     29  N   UNL     1      -7.060 -11.584   4.100  0.00  0.00    -0.280 N 
ATOM     30  H   UNL     1      -7.040 -10.690   4.475  0.00  0.00    +0.155 HD
BRANCH  29  31
ATOM     31  C   UNL     1      -7.144 -12.696   4.945  0.00  0.00    +0.035 A 
ATOM     32  C   UNL     1      -7.892 -12.626   6.114  0.00  0.00    +0.026 A 
ATOM     33  C   UNL     1      -7.974 -13.724   6.947  0.00  0.00    +0.041 A 
ATOM     34  C   UNL     1      -7.312 -14.895   6.619  0.00  0.00    +0.142 A 
ATOM     35  C   UNL     1      -6.566 -14.968   5.454  0.00  0.00    +0.078 A 
ATOM     36  C   UNL     1      -6.486 -13.873   4.614  0.00  0.00    +0.046 A 
ATOM     37 CL   UNL     1      -5.738 -16.438   5.044  0.00  0.00    -0.081 Cl
ATOM     38  F   UNL     1      -7.394 -15.968   7.436  0.00  0.00    -0.204 F 
ENDBRANCH  29  31
ENDBRANCH  24  27
ENDBRANCH  21  22
ENDBRANCH   4  21
TORSDOF 10
