REMARK  Name = ZINC49881288
REMARK  8 active torsions:
REMARK  status: ('A' for Active; 'I' for Inactive)
REMARK    1  A    between atoms: C_1  and  C_2
REMARK    2  A    between atoms: C_2  and  C_3
REMARK    3  A    between atoms: C_2  and  C_4
REMARK    4  A    between atoms: C_4  and  C_6
REMARK    5  A    between atoms: C_4  and  N_20
REMARK    6  A    between atoms: N_8  and  N_9
REMARK    7  A    between atoms: C_10  and  C_12
REMARK    8  A    between atoms: C_12  and  C_13
REMARK                            x       y       z     vdW  Elec       q    Type
REMARK                         _______ _______ _______ _____ _____    ______ ____
ROOT
ATOM      1  C   UNL     1      -1.413  -2.041   0.005  0.00  0.00    +0.215 C 
ATOM      2  O   UNL     1      -1.577  -2.655   1.037  0.00  0.00    -0.276 OA
ATOM      3  N   UNL     1      -1.212  -2.705  -1.150  0.00  0.00    -0.236 N 
ATOM      4  H   UNL     1      -1.081  -2.214  -1.976  0.00  0.00    +0.173 HD
ENDROOT
BRANCH   3   5
ATOM      5  N   UNL     1      -1.193  -4.106  -1.158  0.00  0.00    -0.234 N 
ATOM      6  C   UNL     1      -0.992  -4.771  -2.313  0.00  0.00    +0.233 C 
ATOM      7  O   UNL     1      -0.828  -4.157  -3.346  0.00  0.00    -0.274 OA
ATOM      8  H   UNL     1      -1.324  -4.598  -0.332  0.00  0.00    +0.173 HD
BRANCH   6   9
ATOM      9  C   UNL     1      -0.972  -6.278  -2.321  0.00  0.00    +0.132 C 
BRANCH   9  10
ATOM     10  C   UNL     1      -0.732  -6.769  -3.726  0.00  0.00    -0.038 A 
ATOM     11  C   UNL     1      -1.802  -7.004  -4.568  0.00  0.00    +0.005 A 
ATOM     12  C   UNL     1      -1.583  -7.455  -5.856  0.00  0.00    +0.020 A 
ATOM     13  C   UNL     1      -0.291  -7.671  -6.302  0.00  0.00    +0.041 A 
ATOM     14  C   UNL     1       0.780  -7.436  -5.459  0.00  0.00    +0.020 A 
ATOM     15  C   UNL     1       0.559  -6.980  -4.173  0.00  0.00    +0.005 A 
ATOM     16 CL   UNL     1      -0.015  -8.238  -7.920  0.00  0.00    -0.084 Cl
ENDBRANCH   9  10
ENDBRANCH   6   9
ENDBRANCH   3   5
BRANCH   1  17
ATOM     17  C   UNL     1      -1.433  -0.534   0.013  0.00  0.00    +0.017 C 
BRANCH  17  18
ATOM     18  N   UNL     1      -2.121  -0.060   1.222  0.00  0.00    +0.386 N 
ATOM     19  H   UNL     1      -3.067  -0.409   1.229  0.00  0.00    -0.089 HD
ATOM     20  H   UNL     1      -1.633  -0.394   2.039  0.00  0.00    -0.089 HD
ATOM     21  H   UNL     1      -2.135   0.949   1.227  0.00  0.00    -0.089 HD
ENDBRANCH  17  18
BRANCH  17  23
ATOM     22  C   UNL     1      -0.019   1.526   0.010  0.00  0.00    +0.006 C 
ATOM     23  C   UNL     1       0.002  -0.004   0.002  0.00  0.00    -0.023 C 
ATOM     24  C   UNL     1       0.742  -0.511   1.242  0.00  0.00    +0.006 C 
ENDBRANCH  17  23
ENDBRANCH   1  17
TORSDOF 6
