REMARK  Name = ZINC08313220
REMARK  6 active torsions:
REMARK  status: ('A' for Active; 'I' for Inactive)
REMARK    1  A    between atoms: C_1  and  C_2
REMARK    2  A    between atoms: C_2  and  C_4
REMARK    3  A    between atoms: C_2  and  S_19
REMARK    4  A    between atoms: N_6  and  C_7
REMARK    5  A    between atoms: C_8  and  C_17
REMARK    6  A    between atoms: S_19  and  C_20
REMARK                            x       y       z     vdW  Elec       q    Type
REMARK                         _______ _______ _______ _____ _____    ______ ____
ROOT
ATOM      1  C   UNL     1      -5.101   3.195  -0.063  0.00  0.00    +0.231 C 
ATOM      2  O   UNL     1      -5.610   2.162   0.318  0.00  0.00    -0.274 OA
ATOM      3  N   UNL     1      -5.870   4.175  -0.578  0.00  0.00    -0.278 N 
ATOM      4  H   UNL     1      -5.463   5.002  -0.882  0.00  0.00    +0.155 HD
ENDROOT
BRANCH   3   5
ATOM      5  C   UNL     1      -7.244   4.002  -0.672  0.00  0.00    +0.090 A 
ATOM      6  C   UNL     1      -8.191   4.884  -1.167  0.00  0.00    +0.084 A 
ATOM      7  C   UNL     1      -9.583   4.458  -1.158  0.00  0.00    -0.018 A 
ATOM      8  C   UNL     1      -9.799   3.226  -0.648  0.00  0.00    -0.004 A 
ATOM      9  S   UNL     1      -8.190   2.628  -0.207  0.00  0.00    -0.077 S 
ATOM     10  C   UNL     1     -11.108   2.517  -0.488  0.00  0.00    +0.043 C 
ATOM     11  C   UNL     1     -11.889   2.596  -1.807  0.00  0.00    +0.005 C 
ATOM     12  C   UNL     1     -12.739   3.862  -1.791  0.00  0.00    +0.001 C 
ATOM     13  C   UNL     1     -12.023   4.966  -1.016  0.00  0.00    +0.005 C 
ATOM     14  C   UNL     1     -10.709   5.331  -1.698  0.00  0.00    +0.037 C 
BRANCH   6  15
ATOM     15  C   UNL     1      -7.813   6.170  -1.670  0.00  0.00    +0.102 C 
ATOM     16  N   UNL     1      -7.513   7.190  -2.069  0.00  0.00    -0.191 NA
ENDBRANCH   6  15
ENDBRANCH   3   5
BRANCH   1  18
ATOM     17  C   UNL     1      -3.277   4.124   1.336  0.00  0.00    +0.029 C 
ATOM     18  C   UNL     1      -3.609   3.383   0.040  0.00  0.00    +0.137 C 
BRANCH  18  19
ATOM     19  S   UNL     1      -2.796   1.766   0.044  0.00  0.00    -0.074 S 
BRANCH  19  20
ATOM     20  C   UNL     1      -1.109   2.272   0.017  0.00  0.00    +0.192 A 
ATOM     21  N   UNL     1      -0.661   3.508   0.000  0.00  0.00    -0.122 NA
ATOM     22  N   UNL     1       0.626   3.508  -0.010  0.00  0.00    -0.134 NA
ATOM     23  C   UNL     1       1.069   2.286   0.004  0.00  0.00    +0.134 A 
ATOM     24  N   UNL     1      -0.018   1.458   0.010  0.00  0.00    -0.306 N 
ATOM     25  C   UNL     1       0.002  -0.004   0.002  0.00  0.00    +0.125 C 
ATOM     26  C   UNL     1       1.290  -0.497   0.668  0.00  0.00    +0.022 C 
ATOM     27  C   UNL     1       2.395  -0.627  -0.379  0.00  0.00    +0.002 C 
ATOM     28  C   UNL     1       2.697   0.726  -1.015  0.00  0.00    +0.008 C 
ATOM     29  C   UNL     1       2.507   1.836   0.023  0.00  0.00    +0.076 C 
ENDBRANCH  19  20
ENDBRANCH  18  19
ENDBRANCH   1  18
TORSDOF 5
