REMARK  Name = ZINC02574882
REMARK  2 active torsions:
REMARK  status: ('A' for Active; 'I' for Inactive)
REMARK    1  A    between atoms: C_5  and  S_8
REMARK    2  A    between atoms: S_8  and  N_11
REMARK                            x       y       z     vdW  Elec       q    Type
REMARK                         _______ _______ _______ _____ _____    ______ ____
ROOT
ATOM      1  C   UNL     1      -0.645   4.594  -2.731  0.00  0.00    +0.081 A 
ATOM      2  C   UNL     1      -1.585   4.338  -3.714  0.00  0.00    +0.161 A 
ATOM      3  C   UNL     1      -2.486   3.297  -3.556  0.00  0.00    +0.160 A 
ATOM      4  C   UNL     1      -2.446   2.514  -2.415  0.00  0.00    +0.072 A 
ATOM      5  C   UNL     1      -1.507   2.771  -1.433  0.00  0.00    +0.143 A 
ATOM      6  C   UNL     1      -0.610   3.814  -1.588  0.00  0.00    +0.153 A 
ATOM      7  F   UNL     1       0.304   4.067  -0.626  0.00  0.00    -0.203 F 
ATOM      8  F   UNL     1      -3.405   3.046  -4.514  0.00  0.00    -0.202 F 
ATOM      9  F   UNL     1      -1.624   5.102  -4.828  0.00  0.00    -0.202 F 
ENDROOT
BRANCH   5  10
ATOM     10  S   UNL     1      -1.456   1.774   0.019  0.00  0.00    +0.059 S 
ATOM     11  O   UNL     1      -2.472   0.792  -0.128  0.00  0.00    -0.153 OA
ATOM     12  O   UNL     1      -1.413   2.667   1.123  0.00  0.00    -0.153 OA
BRANCH  10  13
ATOM     13  N   UNL     1      -0.011   0.966   0.007  0.00  0.00    -0.203 NA
ATOM     14  H   UNL     1       0.002  -0.004   0.002  0.00  0.00    +0.144 HD
ATOM     15  H   UNL     1       0.822   1.462   0.002  0.00  0.00    +0.144 HD
ENDBRANCH  10  13
ENDBRANCH   5  10
TORSDOF 2
