REMARK  Name = ZINC43756871
REMARK  4 active torsions:
REMARK  status: ('A' for Active; 'I' for Inactive)
REMARK    1  A    between atoms: C_1  and  C_2
REMARK    2  A    between atoms: C_9  and  O_28
REMARK    3  A    between atoms: C_16  and  O_27
REMARK    4  A    between atoms: C_19  and  C_26
REMARK                            x       y       z     vdW  Elec       q    Type
REMARK                         _______ _______ _______ _____ _____    ______ ____
ROOT
ATOM      1  C   UNL     1      -0.171   1.494  -0.059  0.00  0.00    +0.012 C 
ATOM      2  C   UNL     1      -0.127  -0.039  -0.068  0.00  0.00    -0.021 C 
ATOM      3  C   UNL     1      -1.573  -0.540  -0.019  0.00  0.00    +0.007 C 
ATOM      4  C   UNL     1      -1.607  -2.066  -0.009  0.00  0.00    +0.001 C 
ATOM      5  C   UNL     1      -0.916  -2.557   1.267  0.00  0.00    +0.000 C 
ATOM      6  C   UNL     1       0.529  -2.064   1.275  0.00  0.00    +0.006 C 
ATOM      7  C   UNL     1       0.582  -0.536   1.200  0.00  0.00    +0.024 C 
ATOM      8  C   UNL     1       2.047  -0.100   1.230  0.00  0.00    +0.118 C 
ATOM      9  C   UNL     1       2.773  -0.630  -0.014  0.00  0.00    +0.035 C 
ATOM     10  C   UNL     1       2.072  -0.047  -1.236  0.00  0.00    +0.002 C 
ATOM     11  C   UNL     1       0.625  -0.555  -1.288  0.00  0.00    +0.027 C 
ATOM     12  C   UNL     1       0.013  -0.188  -2.630  0.00  0.00    +0.119 C 
ATOM     13  C   UNL     1       0.710  -0.933  -3.785  0.00  0.00    +0.046 C 
ATOM     14  C   UNL     1       2.115  -1.331  -3.421  0.00  0.00    +0.032 C 
ATOM     15  C   UNL     1       2.781  -0.262  -2.533  0.00  0.00    +0.006 C 
ATOM     16  C   UNL     1       4.231  -0.769  -2.479  0.00  0.00    +0.012 C 
ATOM     17  C   UNL     1       4.465  -1.259  -3.936  0.00  0.00    +0.075 C 
ATOM     18  C   UNL     1       3.091  -1.366  -4.587  0.00  0.00    +0.140 C 
ATOM     19  O   UNL     1       2.820  -1.457  -5.751  0.00  0.00    -0.297 OA
ATOM     20  C   UNL     1       2.149  -2.723  -2.789  0.00  0.00    +0.019 C 
ENDROOT
BRANCH  12  21
ATOM     21  O   UNL     1      -1.377  -0.529  -2.676  0.00  0.00    -0.391 OA
ATOM     22  H   UNL     1      -1.808  -0.312  -3.514  0.00  0.00    +0.210 HD
ENDBRANCH  12  21
BRANCH   8  23
ATOM     23  O   UNL     1       2.678  -0.629   2.399  0.00  0.00    -0.391 OA
ATOM     24  H   UNL     1       3.611  -0.392   2.484  0.00  0.00    +0.210 HD
ENDBRANCH   8  23
TORSDOF 2
