REMARK  Name = ZINC59312822
REMARK  8 active torsions:
REMARK  status: ('A' for Active; 'I' for Inactive)
REMARK    1  A    between atoms: C_3  and  N_25
REMARK    2  A    between atoms: C_4  and  O_24
REMARK    3  A    between atoms: C_6  and  C_7
REMARK    4  A    between atoms: C_7  and  C_8
REMARK    5  A    between atoms: C_11  and  N_15
REMARK    6  A    between atoms: C_12  and  O_14
REMARK    7  A    between atoms: C_16  and  C_18
REMARK    8  A    between atoms: C_26  and  C_28
REMARK                            x       y       z     vdW  Elec       q    Type
REMARK                         _______ _______ _______ _____ _____    ______ ____
ROOT
ATOM      1  C   UNL     1      -0.816  -0.876  -0.009  0.00  0.00    +0.070 C 
ENDROOT
BRANCH   1   7
ATOM      2  C   UNL     1       0.375   1.324   0.023  0.00  0.00    +0.006 A 
ATOM      3  C   UNL     1       1.530   2.081   0.081  0.00  0.00    +0.027 A 
ATOM      4  C   UNL     1       2.765   1.456   0.169  0.00  0.00    +0.075 A 
ATOM      5  C   UNL     1       2.837   0.065   0.199  0.00  0.00    +0.138 A 
ATOM      6  C   UNL     1       1.675  -0.687   0.141  0.00  0.00    +0.051 A 
ATOM      7  C   UNL     1       0.447  -0.056   0.053  0.00  0.00    -0.039 A 
BRANCH   4   8
ATOM      8  N   UNL     1       3.937   2.221   0.227  0.00  0.00    -0.280 N 
ATOM      9  C   UNL     1       3.897   3.481   0.704  0.00  0.00    +0.246 C 
ATOM     10  O   UNL     1       2.835   3.977   1.018  0.00  0.00    -0.273 OA
ATOM     11  H   UNL     1       4.778   1.845  -0.077  0.00  0.00    +0.155 HD
BRANCH   9  12
ATOM     12  C   UNL     1       5.170   4.274   0.848  0.00  0.00    +0.204 C 
ATOM     13  C   UNL     1       6.079   3.616   1.909  0.00  0.00    +0.043 C 
ATOM     14  C   UNL     1       6.671   4.849   2.645  0.00  0.00    +0.031 C 
ATOM     15  C   UNL     1       5.477   5.833   2.579  0.00  0.00    +0.161 C 
ATOM     16  O   UNL     1       4.869   5.600   1.296  0.00  0.00    -0.367 OA
ENDBRANCH   9  12
ENDBRANCH   4   8
BRANCH   5  17
ATOM     17  O   UNL     1       4.045  -0.553   0.285  0.00  0.00    -0.505 OA
ATOM     18  H   UNL     1       4.340  -0.716   1.192  0.00  0.00    +0.292 HD
ENDBRANCH   5  17
ENDBRANCH   1   7
BRANCH   1  19
ATOM     19  C   UNL     1      -1.149  -1.176  -1.448  0.00  0.00    -0.039 A 
ATOM     20  C   UNL     1      -1.946  -0.305  -2.167  0.00  0.00    +0.006 A 
ATOM     21  C   UNL     1      -2.255  -0.575  -3.487  0.00  0.00    +0.027 A 
ATOM     22  C   UNL     1      -1.765  -1.722  -4.093  0.00  0.00    +0.075 A 
ATOM     23  C   UNL     1      -0.961  -2.599  -3.368  0.00  0.00    +0.138 A 
ATOM     24  C   UNL     1      -0.652  -2.318  -2.047  0.00  0.00    +0.051 A 
BRANCH  22  25
ATOM     25  N   UNL     1      -2.077  -1.998  -5.431  0.00  0.00    -0.280 N 
ATOM     26  C   UNL     1      -2.212  -0.988  -6.314  0.00  0.00    +0.246 C 
ATOM     27  O   UNL     1      -1.966   0.151  -5.975  0.00  0.00    -0.273 OA
ATOM     28  H   UNL     1      -2.196  -2.915  -5.722  0.00  0.00    +0.155 HD
BRANCH  26  29
ATOM     29  C   UNL     1      -2.668  -1.273  -7.721  0.00  0.00    +0.204 C 
ATOM     30  C   UNL     1      -1.609  -2.126  -8.452  0.00  0.00    +0.043 C 
ATOM     31  C   UNL     1      -1.619  -1.512  -9.879  0.00  0.00    +0.031 C 
ATOM     32  C   UNL     1      -1.901  -0.022  -9.556  0.00  0.00    +0.161 C 
ATOM     33  O   UNL     1      -2.812  -0.045  -8.444  0.00  0.00    -0.367 OA
ENDBRANCH  26  29
ENDBRANCH  22  25
BRANCH  23  34
ATOM     34  O   UNL     1      -0.478  -3.725  -3.957  0.00  0.00    -0.505 OA
ATOM     35  H   UNL     1       0.381  -3.607  -4.387  0.00  0.00    +0.292 HD
ENDBRANCH  23  34
ENDBRANCH   1  19
TORSDOF 8
