REMARK  Name = ZINC40349300
REMARK  7 active torsions:
REMARK  status: ('A' for Active; 'I' for Inactive)
REMARK    1  A    between atoms: C_1  and  C_2
REMARK    2  A    between atoms: C_2  and  S_3
REMARK    3  A    between atoms: S_3  and  C_4
REMARK    4  A    between atoms: C_9  and  N_10
REMARK    5  A    between atoms: N_10  and  S_11
REMARK    6  A    between atoms: S_11  and  C_14
REMARK    7  A    between atoms: C_19  and  N_20
REMARK                            x       y       z     vdW  Elec       q    Type
REMARK                         _______ _______ _______ _____ _____    ______ ____
ROOT
ATOM      1  S   UNL     1      -5.232  -3.476   0.763  0.00  0.00    +0.074 S 
ATOM      2  O   UNL     1      -6.473  -2.810   0.572  0.00  0.00    -0.150 OA
ATOM      3  O   UNL     1      -5.013  -4.814   0.339  0.00  0.00    -0.150 OA
ENDROOT
BRANCH   1   4
ATOM      4  C   UNL     1      -4.899  -3.434   2.492  0.00  0.00    +0.130 A 
ATOM      5  C   UNL     1      -4.549  -4.594   3.157  0.00  0.00    +0.046 A 
ATOM      6  C   UNL     1      -4.287  -4.562   4.515  0.00  0.00    +0.020 A 
ATOM      7  C   UNL     1      -4.375  -3.370   5.211  0.00  0.00    +0.017 A 
ATOM      8  C   UNL     1      -4.724  -2.208   4.553  0.00  0.00    +0.026 A 
ATOM      9  C   UNL     1      -4.982  -2.235   3.188  0.00  0.00    +0.052 A 
ATOM     10 BR   UNL     1      -3.810  -6.152   5.421  0.00  0.00    -0.050 Br
BRANCH   9  11
ATOM     11  N   UNL     1      -5.330  -1.060   2.517  0.00  0.00    -0.356 N 
ATOM     12  H   UNL     1      -5.421  -1.061   1.552  0.00  0.00    +0.142 HD
ATOM     13  H   UNL     1      -5.480  -0.242   3.017  0.00  0.00    +0.142 HD
ENDBRANCH   9  11
ENDBRANCH   1   4
BRANCH   1  14
ATOM     14  N   UNL     1      -4.079  -2.549   0.019  0.00  0.00    -0.215 N 
ATOM     15  H   UNL     1      -4.342  -1.774  -0.502  0.00  0.00    +0.174 HD
BRANCH  14  21
ATOM     16  C   UNL     1      -1.760  -1.878   0.213  0.00  0.00    +0.030 A 
ATOM     17  C   UNL     1      -0.421  -2.216   0.342  0.00  0.00    +0.016 A 
ATOM     18  C   UNL     1      -0.046  -3.546   0.395  0.00  0.00    +0.001 A 
ATOM     19  C   UNL     1      -1.002  -4.542   0.321  0.00  0.00    +0.002 A 
ATOM     20  C   UNL     1      -2.339  -4.214   0.192  0.00  0.00    +0.025 A 
ATOM     21  C   UNL     1      -2.725  -2.883   0.143  0.00  0.00    +0.061 A 
BRANCH  16  22
ATOM     22  S   UNL     1      -2.241  -0.184   0.145  0.00  0.00    -0.124 S 
BRANCH  22  24
ATOM     23  C   UNL     1      -0.951   2.226   0.222  0.00  0.00    +0.015 C 
ATOM     24  C   UNL     1      -0.675   0.722   0.269  0.00  0.00    +0.071 C 
ENDBRANCH  22  24
ENDBRANCH  16  22
ENDBRANCH  14  21
ENDBRANCH   1  14
TORSDOF 6
