REMARK  Name = ZINC64064478
REMARK  2 active torsions:
REMARK  status: ('A' for Active; 'I' for Inactive)
REMARK    1  A    between atoms: N_12  and  C_15
REMARK    2  A    between atoms: C_15  and  C_16
REMARK                            x       y       z     vdW  Elec       q    Type
REMARK                         _______ _______ _______ _____ _____    ______ ____
ROOT
ATOM      1  C   UNL     1       0.004   1.377   0.222  0.00  0.00    +0.084 A 
ATOM      2  C   UNL     1       1.201   2.061   0.002  0.00  0.00    +0.128 A 
ATOM      3  N   UNL     1       2.312   1.364  -0.215  0.00  0.00    -0.200 NA
ATOM      4  C   UNL     1       2.288   0.039  -0.223  0.00  0.00    +0.216 A 
ATOM      5  N   UNL     1       1.167  -0.636  -0.017  0.00  0.00    -0.203 NA
ATOM      6  C   UNL     1       0.022  -0.005   0.206  0.00  0.00    +0.136 A 
ATOM      7 CL   UNL     1      -1.438  -0.905   0.474  0.00  0.00    -0.062 Cl
ATOM      8  N   UNL     1       3.462  -0.656  -0.452  0.00  0.00    -0.327 N 
ATOM      9  N   UNL     1       1.231   3.446   0.008  0.00  0.00    -0.313 N 
ATOM     10  C   UNL     1       2.509   4.174  -0.006  0.00  0.00    +0.122 C 
ATOM     11  C   UNL     1       2.465   5.212  -1.132  0.00  0.00    +0.104 C 
ATOM     12  N   UNL     1       1.272   6.054  -0.972  0.00  0.00    -0.292 NA
ATOM     13  C   UNL     1       0.040   5.264  -1.098  0.00  0.00    +0.104 C 
ATOM     14  C   UNL     1      -0.015   4.228   0.024  0.00  0.00    +0.122 C 
ATOM     15  H   UNL     1       4.290  -0.173  -0.604  0.00  0.00    +0.145 HD
ATOM     16  H   UNL     1       3.458  -1.626  -0.460  0.00  0.00    +0.145 HD
ENDROOT
BRANCH  12  17
ATOM     17  C   UNL     1       1.282   7.169  -1.928  0.00  0.00    +0.158 C 
BRANCH  17  18
ATOM     18  C   UNL     1       0.185   8.142  -1.577  0.00  0.00    +0.138 C 
ATOM     19  N   UNL     1      -0.569   7.879  -0.537  0.00  0.00    -0.160 NA
ATOM     20  C   UNL     1      -1.568   8.678  -0.147  0.00  0.00    +0.271 C 
ATOM     21  O   UNL     1      -2.247   8.405   0.828  0.00  0.00    -0.268 OA
ATOM     22  C   UNL     1      -1.826   9.918  -0.947  0.00  0.00    +0.071 C 
ATOM     23  C   UNL     1      -2.808  10.822  -0.778  0.00  0.00    -0.042 C 
ATOM     24  C   UNL     1      -3.970  10.645   0.197  0.00  0.00    +0.033 C 
ATOM     25  C   UNL     1      -5.259  10.800  -0.620  0.00  0.00    +0.004 C 
ATOM     26  C   UNL     1      -5.234  12.110  -1.405  0.00  0.00    +0.002 C 
ATOM     27  C   UNL     1      -4.095  12.109  -2.429  0.00  0.00    +0.019 C 
ATOM     28  C   UNL     1      -2.762  12.053  -1.677  0.00  0.00    +0.079 C 
ATOM     29  S   UNL     1      -1.406  11.630  -2.834  0.00  0.00    -0.097 S 
ATOM     30  C   UNL     1      -0.902  10.101  -2.086  0.00  0.00    +0.112 C 
ATOM     31  N   UNL     1       0.037   9.219  -2.332  0.00  0.00    -0.226 NA
ENDBRANCH  17  18
ENDBRANCH  12  17
TORSDOF 2
