REMARK  Name = ZINC62084748
REMARK  5 active torsions:
REMARK  status: ('A' for Active; 'I' for Inactive)
REMARK    1  A    between atoms: C_1  and  C_2
REMARK    2  A    between atoms: C_4  and  C_18
REMARK    3  A    between atoms: C_7  and  N_8
REMARK    4  A    between atoms: N_11  and  S_14
REMARK    5  A    between atoms: S_14  and  C_17
REMARK                            x       y       z     vdW  Elec       q    Type
REMARK                         _______ _______ _______ _____ _____    ______ ____
ROOT
ATOM      1  C   UNL     1      -0.018   1.503   0.010  0.00  0.00    +0.045 C 
ATOM      2  C   UNL     1       0.002  -0.004   0.002  0.00  0.00    -0.029 A 
ATOM      3  C   UNL     1       0.006  -0.685  -1.194  0.00  0.00    +0.016 A 
ATOM      4  C   UNL     1       0.025  -2.082  -1.201  0.00  0.00    +0.012 A 
ATOM      5  C   UNL     1       0.040  -2.784   0.007  0.00  0.00    +0.013 A 
ATOM      6  C   UNL     1       0.036  -2.098   1.200  0.00  0.00    +0.024 A 
ATOM      7  C   UNL     1       0.023  -0.706   1.204  0.00  0.00    +0.033 A 
ENDROOT
BRANCH   4   8
ATOM      8  C   UNL     1       0.028  -2.816  -2.483  0.00  0.00    +0.094 C 
ATOM      9  N   UNL     1       0.046  -4.148  -2.488  0.00  0.00    -0.387 N 
ATOM     10  N   UNL     1       0.013  -2.145  -3.635  0.00  0.00    -0.345 N 
ATOM     11  H   UNL     1       0.057  -4.636  -1.650  0.00  0.00    +0.157 HD
ATOM     12  H   UNL     1      -0.000  -1.175  -3.631  0.00  0.00    +0.144 HD
ATOM     13  H   UNL     1       0.015  -2.627  -4.476  0.00  0.00    +0.144 HD
ATOM     14  H   UNL     1       0.048  -4.630  -3.330  0.00  0.00    +0.157 HD
ENDBRANCH   4   8
BRANCH   7  15
ATOM     15  N   UNL     1       0.025  -0.015   2.411  0.00  0.00    -0.327 N 
ATOM     16  C   UNL     1      -1.239   0.334   3.075  0.00  0.00    +0.122 C 
ATOM     17  C   UNL     1      -1.212  -0.224   4.504  0.00  0.00    +0.128 C 
ATOM     18  N   UNL     1       0.054   0.170   5.138  0.00  0.00    -0.178 NA
ATOM     19  C   UNL     1       1.318  -0.179   4.474  0.00  0.00    +0.128 C 
ATOM     20  C   UNL     1       1.291   0.374   3.048  0.00  0.00    +0.122 C 
BRANCH  18  21
ATOM     21  S   UNL     1       0.056   0.993   6.575  0.00  0.00    +0.029 S 
ATOM     22  O   UNL     1       1.279   1.717   6.576  0.00  0.00    -0.158 OA
ATOM     23  O   UNL     1      -1.190   1.674   6.605  0.00  0.00    -0.158 OA
ATOM     24  C   UNL     1       0.094  -0.297   7.850  0.00  0.00    +0.215 C 
ENDBRANCH  18  21
ENDBRANCH   7  15
TORSDOF 3
