REMARK  Name = ZINC55476601
REMARK  4 active torsions:
REMARK  status: ('A' for Active; 'I' for Inactive)
REMARK    1  A    between atoms: N_4  and  C_6
REMARK    2  A    between atoms: C_6  and  C_7
REMARK    3  A    between atoms: N_9  and  C_10
REMARK    4  A    between atoms: N_19  and  C_21
REMARK                            x       y       z     vdW  Elec       q    Type
REMARK                         _______ _______ _______ _____ _____    ______ ____
ROOT
ATOM      1  C   UNL     1       1.086  -4.559   2.462  0.00  0.00    +0.076 C 
ATOM      2  C   UNL     1      -0.265  -5.171   2.084  0.00  0.00    -0.007 C 
ATOM      3  C   UNL     1      -0.876  -5.841   3.310  0.00  0.00    +0.003 C 
ATOM      4  C   UNL     1       0.043  -6.882   3.930  0.00  0.00    +0.001 C 
ATOM      5  C   UNL     1       1.474  -6.397   4.099  0.00  0.00    +0.003 C 
ATOM      6  C   UNL     1       2.016  -5.710   2.851  0.00  0.00    -0.007 C 
ATOM      7  C   UNL     1       2.162  -6.685   1.692  0.00  0.00    -0.073 C 
ATOM      8  N   UNL     1       0.886  -7.196   1.203  0.00  0.00    +0.382 N 
ATOM      9  C   UNL     1      -0.097  -6.151   0.934  0.00  0.00    -0.073 C 
ATOM     10  H   UNL     1       0.509  -7.873   1.848  0.00  0.00    -0.081 HD
ENDROOT
BRANCH   1  13
ATOM     11  C   UNL     1       1.300  -2.526   1.140  0.00  0.00    +0.235 C 
ATOM     12  O   UNL     1       0.533  -1.981   1.905  0.00  0.00    -0.274 OA
ATOM     13  N   UNL     1       1.641  -3.816   1.332  0.00  0.00    -0.311 N 
ATOM     14  H   UNL     1       2.254  -4.252   0.719  0.00  0.00    +0.149 HD
BRANCH  11  15
ATOM     15  C   UNL     1       1.872  -1.761  -0.025  0.00  0.00    +0.240 C 
BRANCH  15  19
ATOM     16  C   UNL     1      -0.016   1.303   0.009  0.00  0.00    +0.245 A 
ATOM     17  N   UNL     1       1.238   1.753  -0.000  0.00  0.00    -0.223 NA
ATOM     18  C   UNL     1       2.072   0.744  -0.014  0.00  0.00    +0.219 A 
ATOM     19  N   UNL     1       1.352  -0.392  -0.013  0.00  0.00    -0.243 N 
ATOM     20  N   UNL     1       0.002  -0.004   0.002  0.00  0.00    -0.158 NA
ENDBRANCH  15  19
ENDBRANCH  11  15
ENDBRANCH   1  13
BRANCH   8  21
ATOM     21  C   UNL     1       1.136  -7.918  -0.051  0.00  0.00    -0.069 C 
ATOM     22  C   UNL     1       0.581  -9.338  -0.172  0.00  0.00    -0.017 C 
ATOM     23  C   UNL     1       2.085  -9.117   0.001  0.00  0.00    -0.017 C 
ENDBRANCH   8  21
TORSDOF 4
