REMARK  Name = ZINC37514982
REMARK  7 active torsions:
REMARK  status: ('A' for Active; 'I' for Inactive)
REMARK    1  A    between atoms: C_1  and  C_2
REMARK    2  A    between atoms: N_6  and  C_7
REMARK    3  A    between atoms: C_7  and  C_9
REMARK    4  A    between atoms: C_9  and  C_11
REMARK    5  A    between atoms: C_9  and  C_12
REMARK    6  A    between atoms: C_16  and  C_26
REMARK    7  A    between atoms: C_23  and  O_25
REMARK                            x       y       z     vdW  Elec       q    Type
REMARK                         _______ _______ _______ _____ _____    ______ ____
ROOT
ATOM      1  C   UNL     1       0.070  -2.773   5.820  0.00  0.00    +0.033 C 
ATOM      2  C   UNL     1       0.068  -3.778   6.982  0.00  0.00    +0.008 C 
ATOM      3  C   UNL     1       0.385  -3.015   8.266  0.00  0.00    +0.015 C 
ATOM      4  C   UNL     1      -0.574  -1.883   8.508  0.00  0.00    +0.010 C 
ATOM      5  C   UNL     1      -1.463  -2.104   9.700  0.00  0.00    -0.012 C 
ATOM      6  C   UNL     1      -2.395  -1.160   9.951  0.00  0.00    +0.047 C 
ATOM      7  C   UNL     1      -2.427  -0.032   8.979  0.00  0.00    +0.179 C 
ATOM      8  O   UNL     1      -2.570   1.126   9.324  0.00  0.00    -0.288 OA
ATOM      9  C   UNL     1      -2.271  -0.430   7.553  0.00  0.00    +0.053 C 
ATOM     10  C   UNL     1      -1.344  -1.391   7.331  0.00  0.00    -0.028 C 
ATOM     11  C   UNL     1      -1.198  -1.926   5.936  0.00  0.00    +0.145 C 
ATOM     12  C   UNL     1       0.309  -0.702   8.917  0.00  0.00    +0.020 C 
ENDROOT
BRANCH   1  13
ATOM     13  C   UNL     1       0.074  -3.522   4.486  0.00  0.00    +0.080 C 
ATOM     14  C   UNL     1       1.335  -4.382   4.388  0.00  0.00    +0.017 C 
BRANCH  13  15
ATOM     15  C   UNL     1       0.054  -2.529   3.353  0.00  0.00    +0.242 C 
ATOM     16  O   UNL     1       0.038  -1.335   3.589  0.00  0.00    -0.273 OA
BRANCH  15  22
ATOM     17  C   UNL     1      -0.018   1.503   0.010  0.00  0.00    +0.064 C 
ATOM     18  C   UNL     1       0.002  -0.004   0.002  0.00  0.00    +0.021 A 
ATOM     19  C   UNL     1       0.006  -0.694  -1.144  0.00  0.00    +0.069 A 
ATOM     20  S   UNL     1       0.033  -2.379  -0.561  0.00  0.00    -0.060 S 
ATOM     21  C   UNL     1       0.036  -2.076   1.093  0.00  0.00    +0.163 A 
ATOM     22  N   UNL     1       0.054  -2.955   2.096  0.00  0.00    -0.156 NA
ATOM     23  N   UNL     1       0.023  -0.718   1.159  0.00  0.00    -0.340 N 
ATOM     24  H   UNL     1       0.025  -0.266   2.018  0.00  0.00    +0.167 HD
ENDBRANCH  15  22
ENDBRANCH  13  15
ENDBRANCH   1  13
BRANCH  11  25
ATOM     25  O   UNL     1      -2.335  -2.732   5.620  0.00  0.00    -0.387 OA
ATOM     26  H   UNL     1      -3.178  -2.261   5.673  0.00  0.00    +0.210 HD
ENDBRANCH  11  25
TORSDOF 4
