REMARK  Name = ZINC64505240
REMARK  2 active torsions:
REMARK  status: ('A' for Active; 'I' for Inactive)
REMARK    1  A    between atoms: C_9  and  C_13
REMARK    2  A    between atoms: C_16  and  C_20
REMARK                            x       y       z     vdW  Elec       q    Type
REMARK                         _______ _______ _______ _____ _____    ______ ____
ROOT
ATOM      1  C   UNL     1       2.695  -4.254  -0.047  0.00  0.00    +0.247 C 
ATOM      2  N   UNL     1       4.104  -4.652  -0.266  0.00  0.00    -0.265 NA
ATOM      3  C   UNL     1       4.331  -5.846   0.577  0.00  0.00    +0.180 C 
ATOM      4  N   UNL     1       3.045  -6.105   1.266  0.00  0.00    -0.177 NA
ATOM      5  O   UNL     1       2.354  -4.795   1.249  0.00  0.00    -0.274 OA
ATOM      6  H   UNL     1       4.274  -4.859  -1.239  0.00  0.00    +0.127 HD
ATOM      7  H   UNL     1       3.200  -6.421   2.212  0.00  0.00    +0.156 HD
ENDROOT
BRANCH   1  16
ATOM      8  C   UNL     1      -0.017   1.363   0.009  0.00  0.00    +0.001 A 
ATOM      9  C   UNL     1       1.169   2.084   0.002  0.00  0.00    +0.002 A 
ATOM     10  C   UNL     1       2.386   1.438  -0.013  0.00  0.00    +0.026 A 
ATOM     11  C   UNL     1       2.428   0.047  -0.021  0.00  0.00    +0.050 A 
ATOM     12  C   UNL     1       1.223  -0.678  -0.013  0.00  0.00    +0.045 A 
ATOM     13  C   UNL     1       0.002  -0.004   0.002  0.00  0.00    +0.014 A 
ATOM     14  C   UNL     1       1.290  -2.150  -0.022  0.00  0.00    +0.196 A 
ATOM     15  O   UNL     1       0.275  -2.827  -0.016  0.00  0.00    -0.287 OA
ATOM     16  C   UNL     1       2.570  -2.752  -0.037  0.00  0.00    +0.061 A 
ATOM     17  H   UNL     1       4.455  -0.125  -0.041  0.00  0.00    +0.165 HD
ATOM     18  C   UNL     1       3.679  -1.984  -0.043  0.00  0.00    +0.094 A 
ATOM     19  N   UNL     1       3.627  -0.630  -0.036  0.00  0.00    -0.360 N 
ENDBRANCH   1  16
BRANCH   3  20
ATOM     20  C   UNL     1       4.708  -7.025  -0.283  0.00  0.00    -0.011 A 
ATOM     21  C   UNL     1       5.391  -6.844  -1.476  0.00  0.00    +0.024 A 
ATOM     22  C   UNL     1       5.720  -7.949  -2.238  0.00  0.00    +0.083 A 
ATOM     23  N   UNL     1       5.392  -9.163  -1.843  0.00  0.00    -0.367 N 
ATOM     24  C   UNL     1       4.742  -9.373  -0.715  0.00  0.00    +0.083 A 
ATOM     25  C   UNL     1       4.385  -8.317   0.102  0.00  0.00    +0.024 A 
ATOM     26  H   UNL     1       5.634  -9.922  -2.397  0.00  0.00    +0.165 HD
ENDBRANCH   3  20
TORSDOF 2
