REMARK  Name = ZINC08845520
REMARK  8 active torsions:
REMARK  status: ('A' for Active; 'I' for Inactive)
REMARK    1  A    between atoms: C_1  and  C_2
REMARK    2  A    between atoms: C_4  and  C_31
REMARK    3  A    between atoms: C_5  and  O_30
REMARK    4  A    between atoms: C_6  and  C_8
REMARK    5  A    between atoms: N_16  and  C_27
REMARK    6  A    between atoms: C_17  and  C_19
REMARK    7  A    between atoms: C_27  and  C_28
REMARK    8  A    between atoms: C_28  and  O_29
REMARK                            x       y       z     vdW  Elec       q    Type
REMARK                         _______ _______ _______ _____ _____    ______ ____
ROOT
ATOM      1  C   UNL     1      -0.294  -3.445   2.849  0.00  0.00    +0.102 A 
ATOM      2  C   UNL     1      -0.055  -2.725   4.024  0.00  0.00    +0.035 A 
ATOM      3  C   UNL     1       0.147  -3.672   5.011  0.00  0.00    +0.126 A 
ATOM      4  N   UNL     1       0.025  -4.888   4.401  0.00  0.00    -0.272 N 
ATOM      5  H   UNL     1       0.118  -5.745   4.845  0.00  0.00    +0.189 HD
ATOM      6  N   UNL     1      -0.234  -4.727   3.152  0.00  0.00    -0.173 NA
ATOM      7  C   UNL     1       0.405  -2.978   6.277  0.00  0.00    +0.266 C 
ATOM      8  O   UNL     1       0.622  -3.529   7.340  0.00  0.00    -0.268 OA
ATOM      9  N   UNL     1       0.365  -1.645   6.098  0.00  0.00    -0.283 N 
ATOM     10  C   UNL     1       0.076  -1.379   4.683  0.00  0.00    +0.141 C 
ENDROOT
BRANCH   1  16
ATOM     11  C   UNL     1      -1.136   0.522  -0.062  0.00  0.00    +0.044 C 
ATOM     12  C   UNL     1      -0.975  -0.967   0.104  0.00  0.00    -0.049 A 
ATOM     13  C   UNL     1      -1.084  -1.800  -0.996  0.00  0.00    +0.010 A 
ATOM     14  C   UNL     1      -0.938  -3.166  -0.853  0.00  0.00    -0.008 A 
ATOM     15  C   UNL     1      -0.680  -3.710   0.395  0.00  0.00    +0.129 A 
ATOM     16  C   UNL     1      -0.569  -2.872   1.508  0.00  0.00    +0.044 A 
ATOM     17  C   UNL     1      -0.712  -1.495   1.352  0.00  0.00    +0.017 A 
ATOM     18  C   UNL     1      -1.059  -4.066  -2.056  0.00  0.00    +0.047 C 
BRANCH  15  19
ATOM     19  O   UNL     1      -0.537  -5.054   0.537  0.00  0.00    -0.506 OA
ATOM     20  H   UNL     1       0.373  -5.365   0.433  0.00  0.00    +0.292 HD
ENDBRANCH  15  19
ENDBRANCH   1  16
BRANCH  10  21
ATOM     21  C   UNL     1       1.208  -0.605   4.059  0.00  0.00    -0.021 A 
ATOM     22  C   UNL     1       2.481  -1.145   4.030  0.00  0.00    +0.007 A 
ATOM     23  C   UNL     1       3.520  -0.435   3.458  0.00  0.00    +0.022 A 
ATOM     24  C   UNL     1       3.288   0.815   2.914  0.00  0.00    +0.059 A 
ATOM     25  C   UNL     1       2.013   1.355   2.942  0.00  0.00    +0.060 A 
ATOM     26  C   UNL     1       0.973   0.641   3.510  0.00  0.00    +0.027 A 
ATOM     27 CL   UNL     1       1.720   2.924   2.260  0.00  0.00    -0.082 Cl
ATOM     28 CL   UNL     1       4.593   1.706   2.196  0.00  0.00    -0.082 Cl
ENDBRANCH  10  21
BRANCH   9  29
ATOM     29  C   UNL     1       0.575  -0.632   7.136  0.00  0.00    +0.137 C 
BRANCH  29  30
ATOM     30  C   UNL     1       2.075  -0.396   7.321  0.00  0.00    +0.175 C 
BRANCH  30  31
ATOM     31  O   UNL     1       2.607   0.232   6.153  0.00  0.00    -0.393 OA
ATOM     32  H   UNL     1       3.556   0.413   6.200  0.00  0.00    +0.209 HD
ENDBRANCH  30  31
ENDBRANCH  29  30
ENDBRANCH   9  29
TORSDOF 6
