REMARK  Name = ZINC51995970
REMARK  7 active torsions:
REMARK  status: ('A' for Active; 'I' for Inactive)
REMARK    1  A    between atoms: C_1  and  C_2
REMARK    2  A    between atoms: C_3  and  C_10
REMARK    3  A    between atoms: C_4  and  C_7
REMARK    4  A    between atoms: C_7  and  C_8
REMARK    5  A    between atoms: C_7  and  C_9
REMARK    6  A    between atoms: N_12  and  C_13
REMARK    7  A    between atoms: C_19  and  O_21
REMARK                            x       y       z     vdW  Elec       q    Type
REMARK                         _______ _______ _______ _____ _____    ______ ____
ROOT
ATOM      1  C   UNL     1      -0.005  -0.429  -2.588  0.00  0.00    +0.250 C 
ATOM      2  O   UNL     1       1.043  -0.234  -3.174  0.00  0.00    -0.270 OA
ATOM      3  N   UNL     1      -1.178  -0.245  -3.225  0.00  0.00    -0.306 N 
ATOM      4  H   UNL     1      -2.014  -0.401  -2.758  0.00  0.00    +0.149 HD
ENDROOT
BRANCH   1   7
ATOM      5  C   UNL     1      -0.018   1.503   0.010  0.00  0.00    +0.070 C 
ATOM      6  C   UNL     1       0.002  -0.004   0.002  0.00  0.00    +0.093 A 
ATOM      7  C   UNL     1       0.009  -0.867  -1.180  0.00  0.00    +0.102 A 
ATOM      8  C   UNL     1       0.029  -2.155  -0.729  0.00  0.00    +0.152 A 
ATOM      9  O   UNL     1       0.035  -2.126   0.606  0.00  0.00    -0.358 OA
ATOM     10  N   UNL     1       0.023  -0.782   1.044  0.00  0.00    -0.083 NA
BRANCH   8  11
ATOM     11  C   UNL     1       0.042  -3.394  -1.587  0.00  0.00    +0.052 C 
ATOM     12  C   UNL     1       1.304  -4.206  -1.291  0.00  0.00    +0.015 C 
ATOM     13  C   UNL     1      -1.194  -4.242  -1.279  0.00  0.00    +0.015 C 
ENDBRANCH   8  11
ENDBRANCH   1   7
BRANCH   3  14
ATOM     14  C   UNL     1      -1.191   0.190  -4.624  0.00  0.00    +0.102 C 
ATOM     15  C   UNL     1      -1.087   1.715  -4.685  0.00  0.00    +0.025 C 
ATOM     16  C   UNL     1      -1.101   2.170  -6.146  0.00  0.00    +0.002 C 
ATOM     17  C   UNL     1      -2.406   1.721  -6.807  0.00  0.00    +0.003 C 
ATOM     18  C   UNL     1      -2.510   0.196  -6.746  0.00  0.00    +0.033 C 
ATOM     19  C   UNL     1      -2.496  -0.259  -5.285  0.00  0.00    +0.135 C 
BRANCH  19  20
ATOM     20  O   UNL     1      -2.593  -1.683  -5.229  0.00  0.00    -0.390 OA
ATOM     21  H   UNL     1      -3.398  -2.039  -5.630  0.00  0.00    +0.210 HD
ENDBRANCH  19  20
ENDBRANCH   3  14
TORSDOF 4
