REMARK  Name = ZINC50200992
REMARK  5 active torsions:
REMARK  status: ('A' for Active; 'I' for Inactive)
REMARK    1  A    between atoms: C_1  and  N_2
REMARK    2  A    between atoms: C_5  and  S_7
REMARK    3  A    between atoms: S_7  and  N_10
REMARK    4  A    between atoms: N_10  and  C_11
REMARK    5  A    between atoms: C_16  and  C_17
REMARK                            x       y       z     vdW  Elec       q    Type
REMARK                         _______ _______ _______ _____ _____    ______ ____
ROOT
ATOM      1  N   UNL     1       1.645  -3.889   2.012  0.00  0.00    -0.097 NA
ENDROOT
BRANCH   1   2
ATOM      2  C   UNL     1       1.971  -4.979   2.805  0.00  0.00    +0.088 A 
ATOM      3  C   UNL     1       0.967  -5.763   3.361  0.00  0.00    +0.028 A 
ATOM      4  C   UNL     1       1.293  -6.847   4.149  0.00  0.00    +0.017 A 
ATOM      5  C   UNL     1       2.621  -7.165   4.395  0.00  0.00    +0.019 A 
ATOM      6  C   UNL     1       3.631  -6.400   3.853  0.00  0.00    +0.032 A 
ATOM      7  C   UNL     1       3.317  -5.300   3.047  0.00  0.00    +0.089 A 
ATOM      8 BR   UNL     1       3.047  -8.655   5.479  0.00  0.00    -0.050 Br
BRANCH   7   9
ATOM      9  C   UNL     1       4.390  -4.483   2.461  0.00  0.00    +0.388 C 
ATOM     10  O   UNL     1       5.561  -4.766   2.674  0.00  0.00    -0.241 OA
ATOM     11  O   UNL     1       4.111  -3.519   1.760  0.00  0.00    -0.241 OA
ENDBRANCH   7   9
ENDBRANCH   1   2
BRANCH   1  12
ATOM     12  S   UNL     1       0.057  -3.514   1.730  0.00  0.00    +0.093 S 
ATOM     13  O   UNL     1      -0.495  -3.119   2.978  0.00  0.00    -0.148 OA
ATOM     14  O   UNL     1      -0.482  -4.582   0.963  0.00  0.00    -0.148 OA
BRANCH  12  19
ATOM     15  C   UNL     1      -0.018   1.461   0.010  0.00  0.00    +0.148 C 
ATOM     16  N   UNL     1       0.002  -0.004   0.002  0.00  0.00    -0.354 N 
ATOM     17  C   UNL     1       0.008  -0.792  -1.110  0.00  0.00    +0.087 A 
ATOM     18  C   UNL     1       0.027  -2.081  -0.714  0.00  0.00    +0.048 A 
ATOM     19  C   UNL     1       0.033  -2.089   0.695  0.00  0.00    +0.128 A 
ATOM     20  C   UNL     1       0.023  -0.804   1.106  0.00  0.00    +0.114 A 
ENDBRANCH  12  19
ENDBRANCH   1  12
TORSDOF 4
