REMARK  Name = ZINC08451104
REMARK  7 active torsions:
REMARK  status: ('A' for Active; 'I' for Inactive)
REMARK    1  A    between atoms: C_1  and  N_50
REMARK    2  A    between atoms: C_7  and  C_26
REMARK    3  A    between atoms: C_8  and  S_10
REMARK    4  A    between atoms: S_10  and  C_11
REMARK    5  A    between atoms: C_11  and  C_12
REMARK    6  A    between atoms: N_14  and  C_15
REMARK    7  A    between atoms: C_16  and  C_24
REMARK                            x       y       z     vdW  Elec       q    Type
REMARK                         _______ _______ _______ _____ _____    ______ ____
ROOT
ATOM      1  C   UNL     1      -2.653   8.627  -3.320  0.00  0.00    +0.172 C 
ENDROOT
BRANCH   1   2
ATOM      2  C   UNL     1      -2.279   7.222  -2.922  0.00  0.00    +0.228 C 
ATOM      3  O   UNL     1      -2.260   6.341  -3.755  0.00  0.00    -0.275 OA
ATOM      4  N   UNL     1      -1.965   6.946  -1.641  0.00  0.00    -0.278 N 
ATOM      5  H   UNL     1      -1.980   7.652  -0.975  0.00  0.00    +0.155 HD
BRANCH   4   6
ATOM      6  C   UNL     1      -1.621   5.653  -1.274  0.00  0.00    +0.090 A 
ATOM      7  C   UNL     1      -1.271   5.177  -0.019  0.00  0.00    +0.084 A 
ATOM      8  C   UNL     1      -0.951   3.765   0.100  0.00  0.00    -0.018 A 
ATOM      9  C   UNL     1      -1.032   3.059  -1.049  0.00  0.00    -0.004 A 
ATOM     10  S   UNL     1      -1.524   4.240  -2.273  0.00  0.00    -0.077 S 
ATOM     11  C   UNL     1      -0.761   1.597  -1.232  0.00  0.00    +0.043 C 
ATOM     12  C   UNL     1      -0.013   1.086   0.008  0.00  0.00    +0.005 C 
ATOM     13  C   UNL     1      -0.735   1.583   1.264  0.00  0.00    +0.005 C 
ATOM     14  C   UNL     1      -0.551   3.094   1.407  0.00  0.00    +0.037 C 
BRANCH   7  15
ATOM     15  C   UNL     1      -1.226   6.046   1.118  0.00  0.00    +0.102 C 
ATOM     16  N   UNL     1      -1.191   6.736   2.020  0.00  0.00    -0.191 NA
ENDBRANCH   7  15
ENDBRANCH   4   6
ENDBRANCH   1   2
BRANCH   1  17
ATOM     17  S   UNL     1      -3.016   8.675  -5.093  0.00  0.00    -0.095 S 
BRANCH  17  25
ATOM     18  C   UNL     1      -4.827  16.542  -4.449  0.00  0.00    -0.096 C 
ATOM     19  C   UNL     1      -3.522  14.788  -3.404  0.00  0.00    -0.073 C 
ATOM     20  C   UNL     1      -3.585  13.302  -3.052  0.00  0.00    +0.037 C 
ATOM     21  C   UNL     1      -3.657  12.476  -4.313  0.00  0.00    +0.042 A 
ATOM     22  C   UNL     1      -4.012  13.041  -5.522  0.00  0.00    -0.041 A 
ATOM     23  C   UNL     1      -4.074  12.245  -6.657  0.00  0.00    +0.025 A 
ATOM     24  C   UNL     1      -3.769  10.885  -6.542  0.00  0.00    +0.084 A 
ATOM     25  C   UNL     1      -3.411  10.382  -5.278  0.00  0.00    +0.115 A 
ATOM     26  N   UNL     1      -3.376  11.184  -4.228  0.00  0.00    -0.244 NA
ATOM     27  C   UNL     1      -4.332  14.506  -5.657  0.00  0.00    -0.042 C 
ATOM     28  N   UNL     1      -4.632  15.079  -4.334  0.00  0.00    +0.381 N 
ATOM     29  H   UNL     1      -5.493  14.655  -3.972  0.00  0.00    -0.082 HD
BRANCH  24  30
ATOM     30  C   UNL     1      -3.820  10.024  -7.685  0.00  0.00    +0.102 C 
ATOM     31  N   UNL     1      -3.861   9.342  -8.592  0.00  0.00    -0.191 NA
ENDBRANCH  24  30
ENDBRANCH  17  25
ENDBRANCH   1  17
TORSDOF 6
