REMARK  Name = ZINC37401138
REMARK  4 active torsions:
REMARK  status: ('A' for Active; 'I' for Inactive)
REMARK    1  A    between atoms: C_1  and  C_2
REMARK    2  A    between atoms: C_5  and  N_9
REMARK    3  A    between atoms: C_6  and  N_8
REMARK    4  A    between atoms: C_13  and  C_16
REMARK                            x       y       z     vdW  Elec       q    Type
REMARK                         _______ _______ _______ _____ _____    ______ ____
ROOT
ATOM      1  N   UNL     1       0.059  -4.175  -0.034  0.00  0.00    -0.328 N 
ATOM      2  C   UNL     1      -1.196  -4.940  -0.040  0.00  0.00    +0.105 C 
ATOM      3  C   UNL     1      -1.168  -5.942   1.118  0.00  0.00    +0.020 C 
ATOM      4  C   UNL     1       0.094  -6.802   1.013  0.00  0.00    +0.016 C 
ATOM      5  C   UNL     1       1.332  -5.909   1.117  0.00  0.00    +0.092 C 
ATOM      6  C   UNL     1       1.333  -4.907  -0.047  0.00  0.00    +0.118 C 
ENDROOT
BRANCH   1  11
ATOM      7  C   UNL     1      -0.018   1.503   0.010  0.00  0.00    +0.044 C 
ATOM      8  C   UNL     1       0.002  -0.004   0.002  0.00  0.00    -0.049 A 
ATOM      9  C   UNL     1       0.006  -0.687  -1.200  0.00  0.00    +0.005 A 
ATOM     10  C   UNL     1       0.025  -2.069  -1.215  0.00  0.00    +0.025 A 
ATOM     11  C   UNL     1       0.040  -2.775  -0.021  0.00  0.00    +0.051 A 
ATOM     12  C   UNL     1       0.037  -2.086   1.192  0.00  0.00    +0.046 A 
ATOM     13  C   UNL     1       0.023  -0.700   1.197  0.00  0.00    +0.028 A 
BRANCH  12  14
ATOM     14  N   UNL     1       0.052  -2.793   2.400  0.00  0.00    -0.357 N 
ATOM     15  H   UNL     1       0.065  -3.763   2.395  0.00  0.00    +0.142 HD
ATOM     16  H   UNL     1       0.050  -2.313   3.243  0.00  0.00    +0.142 HD
ENDBRANCH  12  14
ENDBRANCH   1  11
BRANCH   5  17
ATOM     17  C   UNL     1       2.574  -6.761   1.046  0.00  0.00    +0.215 C 
ATOM     18  O   UNL     1       3.382  -6.583   0.160  0.00  0.00    -0.276 OA
ATOM     19  N   UNL     1       2.786  -7.720   1.969  0.00  0.00    -0.329 N 
ATOM     20  H   UNL     1       2.140  -7.862   2.679  0.00  0.00    +0.145 HD
ATOM     21  H   UNL     1       3.585  -8.268   1.924  0.00  0.00    +0.145 HD
ENDBRANCH   5  17
TORSDOF 3
