REMARK  Name = ZINC49541788
REMARK  3 active torsions:
REMARK  status: ('A' for Active; 'I' for Inactive)
REMARK    1  A    between atoms: C_5  and  S_8
REMARK    2  A    between atoms: C_6  and  N_7
REMARK    3  A    between atoms: S_8  and  N_11
REMARK                            x       y       z     vdW  Elec       q    Type
REMARK                         _______ _______ _______ _____ _____    ______ ____
ROOT
ATOM      1  S   UNL     1       1.053  -2.334  -0.811  0.00  0.00    +0.104 S 
ATOM      2  O   UNL     1      -0.304  -2.607  -1.132  0.00  0.00    -0.146 OA
ATOM      3  O   UNL     1       2.114  -2.560  -1.730  0.00  0.00    -0.146 OA
ENDROOT
BRANCH   1   4
ATOM      4  N   UNL     1       1.405  -3.217   0.545  0.00  0.00    -0.103 NA
ATOM      5  C   UNL     1       1.417  -4.526   0.489  0.00  0.00    +0.192 A 
ATOM      6  N   UNL     1       1.176  -5.354  -0.576  0.00  0.00    -0.336 N 
ATOM      7  C   UNL     1       1.243  -6.731  -0.408  0.00  0.00    +0.028 A 
ATOM      8  C   UNL     1       1.543  -7.186   0.808  0.00  0.00    +0.012 A 
ATOM      9  S   UNL     1       1.760  -5.711   1.780  0.00  0.00    -0.053 S 
ATOM     10  C   UNL     1       1.581  -8.687   0.870  0.00  0.00    +0.044 C 
ATOM     11  C   UNL     1       0.836  -9.145  -0.404  0.00  0.00    +0.011 C 
ATOM     12  C   UNL     1       1.048  -7.935  -1.335  0.00  0.00    +0.054 C 
ATOM     13  H   UNL     1       0.958  -4.979  -1.444  0.00  0.00    +0.168 HD
ENDBRANCH   1   4
BRANCH   1  18
ATOM     14  C   UNL     1       0.059   1.360   0.452  0.00  0.00    +0.040 A 
ATOM     15  C   UNL     1       1.256   2.043   0.348  0.00  0.00    +0.021 A 
ATOM     16  C   UNL     1       2.388   1.392  -0.109  0.00  0.00    +0.032 A 
ATOM     17  C   UNL     1       2.325   0.056  -0.463  0.00  0.00    +0.048 A 
ATOM     18  C   UNL     1       1.132  -0.632  -0.360  0.00  0.00    +0.147 A 
ATOM     19  C   UNL     1      -0.007   0.019   0.098  0.00  0.00    +0.054 A 
ATOM     20 BR   UNL     1       3.875  -0.829  -1.087  0.00  0.00    -0.048 Br
ATOM     21 BR   UNL     1       1.346   3.869   0.830  0.00  0.00    -0.050 Br
BRANCH  19  22
ATOM     22  N   UNL     1      -1.215  -0.674   0.202  0.00  0.00    -0.356 N 
ATOM     23  H   UNL     1      -2.055  -0.189   0.196  0.00  0.00    +0.142 HD
ATOM     24  H   UNL     1      -1.214  -1.641   0.282  0.00  0.00    +0.142 HD
ENDBRANCH  19  22
ENDBRANCH   1  18
TORSDOF 3
