REMARK  Name = ZINC56528668
REMARK  8 active torsions:
REMARK  status: ('A' for Active; 'I' for Inactive)
REMARK    1  A    between atoms: C_1  and  C_2
REMARK    2  A    between atoms: C_5  and  N_9
REMARK    3  A    between atoms: N_12  and  C_13
REMARK    4  A    between atoms: C_13  and  C_14
REMARK    5  A    between atoms: C_14  and  C_16
REMARK    6  A    between atoms: C_14  and  O_25
REMARK    7  A    between atoms: C_16  and  O_17
REMARK    8  A    between atoms: O_17  and  C_18
REMARK                            x       y       z     vdW  Elec       q    Type
REMARK                         _______ _______ _______ _____ _____    ______ ____
ROOT
ATOM      1  N   UNL     1       0.059  -4.171  -0.023  0.00  0.00    -0.268 N 
ATOM      2  C   UNL     1      -0.039  -4.839  -1.189  0.00  0.00    +0.304 C 
ATOM      3  O   UNL     1      -0.053  -4.229  -2.240  0.00  0.00    -0.253 OA
ATOM      4  N   UNL     1      -0.122  -6.184  -1.190  0.00  0.00    -0.297 N 
ATOM      5  H   UNL     1       0.153  -4.660   0.810  0.00  0.00    +0.156 HD
ATOM      6  H   UNL     1      -0.111  -6.671  -0.351  0.00  0.00    +0.150 HD
ENDROOT
BRANCH   1  11
ATOM      7  C   UNL     1      -0.072   1.502   0.016  0.00  0.00    +0.044 C 
ATOM      8  C   UNL     1      -0.037  -0.005   0.006  0.00  0.00    -0.049 A 
ATOM      9  C   UNL     1      -0.627  -0.702  -1.032  0.00  0.00    +0.005 A 
ATOM     10  C   UNL     1      -0.597  -2.083  -1.045  0.00  0.00    +0.025 A 
ATOM     11  C   UNL     1       0.027  -2.771  -0.013  0.00  0.00    +0.049 A 
ATOM     12  C   UNL     1       0.619  -2.069   1.029  0.00  0.00    +0.039 A 
ATOM     13  C   UNL     1       0.590  -0.687   1.032  0.00  0.00    +0.020 A 
ATOM     14 BR   UNL     1       1.471  -3.001   2.436  0.00  0.00    -0.048 Br
ENDBRANCH   1  11
BRANCH   4  15
ATOM     15  C   UNL     1      -0.229  -6.911  -2.457  0.00  0.00    +0.140 C 
BRANCH  15  16
ATOM     16  C   UNL     1      -0.309  -8.413  -2.179  0.00  0.00    +0.169 C 
BRANCH  16  17
ATOM     17  O   UNL     1       0.870  -8.832  -1.488  0.00  0.00    -0.387 OA
ATOM     18  H   UNL     1       1.689  -8.676  -1.977  0.00  0.00    +0.210 HD
ENDBRANCH  16  17
BRANCH  16  19
ATOM     19  C   UNL     1      -0.421  -9.172  -3.503  0.00  0.00    +0.261 C 
BRANCH  19  20
ATOM     20  O   UNL     1      -0.612 -10.563  -3.240  0.00  0.00    -0.489 OA
BRANCH  20  21
ATOM     21  C   UNL     1      -0.731 -11.384  -4.317  0.00  0.00    +0.121 A 
ATOM     22  C   UNL     1      -0.659 -10.862  -5.600  0.00  0.00    +0.048 A 
ATOM     23  C   UNL     1      -0.781 -11.697  -6.693  0.00  0.00    +0.042 A 
ATOM     24  C   UNL     1      -0.974 -13.056  -6.509  0.00  0.00    +0.124 A 
ATOM     25  C   UNL     1      -1.046 -13.579  -5.229  0.00  0.00    +0.042 A 
ATOM     26  C   UNL     1      -0.918 -12.747  -4.134  0.00  0.00    +0.048 A 
ATOM     27  F   UNL     1      -1.093 -13.872  -7.579  0.00  0.00    -0.205 F 
ENDBRANCH  20  21
ENDBRANCH  19  20
ENDBRANCH  16  19
ENDBRANCH  15  16
ENDBRANCH   4  15
TORSDOF 7
