REMARK  Name = ZINC44258775
REMARK  7 active torsions:
REMARK  status: ('A' for Active; 'I' for Inactive)
REMARK    1  A    between atoms: C_2  and  C_18
REMARK    2  A    between atoms: C_6  and  S_7
REMARK    3  A    between atoms: S_7  and  N_10
REMARK    4  A    between atoms: C_14  and  C_16
REMARK    5  A    between atoms: C_16  and  O_17
REMARK    6  A    between atoms: C_19  and  C_20
REMARK    7  A    between atoms: C_20  and  N_21
REMARK                            x       y       z     vdW  Elec       q    Type
REMARK                         _______ _______ _______ _____ _____    ______ ____
ROOT
ATOM      1  C   UNL     1      -0.017   1.379   0.010  0.00  0.00    +0.048 A 
ATOM      2  C   UNL     1       1.206   2.060   0.002  0.00  0.00    +0.045 A 
ATOM      3  C   UNL     1       2.389   1.319  -0.014  0.00  0.00    +0.127 A 
ATOM      4  N   UNL     1       2.355   0.003  -0.020  0.00  0.00    -0.260 NA
ATOM      5  C   UNL     1       1.217  -0.665  -0.013  0.00  0.00    +0.139 A 
ATOM      6  C   UNL     1       0.002  -0.004   0.002  0.00  0.00    +0.125 A 
ENDROOT
BRANCH   6   7
ATOM      7  S   UNL     1      -1.506  -0.915   0.012  0.00  0.00    +0.063 S 
ATOM      8  O   UNL     1      -1.205  -2.194   0.553  0.00  0.00    -0.153 OA
ATOM      9  O   UNL     1      -2.492  -0.062   0.577  0.00  0.00    -0.153 OA
BRANCH   7  10
ATOM     10  N   UNL     1      -1.941  -1.159  -1.567  0.00  0.00    -0.171 NA
ATOM     11  C   UNL     1      -2.781  -0.258  -2.377  0.00  0.00    +0.110 C 
ATOM     12  C   UNL     1      -2.389  -0.562  -3.844  0.00  0.00    +0.019 C 
ATOM     13  C   UNL     1      -2.164  -2.096  -3.795  0.00  0.00    +0.024 C 
ATOM     14  C   UNL     1      -1.548  -2.309  -2.396  0.00  0.00    +0.105 C 
BRANCH  14  15
ATOM     15  C   UNL     1      -2.090  -3.602  -1.782  0.00  0.00    +0.176 C 
BRANCH  15  16
ATOM     16  O   UNL     1      -3.519  -3.585  -1.820  0.00  0.00    -0.393 OA
ATOM     17  H   UNL     1      -3.931  -4.375  -1.447  0.00  0.00    +0.209 HD
ENDBRANCH  15  16
ENDBRANCH  14  15
ENDBRANCH   7  10
ENDBRANCH   6   7
BRANCH   2  18
ATOM     18  C   UNL     1       1.244   3.491   0.009  0.00  0.00    -0.067 C 
ATOM     19  C   UNL     1       1.274   4.665   0.014  0.00  0.00    -0.117 C 
BRANCH  19  20
ATOM     20  C   UNL     1       1.312   6.136   0.021  0.00  0.00    +0.005 C 
BRANCH  20  21
ATOM     21  N   UNL     1       2.709   6.590   0.010  0.00  0.00    +0.385 N 
ATOM     22  H   UNL     1       3.184   6.237   0.828  0.00  0.00    -0.089 HD
ATOM     23  H   UNL     1       3.168   6.245  -0.820  0.00  0.00    -0.089 HD
ATOM     24  H   UNL     1       2.736   7.598   0.015  0.00  0.00    -0.089 HD
ENDBRANCH  20  21
ENDBRANCH  19  20
ENDBRANCH   2  18
TORSDOF 7
