REMARK  Name = ZINC15083210
REMARK  8 active torsions:
REMARK  status: ('A' for Active; 'I' for Inactive)
REMARK    1  A    between atoms: C_1  and  C_2
REMARK    2  A    between atoms: C_2  and  O_3
REMARK    3  A    between atoms: O_3  and  C_4
REMARK    4  A    between atoms: C_4  and  C_6
REMARK    5  A    between atoms: C_8  and  C_21
REMARK    6  A    between atoms: C_15  and  O_16
REMARK    7  A    between atoms: C_18  and  C_19
REMARK    8  A    between atoms: C_18  and  O_20
REMARK                            x       y       z     vdW  Elec       q    Type
REMARK                         _______ _______ _______ _____ _____    ______ ____
ROOT
ATOM      1  C   UNL     1       3.110   4.014  -0.606  0.00  0.00    +0.141 C 
ATOM      2  C   UNL     1       2.104   3.031  -1.217  0.00  0.00    +0.072 C 
ATOM      3  C   UNL     1       1.272   2.448  -0.102  0.00  0.00    +0.044 A 
ATOM      4  C   UNL     1       1.611   2.505   1.211  0.00  0.00    +0.046 A 
ATOM      5  N   UNL     1       0.645   1.892   1.915  0.00  0.00    -0.278 N 
ATOM      6  H   UNL     1       0.620   1.782   2.908  0.00  0.00    +0.189 HD
ATOM      7  N   UNL     1      -0.322   1.431   1.009  0.00  0.00    -0.136 NA
ATOM      8  C   UNL     1       0.054   1.771  -0.203  0.00  0.00    +0.235 A 
ATOM      9  C   UNL     1       2.868   3.157   1.733  0.00  0.00    +0.090 C 
ATOM     10  C   UNL     1       3.839   3.342   0.560  0.00  0.00    +0.082 C 
ATOM     11  C   UNL     1       5.011   4.219   1.002  0.00  0.00    +0.042 C 
ENDROOT
BRANCH   2  12
ATOM     12  C   UNL     1       1.211   3.757  -2.190  0.00  0.00    -0.039 A 
ATOM     13  C   UNL     1       0.421   4.804  -1.754  0.00  0.00    +0.004 A 
ATOM     14  C   UNL     1      -0.394   5.473  -2.648  0.00  0.00    +0.000 A 
ATOM     15  C   UNL     1      -0.427   5.088  -3.975  0.00  0.00    +0.000 A 
ATOM     16  C   UNL     1       0.360   4.038  -4.410  0.00  0.00    +0.000 A 
ATOM     17  C   UNL     1       1.179   3.372  -3.517  0.00  0.00    +0.004 A 
ENDBRANCH   2  12
BRANCH   1  18
ATOM     18  C   UNL     1       4.112   4.424  -1.655  0.00  0.00    +0.314 C 
ATOM     19  O   UNL     1       4.736   3.582  -2.256  0.00  0.00    -0.250 OA
BRANCH  18  20
ATOM     20  O   UNL     1       4.310   5.724  -1.922  0.00  0.00    -0.465 OA
BRANCH  20  22
ATOM     21  C   UNL     1       5.377   7.564  -3.108  0.00  0.00    +0.048 C 
ATOM     22  C   UNL     1       5.290   6.045  -2.945  0.00  0.00    +0.229 C 
ENDBRANCH  20  22
ENDBRANCH  18  20
ENDBRANCH   1  18
BRANCH   8  23
ATOM     23  O   UNL     1      -0.620   1.505  -1.353  0.00  0.00    -0.491 OA
ATOM     24  H   UNL     1      -1.461   1.010  -1.140  0.00  0.00    +0.294 HD
ENDBRANCH   8  23
BRANCH  10  25
ATOM     25  O   UNL     1       4.330   2.066   0.142  0.00  0.00    -0.388 OA
ATOM     26  H   UNL     1       4.804   1.582   0.832  0.00  0.00    +0.210 HD
ENDBRANCH  10  25
TORSDOF 6
