REMARK  Name = ZINC35320928
REMARK  8 active torsions:
REMARK  status: ('A' for Active; 'I' for Inactive)
REMARK    1  A    between atoms: C_1  and  C_2
REMARK    2  A    between atoms: C_3  and  N_23
REMARK    3  A    between atoms: C_4  and  C_22
REMARK    4  A    between atoms: N_5  and  C_7
REMARK    5  A    between atoms: C_7  and  C_8
REMARK    6  A    between atoms: N_10  and  C_11
REMARK    7  A    between atoms: C_16  and  C_21
REMARK    8  A    between atoms: C_18  and  C_20
REMARK                            x       y       z     vdW  Elec       q    Type
REMARK                         _______ _______ _______ _____ _____    ______ ____
ROOT
ATOM      1  C   UNL     1       1.481  -3.678   1.786  0.00  0.00    +0.235 C 
ATOM      2  O   UNL     1       2.392  -3.030   1.316  0.00  0.00    -0.274 OA
ATOM      3  N   UNL     1       1.745  -4.745   2.566  0.00  0.00    -0.311 N 
ATOM      4  H   UNL     1       1.017  -5.264   2.942  0.00  0.00    +0.149 HD
ENDROOT
BRANCH   3   5
ATOM      5  C   UNL     1       3.133  -5.120   2.848  0.00  0.00    +0.076 C 
ATOM      6  C   UNL     1       3.650  -4.307   4.036  0.00  0.00    +0.022 C 
ATOM      7  C   UNL     1       5.099  -4.699   4.331  0.00  0.00    +0.002 C 
ATOM      8  C   UNL     1       5.166  -6.190   4.666  0.00  0.00    +0.003 C 
ATOM      9  C   UNL     1       4.649  -7.004   3.478  0.00  0.00    -0.009 C 
ATOM     10  C   UNL     1       3.200  -6.612   3.183  0.00  0.00    +0.009 C 
ATOM     11  C   UNL     1       2.683  -7.425   1.995  0.00  0.00    +0.009 C 
ATOM     12  C   UNL     1       5.514  -6.718   2.248  0.00  0.00    +0.008 C 
ENDBRANCH   3   5
BRANCH   1  13
ATOM     13  C   UNL     1       0.053  -3.292   1.496  0.00  0.00    +0.239 C 
BRANCH  13  18
ATOM     14  C   UNL     1      -0.018   1.503   0.010  0.00  0.00    +0.069 C 
ATOM     15  C   UNL     1       0.002  -0.004   0.002  0.00  0.00    +0.081 A 
ATOM     16  C   UNL     1       0.008  -0.818  -1.139  0.00  0.00    +0.068 A 
ATOM     17  C   UNL     1       0.027  -2.111  -0.728  0.00  0.00    +0.058 A 
ATOM     18  N   UNL     1       0.034  -2.109   0.631  0.00  0.00    -0.258 N 
ATOM     19  N   UNL     1       0.023  -0.775   1.059  0.00  0.00    -0.174 NA
ATOM     20  C   UNL     1       0.040  -3.329  -1.617  0.00  0.00    +0.067 C 
BRANCH  16  21
ATOM     21  N   UNL     1      -0.005  -0.373  -2.475  0.00  0.00    -0.355 N 
ATOM     22  H   UNL     1      -0.018   0.577  -2.670  0.00  0.00    +0.142 HD
ATOM     23  H   UNL     1       0.001  -1.017  -3.201  0.00  0.00    +0.142 HD
ENDBRANCH  16  21
ENDBRANCH  13  18
ENDBRANCH   1  13
TORSDOF 4
