REMARK  Name = ZINC04707849
REMARK  4 active torsions:
REMARK  status: ('A' for Active; 'I' for Inactive)
REMARK    1  A    between atoms: C_1  and  N_2
REMARK    2  A    between atoms: N_2  and  C_3
REMARK    3  A    between atoms: C_11  and  N_18
REMARK    4  A    between atoms: C_12  and  N_17
REMARK                            x       y       z     vdW  Elec       q    Type
REMARK                         _______ _______ _______ _____ _____    ______ ____
ROOT
ATOM      1  C   UNL     1       1.149   2.165  -0.485  0.00  0.00    +0.137 C 
ATOM      2  N   UNL     1      -0.074   1.369  -0.359  0.00  0.00    -0.286 N 
ATOM      3  C   UNL     1      -1.282   1.993  -0.164  0.00  0.00    +0.161 A 
ATOM      4  C   UNL     1      -2.164   2.311  -1.301  0.00  0.00    +0.187 A 
ATOM      5  C   UNL     1      -3.440   2.976  -0.984  0.00  0.00    +0.152 A 
ATOM      6  N   UNL     1      -3.700   3.248   0.287  0.00  0.00    -0.198 NA
ATOM      7  C   UNL     1      -2.851   2.933   1.254  0.00  0.00    +0.216 A 
ATOM      8  N   UNL     1      -1.688   2.332   1.052  0.00  0.00    -0.197 NA
ATOM      9  N   UNL     1      -3.197   3.251   2.546  0.00  0.00    -0.327 N 
ATOM     10  H   UNL     1      -2.596   3.034   3.276  0.00  0.00    +0.145 HD
ATOM     11  H   UNL     1      -4.042   3.692   2.728  0.00  0.00    +0.145 HD
ENDROOT
BRANCH   2  12
ATOM     12  C   UNL     1      -0.013  -0.025  -0.443  0.00  0.00    +0.035 A 
ATOM     13  C   UNL     1      -1.146  -0.788  -0.189  0.00  0.00    +0.024 A 
ATOM     14  C   UNL     1      -1.083  -2.164  -0.277  0.00  0.00    +0.017 A 
ATOM     15  C   UNL     1       0.109  -2.784  -0.607  0.00  0.00    +0.018 A 
ATOM     16  C   UNL     1       1.241  -2.027  -0.855  0.00  0.00    +0.017 A 
ATOM     17  C   UNL     1       1.183  -0.650  -0.773  0.00  0.00    +0.024 A 
ATOM     18 BR   UNL     1       0.193  -4.670  -0.720  0.00  0.00    -0.050 Br
ENDBRANCH   2  12
BRANCH   5  19
ATOM     19  N   UNL     1      -4.329   3.308  -1.975  0.00  0.00    -0.341 N 
ATOM     20  H   UNL     1      -4.970   4.023  -1.832  0.00  0.00    +0.144 HD
ATOM     21  H   UNL     1      -4.318   2.829  -2.818  0.00  0.00    +0.144 HD
ENDBRANCH   5  19
BRANCH   4  22
ATOM     22  N   UNL     1      -1.829   2.011  -2.544  0.00  0.00    -0.024 NA
ATOM     23  O   UNL     1      -2.523   2.389  -3.470  0.00  0.00    -0.143 OA
ENDBRANCH   4  22
TORSDOF 3
