REMARK  Name = ZINC64502398
REMARK  7 active torsions:
REMARK  status: ('A' for Active; 'I' for Inactive)
REMARK    1  A    between atoms: C_1  and  O_2
REMARK    2  A    between atoms: O_2  and  C_3
REMARK    3  A    between atoms: C_9  and  C_12
REMARK    4  A    between atoms: C_12  and  C_13
REMARK    5  A    between atoms: C_13  and  N_14
REMARK    6  A    between atoms: C_15  and  C_17
REMARK    7  A    between atoms: N_22  and  C_24
REMARK                            x       y       z     vdW  Elec       q    Type
REMARK                         _______ _______ _______ _____ _____    ______ ____
ROOT
ATOM      1  C   UNL     1      -2.367  -8.584  -0.999  0.00  0.00    +0.089 C 
ATOM      2  C   UNL     1      -1.331  -9.703  -1.137  0.00  0.00    +0.015 C 
ATOM      3  C   UNL     1      -1.820 -10.937  -0.374  0.00  0.00    +0.016 C 
ATOM      4  C   UNL     1      -3.186 -11.361  -0.920  0.00  0.00    +0.086 C 
ATOM      5  N   UNL     1      -4.141 -10.257  -0.763  0.00  0.00    -0.279 NA
ATOM      6  C   UNL     1      -3.717  -9.075  -1.526  0.00  0.00    +0.099 C 
ENDROOT
BRANCH   5   7
ATOM      7  C   UNL     1      -5.495 -10.674  -1.149  0.00  0.00    +0.191 C 
ATOM      8  C   UNL     1      -5.946 -11.819  -0.274  0.00  0.00    +0.059 A 
ATOM      9  C   UNL     1      -6.516 -11.797   0.935  0.00  0.00    +0.026 A 
ATOM     10  C   UNL     1      -6.737 -13.137   1.321  0.00  0.00    +0.020 A 
ATOM     11  C   UNL     1      -6.289 -13.929   0.321  0.00  0.00    +0.092 A 
ATOM     12  N   UNL     1      -5.806 -13.134  -0.663  0.00  0.00    -0.314 N 
ATOM     13  C   UNL     1      -5.244 -13.466  -1.904  0.00  0.00    +0.086 A 
ATOM     14  C   UNL     1      -4.858 -14.755  -2.214  0.00  0.00    +0.031 A 
ATOM     15  C   UNL     1      -4.300 -14.988  -3.466  0.00  0.00    +0.022 A 
ATOM     16  C   UNL     1      -4.151 -13.934  -4.345  0.00  0.00    +0.113 A 
ATOM     17  N   UNL     1      -4.533 -12.712  -4.021  0.00  0.00    -0.238 NA
ATOM     18  C   UNL     1      -5.074 -12.441  -2.845  0.00  0.00    +0.144 A 
ATOM     19  N   UNL     1      -5.494 -11.145  -2.543  0.00  0.00    -0.307 N 
ATOM     20  H   UNL     1      -5.786 -10.553  -3.254  0.00  0.00    +0.149 HD
ENDBRANCH   5   7
BRANCH   1  22
ATOM     21  N   UNL     1      -0.752  -6.781  -1.509  0.00  0.00    -0.315 N 
ATOM     22  C   UNL     1      -1.922  -7.385  -1.796  0.00  0.00    +0.217 C 
ATOM     23  O   UNL     1      -2.617  -6.964  -2.697  0.00  0.00    -0.275 OA
ATOM     24  H   UNL     1      -0.196  -7.118  -0.789  0.00  0.00    +0.149 HD
BRANCH  21  25
ATOM     25  C   UNL     1      -0.319  -5.616  -2.284  0.00  0.00    +0.108 C 
BRANCH  25  26
ATOM     26  C   UNL     1       1.031  -5.126  -1.758  0.00  0.00    +0.052 C 
BRANCH  26  33
ATOM     27  C   UNL     1       0.606  -0.607  -1.056  0.00  0.00    +0.121 A 
ATOM     28  C   UNL     1       1.172   0.195  -2.062  0.00  0.00    +0.047 A 
ATOM     29  C   UNL     1       1.790  -0.325  -3.144  0.00  0.00    +0.029 A 
ATOM     30  C   UNL     1       1.886  -1.780  -3.299  0.00  0.00    +0.043 A 
ATOM     31  N   UNL     1       2.419  -2.528  -4.232  0.00  0.00    -0.380 N 
ATOM     32  C   UNL     1       2.222  -3.937  -3.871  0.00  0.00    +0.144 C 
ATOM     33  C   UNL     1       1.476  -3.927  -2.555  0.00  0.00    -0.040 C 
ATOM     34  C   UNL     1       1.290  -2.626  -2.239  0.00  0.00    +0.002 A 
ATOM     35  C   UNL     1       0.646  -1.960  -1.102  0.00  0.00    +0.055 A 
ATOM     36  H   UNL     1       2.869  -2.205  -5.029  0.00  0.00    +0.160 HD
BRANCH  27  38
ATOM     37  C   UNL     1      -0.017   1.425   0.010  0.00  0.00    +0.277 C 
ATOM     38  O   UNL     1       0.002  -0.004   0.002  0.00  0.00    -0.495 OA
ENDBRANCH  27  38
ENDBRANCH  26  33
ENDBRANCH  25  26
ENDBRANCH  21  25
ENDBRANCH   1  22
TORSDOF 6
