REMARK  Name = ZINC63881965
REMARK  2 active torsions:
REMARK  status: ('A' for Active; 'I' for Inactive)
REMARK    1  A    between atoms: C_3  and  C_9
REMARK    2  A    between atoms: C_9  and  N_10
REMARK                            x       y       z     vdW  Elec       q    Type
REMARK                         _______ _______ _______ _____ _____    ______ ____
ROOT
ATOM      1  N   UNL     1       4.287   2.123   1.305  0.00  0.00    -0.324 N 
ATOM      2  C   UNL     1       5.482   2.758   1.538  0.00  0.00    +0.131 C 
ATOM      3  N   UNL     1       6.143   3.460   0.608  0.00  0.00    -0.201 NA
ATOM      4  C   UNL     1       7.311   4.055   0.892  0.00  0.00    +0.190 C 
ATOM      5  N   UNL     1       7.794   4.298   2.083  0.00  0.00    -0.331 N 
ATOM      6  C   UNL     1       7.001   3.954   3.264  0.00  0.00    +0.258 C 
ATOM      7  C   UNL     1       6.167   2.747   2.833  0.00  0.00    +0.058 C 
ATOM      8  C   UNL     1       6.316   1.883   3.826  0.00  0.00    +0.145 C 
ATOM      9  N   UNL     1       7.311   2.300   4.650  0.00  0.00    -0.160 NA
ATOM     10  N   UNL     1       7.773   3.433   4.387  0.00  0.00    -0.157 NA
ATOM     11  N   UNL     1       8.081   4.453  -0.182  0.00  0.00    -0.329 N 
ATOM     12  H   UNL     1       3.851   1.632   2.019  0.00  0.00    +0.148 HD
ATOM     13  H   UNL     1       7.769   4.296  -1.087  0.00  0.00    +0.145 HD
ATOM     14  H   UNL     1       8.935   4.888  -0.032  0.00  0.00    +0.145 HD
ATOM     15  H   UNL     1       8.671   4.701   2.183  0.00  0.00    +0.165 HD
ENDROOT
BRANCH   1  16
ATOM     16  C   UNL     1       3.671   2.186  -0.023  0.00  0.00    +0.139 C 
BRANCH  16  19
ATOM     17  C   UNL     1      -0.017   1.378   0.010  0.00  0.00    +0.002 A 
ATOM     18  C   UNL     1       1.171   2.086   0.002  0.00  0.00    +0.007 A 
ATOM     19  C   UNL     1       2.378   1.413  -0.013  0.00  0.00    -0.011 A 
ATOM     20  C   UNL     1       2.398   0.030  -0.021  0.00  0.00    +0.064 A 
ATOM     21  C   UNL     1       1.209  -0.679  -0.013  0.00  0.00    +0.060 A 
ATOM     22  C   UNL     1       0.002  -0.004   0.002  0.00  0.00    +0.021 A 
ATOM     23 CL   UNL     1       1.234  -2.415  -0.023  0.00  0.00    -0.082 Cl
ATOM     24 CL   UNL     1       3.914  -0.816  -0.041  0.00  0.00    -0.082 Cl
ENDBRANCH  16  19
ENDBRANCH   1  16
TORSDOF 2
