REMARK  Name = ZINC54641831
REMARK  9 active torsions:
REMARK  status: ('A' for Active; 'I' for Inactive)
REMARK    1  A    between atoms: C_1  and  C_2
REMARK    2  A    between atoms: C_3  and  C_16
REMARK    3  A    between atoms: N_5  and  C_7
REMARK    4  A    between atoms: C_7  and  C_8
REMARK    5  A    between atoms: N_18  and  N_19
REMARK    6  A    between atoms: C_20  and  C_22
REMARK    7  A    between atoms: N_24  and  C_25
REMARK    8  A    between atoms: C_25  and  C_26
REMARK    9  A    between atoms: C_25  and  C_27
REMARK                            x       y       z     vdW  Elec       q    Type
REMARK                         _______ _______ _______ _____ _____    ______ ____
ROOT
ATOM      1  C   UNL     1      -0.018   1.503   0.010  0.00  0.00    +0.068 C 
ATOM      2  C   UNL     1       0.002  -0.004   0.002  0.00  0.00    +0.074 A 
ATOM      3  C   UNL     1       0.008  -0.828  -1.146  0.00  0.00    +0.097 A 
ATOM      4  C   UNL     1       0.029  -2.139  -0.707  0.00  0.00    +0.140 A 
ATOM      5  N   UNL     1       0.035  -2.111   0.636  0.00  0.00    -0.248 N 
ATOM      6  N   UNL     1       0.023  -0.776   1.053  0.00  0.00    -0.174 NA
ATOM      7 CL   UNL     1       0.043  -3.558  -1.706  0.00  0.00    -0.062 Cl
ENDROOT
BRANCH   3   8
ATOM      8  C   UNL     1      -0.005  -0.375  -2.548  0.00  0.00    +0.265 C 
ATOM      9  O   UNL     1       1.042  -0.173  -3.132  0.00  0.00    -0.268 OA
ATOM     10  N   UNL     1      -1.179  -0.185  -3.183  0.00  0.00    -0.230 N 
ATOM     11  H   UNL     1      -2.014  -0.346  -2.717  0.00  0.00    +0.173 HD
BRANCH  10  12
ATOM     12  N   UNL     1      -1.192   0.245  -4.516  0.00  0.00    -0.226 N 
ATOM     13  C   UNL     1      -2.365   0.436  -5.152  0.00  0.00    +0.315 C 
ATOM     14  O   UNL     1      -3.410   0.234  -4.569  0.00  0.00    -0.264 OA
ATOM     15  H   UNL     1      -0.356   0.407  -4.982  0.00  0.00    +0.173 HD
BRANCH  13  16
ATOM     16  C   UNL     1      -2.379   0.895  -6.574  0.00  0.00    +0.301 C 
ATOM     17  O   UNL     1      -1.334   1.097  -7.157  0.00  0.00    -0.265 OA
ATOM     18  N   UNL     1      -3.552   1.085  -7.209  0.00  0.00    -0.305 N 
ATOM     19  H   UNL     1      -4.388   0.924  -6.743  0.00  0.00    +0.149 HD
BRANCH  18  20
ATOM     20  C   UNL     1      -3.566   1.536  -8.603  0.00  0.00    +0.067 C 
ATOM     21  C   UNL     1      -3.427   0.327  -9.531  0.00  0.00    +0.027 C 
ATOM     22  C   UNL     1      -4.885   2.254  -8.894  0.00  0.00    +0.027 C 
ENDBRANCH  18  20
ENDBRANCH  13  16
ENDBRANCH  10  12
ENDBRANCH   3   8
BRANCH   5  23
ATOM     23  C   UNL     1       0.056  -3.283   1.516  0.00  0.00    +0.180 C 
BRANCH  23  24
ATOM     24  C   UNL     1       1.483  -3.664   1.811  0.00  0.00    -0.026 A 
ATOM     25  C   UNL     1       2.145  -4.554   0.986  0.00  0.00    +0.008 A 
ATOM     26  C   UNL     1       3.455  -4.904   1.255  0.00  0.00    +0.038 A 
ATOM     27  C   UNL     1       4.104  -4.364   2.352  0.00  0.00    +0.123 A 
ATOM     28  C   UNL     1       3.440  -3.473   3.178  0.00  0.00    +0.038 A 
ATOM     29  C   UNL     1       2.132  -3.120   2.904  0.00  0.00    +0.008 A 
ATOM     30  F   UNL     1       5.384  -4.706   2.616  0.00  0.00    -0.205 F 
ENDBRANCH  23  24
ENDBRANCH   5  23
TORSDOF 6
