REMARK  Name = ZINC52094409
REMARK  5 active torsions:
REMARK  status: ('A' for Active; 'I' for Inactive)
REMARK    1  A    between atoms: C_1  and  C_2
REMARK    2  A    between atoms: C_4  and  C_24
REMARK    3  A    between atoms: C_6  and  C_8
REMARK    4  A    between atoms: C_8  and  C_10
REMARK    5  A    between atoms: C_8  and  N_23
REMARK                            x       y       z     vdW  Elec       q    Type
REMARK                         _______ _______ _______ _____ _____    ______ ____
ROOT
ATOM      1  C   UNL     1       0.054  -2.844   2.489  0.00  0.00    -0.012 C 
ENDROOT
BRANCH   1   2
ATOM      2  C   UNL     1       1.456  -2.867   3.040  0.00  0.00    -0.042 A 
ATOM      3  C   UNL     1       1.814  -1.991   4.046  0.00  0.00    +0.031 A 
ATOM      4  C   UNL     1       3.104  -2.012   4.553  0.00  0.00    +0.067 A 
ATOM      5  C   UNL     1       4.037  -2.918   4.044  0.00  0.00    +0.068 A 
ATOM      6  C   UNL     1       3.670  -3.793   3.034  0.00  0.00    +0.043 A 
ATOM      7  C   UNL     1       2.379  -3.769   2.539  0.00  0.00    +0.022 A 
ATOM      8 BR   UNL     1       1.875  -4.969   1.167  0.00  0.00    -0.050 Br
ATOM      9  N   UNL     1       5.225  -2.705   4.739  0.00  0.00    -0.306 N 
ATOM     10  H   UNL     1       6.056  -3.187   4.604  0.00  0.00    +0.170 HD
ATOM     11  C   UNL     1       5.024  -1.715   5.630  0.00  0.00    +0.325 A 
ATOM     12  O   UNL     1       5.864  -1.282   6.397  0.00  0.00    -0.247 OA
ATOM     13  N   UNL     1       3.755  -1.276   5.541  0.00  0.00    -0.306 N 
ATOM     14  H   UNL     1       3.360  -0.569   6.075  0.00  0.00    +0.170 HD
ENDBRANCH   1   2
BRANCH   1  20
ATOM     15  C   UNL     1      -0.018   1.503   0.010  0.00  0.00    +0.044 C 
ATOM     16  C   UNL     1       0.002  -0.004   0.002  0.00  0.00    -0.050 A 
ATOM     17  C   UNL     1       0.006  -0.689  -1.199  0.00  0.00    +0.006 A 
ATOM     18  C   UNL     1       0.025  -2.071  -1.206  0.00  0.00    -0.050 A 
ATOM     19  C   UNL     1       0.040  -2.768  -0.013  0.00  0.00    +0.005 A 
ATOM     20  C   UNL     1       0.037  -2.084   1.188  0.00  0.00    -0.057 A 
ATOM     21  C   UNL     1       0.023  -0.702   1.195  0.00  0.00    +0.005 A 
ATOM     22  C   UNL     1       0.027  -2.817  -2.516  0.00  0.00    +0.044 C 
ENDBRANCH   1  20
BRANCH   1  23
ATOM     23  N   UNL     1      -0.840  -2.187   3.451  0.00  0.00    +0.385 N 
ATOM     24  H   UNL     1      -0.526  -1.242   3.611  0.00  0.00    -0.089 HD
ATOM     25  H   UNL     1      -1.779  -2.172   3.082  0.00  0.00    -0.089 HD
ATOM     26  H   UNL     1      -0.829  -2.696   4.322  0.00  0.00    -0.089 HD
ENDBRANCH   1  23
TORSDOF 3
