REMARK  Name = ZINC67268323
REMARK  3 active torsions:
REMARK  status: ('A' for Active; 'I' for Inactive)
REMARK    1  A    between atoms: C_1  and  C_2
REMARK    2  A    between atoms: C_6  and  C_24
REMARK    3  A    between atoms: C_10  and  C_12
REMARK                            x       y       z     vdW  Elec       q    Type
REMARK                         _______ _______ _______ _____ _____    ______ ____
ROOT
ATOM      1  C   UNL     1      -0.066   1.531   0.053  0.00  0.00    +0.028 C 
ATOM      2  C   UNL     1       0.246   0.051  -0.177  0.00  0.00    +0.073 C 
ATOM      3  C   UNL     1      -1.062  -0.742  -0.261  0.00  0.00    +0.023 C 
ATOM      4  C   UNL     1      -0.742  -2.236  -0.350  0.00  0.00    +0.016 C 
ATOM      5  C   UNL     1       0.009  -2.676   0.908  0.00  0.00    +0.092 C 
ATOM      6  C   UNL     1       1.329  -1.904   1.006  0.00  0.00    +0.120 C 
ATOM      7  N   UNL     1       1.044  -0.464   0.945  0.00  0.00    -0.298 N 
ATOM      8  C   UNL     1       1.502   0.368   1.901  0.00  0.00    +0.219 C 
ATOM      9  O   UNL     1       1.181   1.538   1.891  0.00  0.00    -0.275 OA
ENDROOT
BRANCH   8  10
ATOM     10  C   UNL     1       2.412  -0.154   2.982  0.00  0.00    +0.075 C 
ATOM     11  C   UNL     1       1.621  -1.077   3.912  0.00  0.00    +0.015 C 
ATOM     12  C   UNL     1       2.549  -1.616   5.004  0.00  0.00    +0.036 C 
ATOM     13  C   UNL     1       3.136  -0.451   5.794  0.00  0.00    +0.112 C 
ATOM     14  C   UNL     1       3.910   0.488   4.876  0.00  0.00    +0.036 C 
ATOM     15  C   UNL     1       2.977   1.020   3.784  0.00  0.00    +0.015 C 
ATOM     16  C   UNL     1       4.030  -0.962   6.901  0.00  0.00    +0.244 C 
ATOM     17  O   UNL     1       5.040  -1.622   6.783  0.00  0.00    -0.273 OA
ATOM     18  N   UNL     1       3.467  -0.527   8.048  0.00  0.00    -0.238 N 
ATOM     19  C   UNL     1       2.354   0.178   7.814  0.00  0.00    +0.307 C 
ATOM     20  O   UNL     1       1.671   0.674   8.689  0.00  0.00    -0.252 OA
ATOM     21  N   UNL     1       2.075   0.278   6.500  0.00  0.00    -0.285 N 
ATOM     22  H   UNL     1       3.824  -0.705   8.932  0.00  0.00    +0.159 HD
ATOM     23  H   UNL     1       1.322   0.741   6.099  0.00  0.00    +0.151 HD
ENDBRANCH   8  10
BRANCH   5  24
ATOM     24  C   UNL     1       0.294  -4.154   0.834  0.00  0.00    +0.215 C 
ATOM     25  O   UNL     1       1.439  -4.553   0.859  0.00  0.00    -0.276 OA
ATOM     26  N   UNL     1      -0.724  -5.032   0.739  0.00  0.00    -0.329 N 
ATOM     27  H   UNL     1      -1.639  -4.713   0.719  0.00  0.00    +0.145 HD
ATOM     28  H   UNL     1      -0.540  -5.984   0.692  0.00  0.00    +0.145 HD
ENDBRANCH   5  24
TORSDOF 2
