REMARK  Name = ZINC32655165
REMARK  10 active torsions:
REMARK  status: ('A' for Active; 'I' for Inactive)
REMARK    1  A    between atoms: C_1  and  C_2
REMARK    2  A    between atoms: C_2  and  C_33
REMARK    3  A    between atoms: C_6  and  C_19
REMARK    4  A    between atoms: C_13  and  S_17
REMARK    5  A    between atoms: S_17  and  C_18
REMARK    6  A    between atoms: C_21  and  O_28
REMARK    7  A    between atoms: C_22  and  O_27
REMARK    8  A    between atoms: C_23  and  O_25
REMARK    9  A    between atoms: O_25  and  C_26
REMARK   10  A    between atoms: O_28  and  C_29
REMARK                            x       y       z     vdW  Elec       q    Type
REMARK                         _______ _______ _______ _____ _____    ______ ____
ROOT
ATOM      1  C   UNL     1       4.057   0.956   1.547  0.00  0.00    +0.011 C 
ATOM      2  C   UNL     1       4.158   2.010   0.443  0.00  0.00    -0.023 C 
ATOM      3  C   UNL     1       3.195   3.161   0.740  0.00  0.00    +0.058 C 
ATOM      4  C   UNL     1       1.777   2.644   0.765  0.00  0.00    +0.017 C 
ATOM      5  C   UNL     1       1.405   1.599  -0.003  0.00  0.00    +0.024 C 
ATOM      6  C   UNL     1      -0.013   1.086   0.008  0.00  0.00    +0.093 C 
ATOM      7  C   UNL     1      -0.755   1.560   1.221  0.00  0.00    +0.069 A 
ATOM      8  C   UNL     1      -1.938   0.926   1.619  0.00  0.00    +0.258 A 
ATOM      9  O   UNL     1      -2.379  -0.021   0.986  0.00  0.00    -0.267 OA
ATOM     10  N   UNL     1      -2.582   1.380   2.715  0.00  0.00    -0.302 N 
ATOM     11  H   UNL     1      -3.512   0.894   3.046  0.00  0.00    +0.171 HD
ATOM     12  C   UNL     1      -2.083   2.439   3.410  0.00  0.00    +0.171 A 
ATOM     13  N   UNL     1      -0.970   3.039   3.040  0.00  0.00    -0.208 NA
ATOM     14  C   UNL     1      -0.288   2.629   1.966  0.00  0.00    +0.135 A 
ATOM     15  N   UNL     1       0.879   3.264   1.591  0.00  0.00    -0.302 N 
ATOM     16  C   UNL     1       2.331   0.951  -0.840  0.00  0.00    +0.162 C 
ATOM     17  O   UNL     1       1.961   0.019  -1.527  0.00  0.00    -0.292 OA
ATOM     18  C   UNL     1       3.768   1.387  -0.902  0.00  0.00    +0.086 C 
ATOM     19  C   UNL     1       5.591   2.542   0.368  0.00  0.00    +0.011 C 
ATOM     20  H   UNL     1       1.085   4.278   1.964  0.00  0.00    +0.153 HD
ENDROOT
BRANCH   6  21
ATOM     21  C   UNL     1      -0.724   1.576  -1.227  0.00  0.00    -0.028 A 
ATOM     22  C   UNL     1      -0.876   2.933  -1.442  0.00  0.00    +0.054 A 
ATOM     23  C   UNL     1      -1.524   3.388  -2.580  0.00  0.00    +0.165 A 
ATOM     24  C   UNL     1      -2.032   2.478  -3.499  0.00  0.00    +0.201 A 
ATOM     25  C   UNL     1      -1.882   1.114  -3.276  0.00  0.00    +0.165 A 
ATOM     26  C   UNL     1      -1.228   0.667  -2.139  0.00  0.00    +0.054 A 
BRANCH  25  27
ATOM     27  O   UNL     1      -2.377   0.220  -4.173  0.00  0.00    -0.491 OA
ATOM     28  C   UNL     1      -2.186  -1.166  -3.880  0.00  0.00    +0.277 C 
ENDBRANCH  25  27
BRANCH  24  29
ATOM     29  O   UNL     1      -2.674   2.921  -4.614  0.00  0.00    -0.501 OA
ATOM     30  H   UNL     1      -3.075   2.199  -5.341  0.00  0.00    +0.292 HD
ENDBRANCH  24  29
BRANCH  23  31
ATOM     31  O   UNL     1      -1.668   4.724  -2.793  0.00  0.00    -0.491 OA
ATOM     32  C   UNL     1      -1.122   5.601  -1.807  0.00  0.00    +0.277 C 
ENDBRANCH  23  31
ENDBRANCH   6  21
BRANCH  12  33
ATOM     33  S   UNL     1      -2.943   3.018   4.835  0.00  0.00    -0.091 S 
ATOM     34  C   UNL     1      -1.857   4.381   5.325  0.00  0.00    +0.093 C 
ENDBRANCH  12  33
TORSDOF 5
