REMARK  Name = ZINC39918468
REMARK  7 active torsions:
REMARK  status: ('A' for Active; 'I' for Inactive)
REMARK    1  A    between atoms: C_1  and  C_2
REMARK    2  A    between atoms: N_8  and  C_9
REMARK    3  A    between atoms: C_9  and  C_10
REMARK    4  A    between atoms: C_26  and  C_30
REMARK    5  A    between atoms: C_27  and  N_29
REMARK    6  A    between atoms: C_30  and  O_32
REMARK    7  A    between atoms: O_32  and  C_33
REMARK                            x       y       z     vdW  Elec       q    Type
REMARK                         _______ _______ _______ _____ _____    ______ ____
ROOT
ATOM      1  C   UNL     1      -0.046   1.416  -0.094  0.00  0.00    +0.064 C 
ATOM      2  C   UNL     1      -0.070  -0.090  -0.047  0.00  0.00    +0.023 A 
ATOM      3  C   UNL     1      -0.214  -0.790  -1.192  0.00  0.00    +0.068 A 
ATOM      4  C   UNL     1      -0.238  -2.199  -1.155  0.00  0.00    +0.142 A 
ATOM      5  C   UNL     1      -0.111  -2.837   0.062  0.00  0.00    +0.083 A 
ATOM      6  C   UNL     1       0.035  -2.069   1.225  0.00  0.00    +0.260 A 
ATOM      7  O   UNL     1       0.148  -2.619   2.309  0.00  0.00    -0.267 OA
ATOM      8  N   UNL     1       0.057  -0.725   1.148  0.00  0.00    -0.308 N 
ATOM      9  C   UNL     1      -0.128  -4.336   0.145  0.00  0.00    +0.143 C 
ATOM     10  C   UNL     1      -1.404  -4.823   0.759  0.00  0.00    -0.002 A 
ATOM     11  C   UNL     1      -2.716  -4.699   0.356  0.00  0.00    +0.007 A 
ATOM     12  C   UNL     1      -3.683  -5.279   1.170  0.00  0.00    +0.000 A 
ATOM     13  C   UNL     1      -3.341  -5.948   2.328  0.00  0.00    +0.002 A 
ATOM     14  C   UNL     1      -2.024  -6.077   2.739  0.00  0.00    +0.023 A 
ATOM     15  C   UNL     1      -1.044  -5.499   1.931  0.00  0.00    +0.038 A 
ATOM     16  N   UNL     1       0.330  -5.474   2.098  0.00  0.00    -0.284 N 
ATOM     17  C   UNL     1       0.949  -4.813   1.098  0.00  0.00    +0.237 C 
ATOM     18  O   UNL     1       2.143  -4.634   0.984  0.00  0.00    -0.274 OA
ATOM     19  C   UNL     1       0.083  -4.945  -1.211  0.00  0.00    +0.117 C 
ATOM     20  C   UNL     1      -0.054  -4.202  -2.340  0.00  0.00    +0.196 C 
ATOM     21  O   UNL     1      -0.385  -2.901  -2.298  0.00  0.00    -0.441 OA
ATOM     22  H   UNL     1       0.792  -5.883   2.845  0.00  0.00    +0.155 HD
ENDROOT
BRANCH  20  23
ATOM     23  N   UNL     1       0.151  -4.797  -3.556  0.00  0.00    -0.329 N 
ATOM     24  H   UNL     1       0.318  -5.751  -3.607  0.00  0.00    +0.145 HD
ATOM     25  H   UNL     1       0.129  -4.264  -4.366  0.00  0.00    +0.145 HD
ENDBRANCH  20  23
BRANCH  19  26
ATOM     26  C   UNL     1       0.429  -6.301  -1.313  0.00  0.00    +0.341 C 
ATOM     27  O   UNL     1      -0.416  -7.160  -1.134  0.00  0.00    -0.245 OA
BRANCH  26  28
ATOM     28  O   UNL     1       1.698  -6.653  -1.612  0.00  0.00    -0.465 OA
ATOM     29  C   UNL     1       1.979  -8.052  -1.700  0.00  0.00    +0.280 C 
ENDBRANCH  26  28
ENDBRANCH  19  26
BRANCH   8  30
ATOM     30  C   UNL     1       0.215   0.065   2.372  0.00  0.00    +0.160 C 
BRANCH  30  31
ATOM     31  C   UNL     1       1.671   0.397   2.570  0.00  0.00    -0.025 A 
ATOM     32  C   UNL     1       2.529  -0.507   3.178  0.00  0.00    +0.025 A 
ATOM     33  C   UNL     1       3.859  -0.167   3.343  0.00  0.00    +0.111 A 
ATOM     34  N   UNL     1       4.313   1.000   2.931  0.00  0.00    -0.263 NA
ATOM     35  C   UNL     1       3.526   1.884   2.349  0.00  0.00    +0.111 A 
ATOM     36  C   UNL     1       2.187   1.612   2.145  0.00  0.00    +0.025 A 
ENDBRANCH  30  31
ENDBRANCH   8  30
TORSDOF 5
