REMARK  Name = ZINC44791815
REMARK  10 active torsions:
REMARK  status: ('A' for Active; 'I' for Inactive)
REMARK    1  A    between atoms: C_1  and  N_2
REMARK    2  A    between atoms: N_2  and  C_3
REMARK    3  A    between atoms: C_3  and  C_4
REMARK    4  A    between atoms: C_4  and  C_6
REMARK    5  A    between atoms: C_4  and  O_9
REMARK    6  A    between atoms: C_6  and  O_7
REMARK    7  A    between atoms: O_7  and  C_8
REMARK    8  A    between atoms: C_10  and  C_12
REMARK    9  A    between atoms: C_12  and  C_18
REMARK   10  A    between atoms: N_19  and  O_20
REMARK                            x       y       z     vdW  Elec       q    Type
REMARK                         _______ _______ _______ _____ _____    ______ ____
ROOT
ATOM      1  C   UNL     1      -0.125   0.083  -2.465  0.00  0.00    +0.109 C 
ATOM      2  C   UNL     1       0.340  -0.815  -3.615  0.00  0.00    +0.052 C 
ATOM      3  C   UNL     1      -0.627  -1.994  -3.755  0.00  0.00    +0.161 C 
ATOM      4  O   UNL     1      -1.949  -1.499  -3.975  0.00  0.00    -0.380 OA
ATOM      5  C   UNL     1      -2.455  -0.691  -2.911  0.00  0.00    +0.161 C 
ATOM      6  C   UNL     1      -1.562   0.540  -2.737  0.00  0.00    +0.052 C 
ENDROOT
BRANCH   1   7
ATOM      7  C   UNL     1       0.776   1.287  -2.367  0.00  0.00    +0.147 C 
ATOM      8  N   UNL     1       0.312   2.464  -2.626  0.00  0.00    -0.076 NA
ATOM      9  N   UNL     1       2.095   1.132  -2.001  0.00  0.00    -0.343 N 
ATOM     10  H   UNL     1       2.463   0.243  -1.878  0.00  0.00    +0.144 HD
ATOM     11  H   UNL     1       2.656   1.912  -1.866  0.00  0.00    +0.144 HD
BRANCH   8  12
ATOM     12  O   UNL     1       1.159   3.596  -2.534  0.00  0.00    -0.408 OA
ATOM     13  H   UNL     1       0.723   4.432  -2.747  0.00  0.00    +0.328 HD
ENDBRANCH   8  12
ENDBRANCH   1   7
BRANCH   1  16
ATOM     14  C   UNL     1      -0.393   1.409   0.029  0.00  0.00    +0.132 C 
ATOM     15  N   UNL     1      -0.148  -0.035   0.006  0.00  0.00    -0.301 N 
ATOM     16  C   UNL     1      -0.078  -0.688  -1.171  0.00  0.00    +0.229 C 
ATOM     17  O   UNL     1       0.023  -1.897  -1.189  0.00  0.00    -0.275 OA
BRANCH  15  18
ATOM     18  C   UNL     1       0.021  -0.770   1.262  0.00  0.00    +0.141 C 
BRANCH  18  19
ATOM     19  C   UNL     1      -1.341  -1.268   1.749  0.00  0.00    +0.157 C 
BRANCH  19  20
ATOM     20  O   UNL     1      -2.208  -0.151   1.962  0.00  0.00    -0.388 OA
ATOM     21  H   UNL     1      -1.882   0.479   2.620  0.00  0.00    +0.210 HD
ENDBRANCH  19  20
BRANCH  19  22
ATOM     22  C   UNL     1      -1.165  -2.035   3.061  0.00  0.00    +0.192 C 
BRANCH  22  23
ATOM     23  O   UNL     1      -2.418  -2.598   3.455  0.00  0.00    -0.380 OA
ATOM     24  C   UNL     1      -2.363  -3.340   4.675  0.00  0.00    +0.194 C 
ENDBRANCH  22  23
ENDBRANCH  19  22
ENDBRANCH  18  19
ENDBRANCH  15  18
ENDBRANCH   1  16
TORSDOF 8
