REMARK  Name = ZINC67095809
REMARK  7 active torsions:
REMARK  status: ('A' for Active; 'I' for Inactive)
REMARK    1  A    between atoms: C_1  and  C_2
REMARK    2  A    between atoms: C_7  and  N_9
REMARK    3  A    between atoms: N_9  and  C_10
REMARK    4  A    between atoms: C_13  and  S_20
REMARK    5  A    between atoms: C_15  and  S_16
REMARK    6  A    between atoms: S_16  and  C_19
REMARK    7  A    between atoms: S_20  and  N_23
REMARK                            x       y       z     vdW  Elec       q    Type
REMARK                         _______ _______ _______ _____ _____    ______ ____
ROOT
ATOM      1  C   UNL     1       0.279  -0.934   3.614  0.00  0.00    +0.053 A 
ATOM      2  C   UNL     1       1.584  -0.576   3.930  0.00  0.00    +0.027 A 
ATOM      3  C   UNL     1       2.002  -0.587   5.246  0.00  0.00    +0.030 A 
ATOM      4  C   UNL     1       1.124  -0.954   6.249  0.00  0.00    +0.107 A 
ATOM      5  C   UNL     1      -0.175  -1.312   5.938  0.00  0.00    +0.057 A 
ATOM      6  C   UNL     1      -0.602  -1.297   4.625  0.00  0.00    +0.110 A 
ENDROOT
BRANCH   6   7
ATOM      7  S   UNL     1      -2.260  -1.745   4.230  0.00  0.00    -0.004 S 
ATOM      8  O   UNL     1      -2.138  -2.723   3.207  0.00  0.00    -0.170 OA
ATOM      9  O   UNL     1      -2.853  -2.073   5.479  0.00  0.00    -0.170 OA
ATOM     10  C   UNL     1      -3.006  -0.232   3.563  0.00  0.00    +0.200 C 
ENDBRANCH   6   7
BRANCH   4  11
ATOM     11  S   UNL     1       1.661  -0.968   7.927  0.00  0.00    +0.056 S 
ATOM     12  O   UNL     1       0.811  -1.872   8.619  0.00  0.00    -0.153 OA
ATOM     13  O   UNL     1       3.074  -1.119   7.899  0.00  0.00    -0.153 OA
BRANCH  11  14
ATOM     14  N   UNL     1       1.359   0.537   8.550  0.00  0.00    -0.204 NA
ATOM     15  H   UNL     1       0.955   1.220   7.993  0.00  0.00    +0.144 HD
ATOM     16  H   UNL     1       1.587   0.735   9.472  0.00  0.00    +0.144 HD
ENDBRANCH  11  14
ENDBRANCH   4  11
BRANCH   1  17
ATOM     17  N   UNL     1      -0.147  -0.923   2.284  0.00  0.00    -0.339 N 
ATOM     18  H   UNL     1      -1.060  -1.170   2.065  0.00  0.00    +0.146 HD
BRANCH  17  24
ATOM     19  C   UNL     1      -0.019   1.526   0.010  0.00  0.00    +0.009 C 
ATOM     20  C   UNL     1       0.002  -0.004   0.002  0.00  0.00    +0.006 C 
ATOM     21  C   UNL     1       0.793  -0.529  -1.222  0.00  0.00    +0.005 C 
ATOM     22  C   UNL     1       1.228  -1.944  -0.767  0.00  0.00    +0.002 C 
ATOM     23  C   UNL     1       1.566  -1.774   0.729  0.00  0.00    +0.022 C 
ATOM     24  C   UNL     1       0.783  -0.540   1.219  0.00  0.00    +0.073 C 
ENDBRANCH  17  24
ENDBRANCH   1  17
TORSDOF 5
