REMARK  Name = ZINC16025187
REMARK  5 active torsions:
REMARK  status: ('A' for Active; 'I' for Inactive)
REMARK    1  A    between atoms: C_3  and  O_37
REMARK    2  A    between atoms: C_4  and  O_36
REMARK    3  A    between atoms: C_6  and  C_7
REMARK    4  A    between atoms: C_7  and  C_8
REMARK    5  A    between atoms: N_16  and  C_19
REMARK                            x       y       z     vdW  Elec       q    Type
REMARK                         _______ _______ _______ _____ _____    ______ ____
ROOT
ATOM      1  C   UNL     1      -1.746  -1.026  -1.429  0.00  0.00    +0.072 C 
ATOM      2  C   UNL     1      -3.053  -1.847  -1.445  0.00  0.00    +0.107 C 
ATOM      3  C   UNL     1      -2.597  -3.322  -1.620  0.00  0.00    +0.122 C 
ATOM      4  C   UNL     1      -3.157  -3.701  -2.972  0.00  0.00    +0.228 C 
ATOM      5  O   UNL     1      -3.037  -4.786  -3.501  0.00  0.00    -0.275 OA
ATOM      6  N   UNL     1      -3.805  -2.654  -3.495  0.00  0.00    -0.238 N 
ATOM      7  C   UNL     1      -3.815  -1.548  -2.716  0.00  0.00    +0.227 C 
ATOM      8  O   UNL     1      -4.341  -0.489  -2.985  0.00  0.00    -0.275 OA
ATOM      9  C   UNL     1      -1.066  -3.247  -1.682  0.00  0.00    +0.136 C 
ATOM     10  N   UNL     1      -0.752  -1.872  -2.143  0.00  0.00    -0.295 NA
ATOM     11  C   UNL     1      -0.500  -4.272  -2.623  0.00  0.00    +0.005 A 
ATOM     12  C   UNL     1      -0.668  -4.522  -3.967  0.00  0.00    +0.027 A 
ATOM     13  C   UNL     1       0.010  -5.569  -4.567  0.00  0.00    +0.041 A 
ATOM     14  C   UNL     1       0.857  -6.363  -3.813  0.00  0.00    +0.022 A 
ATOM     15  C   UNL     1       1.028  -6.116  -2.467  0.00  0.00    +0.025 A 
ATOM     16  C   UNL     1       0.349  -5.064  -1.856  0.00  0.00    +0.039 A 
ATOM     17  N   UNL     1       0.358  -4.620  -0.531  0.00  0.00    -0.283 N 
ATOM     18  C   UNL     1      -0.447  -3.556  -0.346  0.00  0.00    +0.243 C 
ATOM     19  O   UNL     1      -0.636  -2.963   0.694  0.00  0.00    -0.273 OA
ATOM     20 CL   UNL     1      -0.201  -5.885  -6.261  0.00  0.00    -0.084 Cl
ATOM     21  H   UNL     1      -0.853  -1.783  -3.143  0.00  0.00    +0.124 HD
ATOM     22  H   UNL     1       0.883  -5.031   0.174  0.00  0.00    +0.155 HD
ENDROOT
BRANCH   6  23
ATOM     23  C   UNL     1      -4.460  -2.701  -4.804  0.00  0.00    +0.084 C 
ATOM     24  C   UNL     1      -3.893  -1.596  -5.719  0.00  0.00    +0.023 C 
ATOM     25  C   UNL     1      -5.119  -1.105  -6.527  0.00  0.00    +0.002 C 
ATOM     26  C   UNL     1      -6.258  -1.147  -5.479  0.00  0.00    +0.002 C 
ATOM     27  C   UNL     1      -5.965  -2.415  -4.652  0.00  0.00    +0.023 C 
ENDBRANCH   6  23
BRANCH   1  28
ATOM     28  C   UNL     1      -1.294  -0.774   0.010  0.00  0.00    +0.054 C 
BRANCH  28  34
ATOM     29  C   UNL     1      -3.075   0.599   1.107  0.00  0.00    +0.007 A 
ATOM     30  C   UNL     1      -3.582   1.809   1.544  0.00  0.00    +0.049 A 
ATOM     31  C   UNL     1      -2.854   2.973   1.358  0.00  0.00    +0.158 A 
ATOM     32  C   UNL     1      -1.612   2.921   0.731  0.00  0.00    +0.158 A 
ATOM     33  C   UNL     1      -1.110   1.706   0.296  0.00  0.00    +0.052 A 
ATOM     34  C   UNL     1      -1.842   0.548   0.484  0.00  0.00    -0.042 A 
BRANCH  32  35
ATOM     35  O   UNL     1      -0.894   4.061   0.546  0.00  0.00    -0.503 OA
ATOM     36  H   UNL     1      -0.296   4.272   1.276  0.00  0.00    +0.292 HD
ENDBRANCH  32  35
BRANCH  31  37
ATOM     37  O   UNL     1      -3.352   4.164   1.786  0.00  0.00    -0.503 OA
ATOM     38  H   UNL     1      -3.105   4.389   2.694  0.00  0.00    +0.292 HD
ENDBRANCH  31  37
ENDBRANCH  28  34
ENDBRANCH   1  28
TORSDOF 5
