REMARK  Name = ZINC29914675
REMARK  7 active torsions:
REMARK  status: ('A' for Active; 'I' for Inactive)
REMARK    1  A    between atoms: C_1  and  C_2
REMARK    2  A    between atoms: C_4  and  N_27
REMARK    3  A    between atoms: C_6  and  S_8
REMARK    4  A    between atoms: S_8  and  C_9
REMARK    5  A    between atoms: C_9  and  C_11
REMARK    6  A    between atoms: C_9  and  C_12
REMARK    7  A    between atoms: C_20  and  C_22
REMARK                            x       y       z     vdW  Elec       q    Type
REMARK                         _______ _______ _______ _____ _____    ______ ____
ROOT
ATOM      1  C   UNL     1       0.168   1.504  -0.927  0.00  0.00    +0.229 C 
ATOM      2  O   UNL     1       0.218   0.325  -1.205  0.00  0.00    -0.274 OA
ATOM      3  N   UNL     1       1.303   2.187  -0.680  0.00  0.00    -0.298 N 
ATOM      4  C   UNL     1       1.258   3.618  -0.348  0.00  0.00    +0.127 C 
ATOM      5  C   UNL     1       1.984   3.829   0.991  0.00  0.00    +0.127 C 
ATOM      6  N   UNL     1       3.290   3.157   0.927  0.00  0.00    -0.292 N 
ATOM      7  C   UNL     1       3.335   1.728   0.589  0.00  0.00    +0.127 C 
ATOM      8  C   UNL     1       2.609   1.516  -0.745  0.00  0.00    +0.127 C 
ATOM      9  C   UNL     1       4.426   3.840   1.173  0.00  0.00    +0.282 C 
ATOM     10  O   UNL     1       4.390   5.048   1.316  0.00  0.00    -0.267 OA
ENDROOT
BRANCH   9  11
ATOM     11  C   UNL     1       5.704   3.128   1.267  0.00  0.00    +0.189 A 
ATOM     12  C   UNL     1       6.938   3.704   1.366  0.00  0.00    +0.054 A 
ATOM     13  C   UNL     1       7.869   2.655   1.431  0.00  0.00    +0.042 A 
ATOM     14  C   UNL     1       7.171   1.500   1.370  0.00  0.00    +0.196 A 
ATOM     15  O   UNL     1       5.867   1.789   1.277  0.00  0.00    -0.458 OA
ENDBRANCH   9  11
BRANCH   1  16
ATOM     16  C   UNL     1      -1.163   2.208  -0.863  0.00  0.00    +0.137 C 
ATOM     17  C   UNL     1      -1.606   2.330   0.596  0.00  0.00    +0.029 C 
BRANCH  16  18
ATOM     18  S   UNL     1      -2.394   1.256  -1.789  0.00  0.00    -0.074 S 
BRANCH  18  24
ATOM     19  C   UNL     1      -7.268   2.398  -2.852  0.00  0.00    +0.066 C 
ATOM     20  C   UNL     1      -5.973   2.801  -2.195  0.00  0.00    +0.044 A 
ATOM     21  C   UNL     1      -5.876   4.005  -1.523  0.00  0.00    +0.066 A 
ATOM     22  C   UNL     1      -4.658   4.340  -0.928  0.00  0.00    +0.121 A 
ATOM     23  N   UNL     1      -3.637   3.494  -1.028  0.00  0.00    -0.207 NA
ATOM     24  C   UNL     1      -3.771   2.349  -1.681  0.00  0.00    +0.191 A 
ATOM     25  N   UNL     1      -4.914   2.008  -2.259  0.00  0.00    -0.227 NA
BRANCH  22  26
ATOM     26  N   UNL     1      -4.515   5.537  -0.245  0.00  0.00    -0.343 N 
ATOM     27  H   UNL     1      -3.552   5.793   0.221  0.00  0.00    +0.144 HD
ATOM     28  H   UNL     1      -5.365   6.230  -0.167  0.00  0.00    +0.144 HD
ENDBRANCH  22  26
ENDBRANCH  18  24
ENDBRANCH  16  18
ENDBRANCH   1  16
TORSDOF 5
