REMARK  Name = ZINC48731576
REMARK  4 active torsions:
REMARK  status: ('A' for Active; 'I' for Inactive)
REMARK    1  A    between atoms: C_1  and  N_2
REMARK    2  A    between atoms: N_2  and  C_3
REMARK    3  A    between atoms: N_2  and  N_9
REMARK    4  A    between atoms: N_12  and  C_13
REMARK                            x       y       z     vdW  Elec       q    Type
REMARK                         _______ _______ _______ _____ _____    ______ ____
ROOT
ATOM      1  N   UNL     1       0.000  -0.698  -1.215  0.00  0.00    -0.218 N 
ATOM      2  C   UNL     1       1.121  -0.754  -1.961  0.00  0.00    +0.316 C 
ATOM      3  O   UNL     1       1.119  -1.356  -3.017  0.00  0.00    -0.251 OA
ATOM      4  N   UNL     1       2.245  -0.142  -1.536  0.00  0.00    -0.294 N 
ATOM      5  H   UNL     1      -0.808  -1.138  -1.521  0.00  0.00    +0.175 HD
ATOM      6  H   UNL     1       2.246   0.338  -0.693  0.00  0.00    +0.151 HD
ENDROOT
BRANCH   4   7
ATOM      7  C   UNL     1       3.463  -0.203  -2.346  0.00  0.00    +0.097 C 
ATOM      8  C   UNL     1       4.248  -1.482  -2.009  0.00  0.00    +0.046 C 
ATOM      9  C   UNL     1       5.672  -1.401  -2.610  0.00  0.00    +0.168 C 
ATOM     10  S   UNL     1       5.993   0.409  -2.648  0.00  0.00    -0.029 S 
ATOM     11  O   UNL     1       6.155   0.822  -3.998  0.00  0.00    -0.174 OA
ATOM     12  O   UNL     1       7.000   0.720  -1.695  0.00  0.00    -0.174 OA
ATOM     13  C   UNL     1       4.370   1.019  -2.025  0.00  0.00    +0.188 C 
ENDBRANCH   4   7
BRANCH   1  15
ATOM     14  C   UNL     1      -0.018   1.461   0.010  0.00  0.00    +0.154 C 
ATOM     15  N   UNL     1       0.002  -0.004   0.002  0.00  0.00    -0.253 N 
BRANCH  15  16
ATOM     16  C   UNL     1       0.023  -0.709   1.208  0.00  0.00    +0.047 A 
ATOM     17  C   UNL     1       0.048  -2.098   1.202  0.00  0.00    +0.025 A 
ATOM     18  C   UNL     1       0.068  -2.792   2.396  0.00  0.00    +0.002 A 
ATOM     19  C   UNL     1       0.064  -2.105   3.596  0.00  0.00    +0.000 A 
ATOM     20  C   UNL     1       0.039  -0.723   3.606  0.00  0.00    +0.002 A 
ATOM     21  C   UNL     1       0.025  -0.022   2.415  0.00  0.00    +0.025 A 
ENDBRANCH  15  16
ENDBRANCH   1  15
TORSDOF 3
