REMARK  Name = ZINC66924936
REMARK  7 active torsions:
REMARK  status: ('A' for Active; 'I' for Inactive)
REMARK    1  A    between atoms: C_1  and  C_2
REMARK    2  A    between atoms: N_7  and  C_9
REMARK    3  A    between atoms: C_9  and  C_10
REMARK    4  A    between atoms: C_10  and  N_11
REMARK    5  A    between atoms: C_17  and  N_20
REMARK    6  A    between atoms: C_21  and  C_23
REMARK    7  A    between atoms: C_23  and  C_24
REMARK                            x       y       z     vdW  Elec       q    Type
REMARK                         _______ _______ _______ _____ _____    ______ ____
ROOT
ATOM      1  N   UNL     1       1.964  -4.471   3.743  0.00  0.00    -0.301 N 
ATOM      2  C   UNL     1       2.002  -5.792   4.009  0.00  0.00    +0.302 C 
ATOM      3  O   UNL     1       1.424  -6.576   3.281  0.00  0.00    -0.253 OA
ATOM      4  N   UNL     1       2.680  -6.244   5.083  0.00  0.00    -0.286 N 
ATOM      5  C   UNL     1       3.285  -5.304   6.036  0.00  0.00    +0.111 C 
ATOM      6  C   UNL     1       4.768  -5.652   6.198  0.00  0.00    +0.041 C 
ATOM      7  C   UNL     1       4.902  -7.123   6.596  0.00  0.00    +0.076 C 
ATOM      8  C   UNL     1       4.317  -8.007   5.492  0.00  0.00    +0.041 C 
ATOM      9  C   UNL     1       2.824  -7.686   5.325  0.00  0.00    +0.111 C 
ATOM     10  H   UNL     1       2.362  -3.840   4.363  0.00  0.00    +0.150 HD
ENDROOT
BRANCH   7  11
ATOM     11  N   UNL     1       6.318  -7.451   6.784  0.00  0.00    -0.312 N 
ATOM     12  C   UNL     1       6.672  -8.472   7.589  0.00  0.00    +0.214 C 
ATOM     13  O   UNL     1       5.819  -9.119   8.159  0.00  0.00    -0.276 OA
ATOM     14  H   UNL     1       7.000  -6.933   6.328  0.00  0.00    +0.149 HD
BRANCH  12  15
ATOM     15  C   UNL     1       8.128  -8.809   7.783  0.00  0.00    +0.099 C 
BRANCH  15  16
ATOM     16  C   UNL     1       8.254  -9.998   8.737  0.00  0.00    -0.002 C 
ATOM     17  C   UNL     1       7.744  -9.596  10.123  0.00  0.00    +0.004 C 
ATOM     18  C   UNL     1       7.870 -10.786  11.077  0.00  0.00    +0.000 C 
ATOM     19  C   UNL     1       9.337 -11.207  11.176  0.00  0.00    +0.000 C 
ATOM     20  C   UNL     1       9.847 -11.608   9.791  0.00  0.00    +0.000 C 
ATOM     21  C   UNL     1       9.722 -10.419   8.836  0.00  0.00    +0.004 C 
ENDBRANCH  15  16
ENDBRANCH  12  15
ENDBRANCH   7  11
BRANCH   1  22
ATOM     22  C   UNL     1       1.322  -3.989   2.518  0.00  0.00    +0.087 C 
BRANCH  22  23
ATOM     23  C   UNL     1       1.416  -2.463   2.459  0.00  0.00    -0.060 C 
BRANCH  23  29
ATOM     24  C   UNL     1      -0.012   1.525   0.006  0.00  0.00    +0.005 C 
ATOM     25  C   UNL     1       0.008  -0.005  -0.002  0.00  0.00    -0.031 C 
ATOM     26  C   UNL     1       0.728  -0.500  -1.260  0.00  0.00    -0.001 C 
ATOM     27  C   UNL     1       0.811  -2.029  -1.219  0.00  0.00    -0.018 C 
ATOM     28  C   UNL     1       1.523  -2.462   0.064  0.00  0.00    -0.079 C 
ATOM     29  N   UNL     1       0.772  -1.980   1.230  0.00  0.00    +0.381 N 
ATOM     30  C   UNL     1       0.749  -0.512   1.237  0.00  0.00    -0.076 C 
ATOM     31  H   UNL     1      -0.173  -2.330   1.188  0.00  0.00    -0.082 HD
ENDBRANCH  23  29
ENDBRANCH  22  23
ENDBRANCH   1  22
TORSDOF 6
