REMARK  Name = ZINC37542600
REMARK  4 active torsions:
REMARK  status: ('A' for Active; 'I' for Inactive)
REMARK    1  A    between atoms: C_2  and  C_8
REMARK    2  A    between atoms: N_10  and  C_11
REMARK    3  A    between atoms: N_10  and  C_15
REMARK    4  A    between atoms: C_11  and  C_12
REMARK                            x       y       z     vdW  Elec       q    Type
REMARK                         _______ _______ _______ _____ _____    ______ ____
ROOT
ATOM      1  C   UNL     1       1.245   3.537   0.027  0.00  0.00    +0.249 C 
ATOM      2  O   UNL     1       0.211   4.171  -0.051  0.00  0.00    -0.270 OA
ATOM      3  N   UNL     1       2.427   4.181   0.103  0.00  0.00    -0.286 N 
ENDROOT
BRANCH   3   4
ATOM      4  C   UNL     1       2.459   5.642   0.201  0.00  0.00    +0.073 C 
ATOM      5  C   UNL     1       1.706   6.088   1.457  0.00  0.00    +0.003 C 
ATOM      6  C   UNL     1       1.675   7.617   1.511  0.00  0.00    -0.081 C 
ATOM      7  N   UNL     1       0.995   8.139   0.320  0.00  0.00    +0.379 N 
ATOM      8  C   UNL     1       1.751   7.776  -0.885  0.00  0.00    -0.081 C 
ATOM      9  C   UNL     1       1.784   6.253  -1.031  0.00  0.00    +0.003 C 
ATOM     10  H   UNL     1       0.067   7.746   0.265  0.00  0.00    -0.086 HD
ATOM     11  H   UNL     1       0.929   9.144   0.384  0.00  0.00    -0.086 HD
ENDBRANCH   3   4
BRANCH   1  13
ATOM     12  C   UNL     1       2.058   1.319  -0.792  0.00  0.00    +0.031 A 
ATOM     13  C   UNL     1       1.207   2.059   0.037  0.00  0.00    +0.056 A 
ATOM     14  C   UNL     1       0.323   1.378   0.875  0.00  0.00    +0.123 A 
ATOM     15  N   UNL     1       0.288   0.062   0.885  0.00  0.00    -0.261 NA
ATOM     16  C   UNL     1       1.078  -0.662   0.115  0.00  0.00    +0.126 A 
ATOM     17  C   UNL     1       1.983  -0.063  -0.744  0.00  0.00    +0.037 A 
ATOM     18 BR   UNL     1       3.104  -1.120  -1.840  0.00  0.00    -0.049 Br
ENDBRANCH   1  13
BRANCH   3  19
ATOM     19  C   UNL     1       3.678   3.420   0.087  0.00  0.00    +0.203 C 
BRANCH  19  20
ATOM     20  C   UNL     1       4.223   3.376  -1.317  0.00  0.00    +0.228 C 
ATOM     21  O   UNL     1       3.624   3.927  -2.217  0.00  0.00    -0.274 OA
ATOM     22  N   UNL     1       5.375   2.726  -1.574  0.00  0.00    -0.328 N 
ATOM     23  H   UNL     1       5.853   2.285  -0.854  0.00  0.00    +0.145 HD
ATOM     24  H   UNL     1       5.725   2.698  -2.478  0.00  0.00    +0.145 HD
ENDBRANCH  19  20
ENDBRANCH   3  19
TORSDOF 4
