REMARK  Name = ZINC51146461
REMARK  6 active torsions:
REMARK  status: ('A' for Active; 'I' for Inactive)
REMARK    1  A    between atoms: C_3  and  C_16
REMARK    2  A    between atoms: N_6  and  C_8
REMARK    3  A    between atoms: C_8  and  C_9
REMARK    4  A    between atoms: C_10  and  N_14
REMARK    5  A    between atoms: N_14  and  N_15
REMARK    6  A    between atoms: C_16  and  O_17
REMARK                            x       y       z     vdW  Elec       q    Type
REMARK                         _______ _______ _______ _____ _____    ______ ____
ROOT
ATOM      1  C   UNL     1       0.662  -1.962   1.218  0.00  0.00    -0.018 C 
ENDROOT
BRANCH   1   6
ATOM      2  C   UNL     1      -0.019   1.526   0.010  0.00  0.00    -0.018 C 
ATOM      3  C   UNL     1       1.420   2.051  -0.001  0.00  0.00    +0.002 C 
ATOM      4  C   UNL     1       2.172   1.474   1.202  0.00  0.00    -0.002 C 
ATOM      5  C   UNL     1       2.112  -0.054   1.150  0.00  0.00    -0.073 C 
ATOM      6  N   UNL     1       0.712  -0.494   1.190  0.00  0.00    +0.384 N 
ATOM      7  C   UNL     1       0.002  -0.004   0.002  0.00  0.00    -0.078 C 
ATOM      8  H   UNL     1       0.270  -0.128   2.019  0.00  0.00    -0.081 HD
BRANCH   4   9
ATOM      9  C   UNL     1       3.632   1.930   1.158  0.00  0.00    +0.157 C 
BRANCH   9  10
ATOM     10  O   UNL     1       3.693   3.349   1.320  0.00  0.00    -0.395 OA
ATOM     11  H   UNL     1       4.590   3.708   1.302  0.00  0.00    +0.209 HD
ENDBRANCH   9  10
ENDBRANCH   4   9
ENDBRANCH   1   6
BRANCH   1  12
ATOM     12  C   UNL     1      -0.767  -2.413   1.382  0.00  0.00    +0.078 A 
ATOM     13  C   UNL     1      -1.324  -2.606   2.614  0.00  0.00    +0.120 A 
ATOM     14  S   UNL     1      -2.884  -3.090   2.219  0.00  0.00    +0.053 S 
ATOM     15  N   UNL     1      -2.760  -3.026   0.549  0.00  0.00    -0.109 NA
ATOM     16  N   UNL     1      -1.547  -2.636   0.349  0.00  0.00    -0.146 NA
BRANCH  13  17
ATOM     17  N   UNL     1      -0.748  -2.444   3.872  0.00  0.00    -0.275 N 
ATOM     18  H   UNL     1       0.174  -2.156   3.950  0.00  0.00    +0.167 HD
BRANCH  17  19
ATOM     19  N   UNL     1      -1.484  -2.691   4.996  0.00  0.00    -0.256 NA
ATOM     20  H   UNL     1      -0.936  -2.532   5.829  0.00  0.00    +0.140 HD
ATOM     21  H   UNL     1      -2.326  -2.136   5.006  0.00  0.00    +0.140 HD
ENDBRANCH  17  19
ENDBRANCH  13  17
ENDBRANCH   1  12
TORSDOF 6
