REMARK  Name = ZINC39695705
REMARK  9 active torsions:
REMARK  status: ('A' for Active; 'I' for Inactive)
REMARK    1  A    between atoms: C_1  and  C_2
REMARK    2  A    between atoms: C_9  and  C_11
REMARK    3  A    between atoms: C_11  and  C_13
REMARK    4  A    between atoms: C_11  and  N_14
REMARK    5  A    between atoms: C_15  and  C_17
REMARK    6  A    between atoms: C_28  and  C_30
REMARK    7  A    between atoms: C_35  and  O_36
REMARK    8  A    between atoms: O_36  and  C_37
REMARK    9  A    between atoms: C_37  and  C_39
REMARK                            x       y       z     vdW  Elec       q    Type
REMARK                         _______ _______ _______ _____ _____    ______ ____
ROOT
ATOM      1  C   UNL     1      -1.497  -9.216   0.835  0.00  0.00    +0.100 C 
ATOM      2  C   UNL     1      -2.709  -8.493   0.206  0.00  0.00    +0.121 C 
ATOM      3  N   UNL     1      -3.796  -9.501   0.222  0.00  0.00    -0.296 N 
ATOM      4  C   UNL     1      -3.633 -10.198   1.520  0.00  0.00    +0.115 C 
ATOM      5  C   UNL     1      -2.107 -10.334   1.698  0.00  0.00    -0.004 C 
ATOM      6  C   UNL     1      -1.728 -10.138   3.162  0.00  0.00    -0.010 C 
ATOM      7  C   UNL     1      -2.297 -11.293   3.991  0.00  0.00    -0.082 C 
ATOM      8  N   UNL     1      -1.763 -12.566   3.492  0.00  0.00    +0.379 N 
ATOM      9  C   UNL     1      -2.211 -12.790   2.112  0.00  0.00    -0.082 C 
ATOM     10  C   UNL     1      -1.638 -11.698   1.204  0.00  0.00    -0.010 C 
ATOM     11  C   UNL     1      -4.722  -9.732  -0.729  0.00  0.00    +0.250 C 
ATOM     12  O   UNL     1      -5.612 -10.535  -0.528  0.00  0.00    -0.270 OA
ATOM     13  H   UNL     1      -0.754 -12.539   3.517  0.00  0.00    -0.086 HD
ATOM     14  H   UNL     1      -2.091 -13.319   4.077  0.00  0.00    -0.086 HD
ENDROOT
BRANCH  11  15
ATOM     15  C   UNL     1      -4.656  -9.009  -2.014  0.00  0.00    +0.079 A 
ATOM     16  C   UNL     1      -4.213  -7.686  -2.054  0.00  0.00    +0.017 A 
ATOM     17  C   UNL     1      -4.153  -7.017  -3.258  0.00  0.00    +0.001 A 
ATOM     18  C   UNL     1      -4.531  -7.651  -4.429  0.00  0.00    +0.004 A 
ATOM     19  C   UNL     1      -4.971  -8.960  -4.404  0.00  0.00    +0.047 A 
ATOM     20  C   UNL     1      -5.033  -9.650  -3.203  0.00  0.00    +0.144 A 
BRANCH  20  21
ATOM     21  O   UNL     1      -5.461 -10.937  -3.177  0.00  0.00    -0.425 OA
BRANCH  21  22
ATOM     22  C   UNL     1      -4.538 -11.910  -3.260  0.00  0.00    +0.309 C 
ATOM     23  O   UNL     1      -3.363 -11.629  -3.263  0.00  0.00    -0.251 OA
ATOM     24  C   UNL     1      -4.969 -13.351  -3.351  0.00  0.00    +0.136 C 
ENDBRANCH  21  22
ENDBRANCH  20  21
ENDBRANCH  11  15
BRANCH   1  26
ATOM     25  N   UNL     1       0.597  -8.504   1.943  0.00  0.00    -0.305 N 
ATOM     26  C   UNL     1      -0.706  -8.264   1.694  0.00  0.00    +0.219 C 
ATOM     27  O   UNL     1      -1.241  -7.280   2.161  0.00  0.00    -0.275 OA
ATOM     28  H   UNL     1       1.025  -9.290   1.569  0.00  0.00    +0.149 HD
BRANCH  25  29
ATOM     29  C   UNL     1       1.366  -7.578   2.777  0.00  0.00    +0.136 C 
ATOM     30  C   UNL     1       1.169  -7.937   4.252  0.00  0.00    +0.036 C 
BRANCH  29  39
ATOM     31  C   UNL     1       8.663  -6.840   1.514  0.00  0.00    +0.044 C 
ATOM     32  C   UNL     1       7.270  -7.411   1.587  0.00  0.00    -0.048 A 
ATOM     33  C   UNL     1       7.030  -8.702   1.138  0.00  0.00    +0.005 A 
ATOM     34  C   UNL     1       5.775  -9.238   1.196  0.00  0.00    +0.030 A 
ATOM     35  C   UNL     1       4.719  -8.483   1.714  0.00  0.00    +0.089 A 
ATOM     36  C   UNL     1       4.962  -7.176   2.170  0.00  0.00    +0.067 A 
ATOM     37  C   UNL     1       6.245  -6.650   2.107  0.00  0.00    +0.031 A 
ATOM     38  N   UNL     1       3.746  -6.696   2.614  0.00  0.00    -0.340 N 
ATOM     39  C   UNL     1       2.828  -7.681   2.426  0.00  0.00    +0.128 A 
ATOM     40  N   UNL     1       3.396  -8.727   1.900  0.00  0.00    -0.231 NA
ATOM     41  H   UNL     1       3.578  -5.818   2.991  0.00  0.00    +0.167 HD
ENDBRANCH  29  39
ENDBRANCH  25  29
ENDBRANCH   1  26
TORSDOF 6
