REMARK  Name = ZINC15900737
REMARK  4 active torsions:
REMARK  status: ('A' for Active; 'I' for Inactive)
REMARK    1  A    between atoms: C_10  and  C_13
REMARK    2  A    between atoms: C_13  and  C_14
REMARK    3  A    between atoms: N_16  and  N_17
REMARK    4  A    between atoms: C_18  and  C_20
REMARK                            x       y       z     vdW  Elec       q    Type
REMARK                         _______ _______ _______ _____ _____    ______ ____
ROOT
ATOM      1  C   UNL     1       3.693   6.342   0.001  0.00  0.00    +0.231 C 
ATOM      2  O   UNL     1       4.752   5.750  -0.012  0.00  0.00    -0.274 OA
ATOM      3  N   UNL     1       2.535   5.653   0.008  0.00  0.00    -0.234 N 
ATOM      4  H   UNL     1       1.689   6.126   0.019  0.00  0.00    +0.173 HD
ENDROOT
BRANCH   3   5
ATOM      5  N   UNL     1       2.554   4.252   0.001  0.00  0.00    -0.234 N 
ATOM      6  C   UNL     1       1.396   3.562   0.008  0.00  0.00    +0.235 C 
ATOM      7  O   UNL     1       0.338   4.154   0.021  0.00  0.00    -0.274 OA
ATOM      8  H   UNL     1       3.401   3.778  -0.010  0.00  0.00    +0.173 HD
BRANCH   6   9
ATOM      9  C   UNL     1       1.417   2.055  -0.000  0.00  0.00    +0.049 C 
ATOM     10  C   UNL     1      -0.019   1.526   0.010  0.00  0.00    +0.019 C 
ATOM     11  C   UNL     1       0.002  -0.004   0.002  0.00  0.00    -0.009 C 
ATOM     12  C   UNL     1       0.718  -0.497  -1.257  0.00  0.00    +0.007 C 
ATOM     13  C   UNL     1       2.154   0.032  -1.268  0.00  0.00    -0.009 C 
ATOM     14  C   UNL     1       2.133   1.562  -1.259  0.00  0.00    +0.019 C 
ATOM     15  C   UNL     1       2.894  -0.475  -0.028  0.00  0.00    +0.007 C 
ATOM     16  C   UNL     1       2.178   0.019   1.231  0.00  0.00    -0.009 C 
ATOM     17  C   UNL     1       0.742  -0.511   1.242  0.00  0.00    +0.007 C 
ATOM     18  C   UNL     1       2.157   1.548   1.239  0.00  0.00    +0.019 C 
ENDBRANCH   6   9
ENDBRANCH   3   5
BRANCH   1  19
ATOM     19  C   UNL     1       3.673   7.849   0.009  0.00  0.00    +0.121 C 
BRANCH  19  29
ATOM     20  C   UNL     1       4.160  10.775   4.550  0.00  0.00    +0.002 A 
ATOM     21  C   UNL     1       4.580   9.524   4.961  0.00  0.00    +0.001 A 
ATOM     22  C   UNL     1       5.125   8.644   4.044  0.00  0.00    +0.016 A 
ATOM     23  C   UNL     1       5.246   9.019   2.716  0.00  0.00    +0.030 A 
ATOM     24  C   UNL     1       4.819  10.276   2.292  0.00  0.00    +0.047 A 
ATOM     25  C   UNL     1       4.277  11.153   3.227  0.00  0.00    +0.024 A 
ATOM     26  N   UNL     1       4.907  10.673   0.961  0.00  0.00    -0.284 N 
ATOM     27  C   UNL     1       5.092   9.883  -0.092  0.00  0.00    +0.231 C 
ATOM     28  O   UNL     1       5.257  10.398  -1.177  0.00  0.00    -0.274 OA
ATOM     29  C   UNL     1       5.108   8.379  -0.002  0.00  0.00    +0.146 C 
ATOM     30  S   UNL     1       5.947   7.903   1.541  0.00  0.00    -0.110 S 
ATOM     31  H   UNL     1       4.824  11.623   0.783  0.00  0.00    +0.155 HD
ENDBRANCH  19  29
ENDBRANCH   1  19
TORSDOF 4
