REMARK  Name = ZINC53041856
REMARK  7 active torsions:
REMARK  status: ('A' for Active; 'I' for Inactive)
REMARK    1  A    between atoms: C_1  and  C_2
REMARK    2  A    between atoms: C_5  and  C_7
REMARK    3  A    between atoms: C_7  and  N_8
REMARK    4  A    between atoms: C_9  and  C_11
REMARK    5  A    between atoms: C_14  and  S_18
REMARK    6  A    between atoms: C_16  and  C_17
REMARK    7  A    between atoms: S_18  and  N_21
REMARK                            x       y       z     vdW  Elec       q    Type
REMARK                         _______ _______ _______ _____ _____    ______ ____
ROOT
ATOM      1  C   UNL     1       2.947  -5.211  -3.068  0.00  0.00    +0.040 A 
ATOM      2  C   UNL     1       2.303  -4.563  -4.124  0.00  0.00    +0.015 A 
ATOM      3  C   UNL     1       2.752  -4.741  -5.416  0.00  0.00    +0.029 A 
ATOM      4  C   UNL     1       3.839  -5.560  -5.667  0.00  0.00    +0.105 A 
ATOM      5  C   UNL     1       4.482  -6.205  -4.626  0.00  0.00    +0.032 A 
ATOM      6  C   UNL     1       4.046  -6.031  -3.328  0.00  0.00    -0.037 A 
ATOM      7  C   UNL     1       4.752  -6.730  -2.195  0.00  0.00    +0.044 C 
ENDROOT
BRANCH   1   9
ATOM      8  N   UNL     1       1.496  -4.133  -1.417  0.00  0.00    -0.304 N 
ATOM      9  C   UNL     1       2.472  -5.025  -1.681  0.00  0.00    +0.245 C 
ATOM     10  O   UNL     1       2.960  -5.676  -0.778  0.00  0.00    -0.270 OA
ATOM     11  H   UNL     1       1.107  -3.613  -2.138  0.00  0.00    +0.149 HD
BRANCH   8  12
ATOM     12  C   UNL     1       1.025  -3.948  -0.043  0.00  0.00    +0.179 C 
BRANCH  12  17
ATOM     13  C   UNL     1      -1.282   0.527   0.262  0.00  0.00    +0.086 C 
ATOM     14  C   UNL     1      -1.063  -0.957   0.113  0.00  0.00    +0.102 A 
ATOM     15  C   UNL     1      -2.024  -1.879  -0.075  0.00  0.00    +0.045 A 
ATOM     16  C   UNL     1      -1.378  -3.133  -0.161  0.00  0.00    +0.046 A 
ATOM     17  C   UNL     1      -0.060  -2.903  -0.020  0.00  0.00    +0.122 A 
ATOM     18  O   UNL     1       0.125  -1.582   0.140  0.00  0.00    -0.463 OA
ENDBRANCH  12  17
ENDBRANCH   8  12
ENDBRANCH   1   9
BRANCH   4  19
ATOM     19  S   UNL     1       4.405  -5.782  -7.321  0.00  0.00    +0.056 S 
ATOM     20  O   UNL     1       5.096  -7.024  -7.350  0.00  0.00    -0.153 OA
ATOM     21  O   UNL     1       3.300  -5.505  -8.169  0.00  0.00    -0.153 OA
BRANCH  19  22
ATOM     22  N   UNL     1       5.534  -4.606  -7.614  0.00  0.00    -0.204 NA
ATOM     23  H   UNL     1       5.759  -3.966  -6.921  0.00  0.00    +0.144 HD
ATOM     24  H   UNL     1       5.970  -4.558  -8.479  0.00  0.00    +0.144 HD
ENDBRANCH  19  22
ENDBRANCH   4  19
TORSDOF 5
