REMARK  Name = ZINC39509738
REMARK  5 active torsions:
REMARK  status: ('A' for Active; 'I' for Inactive)
REMARK    1  A    between atoms: C_4  and  C_7
REMARK    2  A    between atoms: C_7  and  C_8
REMARK    3  A    between atoms: C_14  and  C_21
REMARK    4  A    between atoms: N_19  and  O_20
REMARK    5  A    between atoms: C_26  and  O_27
REMARK                            x       y       z     vdW  Elec       q    Type
REMARK                         _______ _______ _______ _____ _____    ______ ____
ROOT
ATOM      1  C   UNL     1       4.246  -0.310   1.973  0.00  0.00    -0.005 C 
ATOM      2  C   UNL     1       4.704   0.742   3.014  0.00  0.00    +0.006 C 
ATOM      3  C   UNL     1       5.657  -0.037   3.945  0.00  0.00    +0.025 C 
ATOM      4  C   UNL     1       6.180  -1.232   3.133  0.00  0.00    +0.054 C 
ATOM      5  C   UNL     1       5.528  -1.148   1.739  0.00  0.00    +0.029 C 
ATOM      6  C   UNL     1       5.772  -2.539   3.810  0.00  0.00    +0.045 C 
ATOM      7  C   UNL     1       6.433  -2.622   5.190  0.00  0.00    +0.011 C 
ATOM      8  C   UNL     1       7.951  -2.507   5.027  0.00  0.00    +0.018 C 
ATOM      9  C   UNL     1       8.287  -1.189   4.326  0.00  0.00    +0.115 C 
ATOM     10  N   UNL     1       7.637  -1.154   3.009  0.00  0.00    -0.184 NA
ENDROOT
BRANCH   6  11
ATOM     11  C   UNL     1       4.274  -2.580   3.966  0.00  0.00    -0.001 A 
ATOM     12  C   UNL     1       3.474  -2.876   2.879  0.00  0.00    +0.007 A 
ATOM     13  C   UNL     1       2.099  -2.913   3.021  0.00  0.00    +0.001 A 
ATOM     14  C   UNL     1       1.521  -2.653   4.250  0.00  0.00    +0.004 A 
ATOM     15  C   UNL     1       2.317  -2.357   5.340  0.00  0.00    +0.046 A 
ATOM     16  C   UNL     1       3.697  -2.325   5.201  0.00  0.00    +0.120 A 
BRANCH  16  17
ATOM     17  O   UNL     1       4.482  -2.039   6.273  0.00  0.00    -0.506 OA
ATOM     18  H   UNL     1       4.591  -1.093   6.440  0.00  0.00    +0.292 HD
ENDBRANCH  16  17
ENDBRANCH   6  11
BRANCH  10  19
ATOM     19  O   UNL     1       8.036   0.037   2.258  0.00  0.00    -0.312 OA
ATOM     20  H   UNL     1       8.992   0.132   2.150  0.00  0.00    +0.237 HD
ENDBRANCH  10  19
BRANCH   1  21
ATOM     21  C   UNL     1       3.798   0.369   0.677  0.00  0.00    +0.038 C 
BRANCH  21  25
ATOM     22  C   UNL     1       0.169   2.514   1.372  0.00  0.00    +0.000 A 
ATOM     23  C   UNL     1       1.388   3.140   1.552  0.00  0.00    +0.000 A 
ATOM     24  C   UNL     1       2.562   2.446   1.328  0.00  0.00    +0.003 A 
ATOM     25  C   UNL     1       2.518   1.125   0.923  0.00  0.00    -0.047 A 
ATOM     26  C   UNL     1       1.299   0.498   0.743  0.00  0.00    +0.003 A 
ATOM     27  C   UNL     1       0.125   1.193   0.967  0.00  0.00    +0.000 A 
ENDBRANCH  21  25
ENDBRANCH   1  21
TORSDOF 5
