REMARK  Name = ZINC09833235
REMARK  6 active torsions:
REMARK  status: ('A' for Active; 'I' for Inactive)
REMARK    1  A    between atoms: C_3  and  C_6
REMARK    2  A    between atoms: C_6  and  C_8
REMARK    3  A    between atoms: C_10  and  C_22
REMARK    4  A    between atoms: C_16  and  C_17
REMARK    5  A    between atoms: C_16  and  O_21
REMARK    6  A    between atoms: C_25  and  C_28
REMARK                            x       y       z     vdW  Elec       q    Type
REMARK                         _______ _______ _______ _____ _____    ______ ____
ROOT
ATOM      1  C   UNL     1      -3.504   2.103   5.395  0.00  0.00    +0.145 C 
ATOM      2  C   UNL     1      -2.721   3.260   4.764  0.00  0.00    +0.120 C 
ATOM      3  N   UNL     1      -3.652   4.332   4.408  0.00  0.00    -0.292 N 
ATOM      4  C   UNL     1      -4.928   4.071   4.088  0.00  0.00    +0.302 C 
ATOM      5  O   UNL     1      -5.657   4.997   3.791  0.00  0.00    -0.253 OA
ATOM      6  N   UNL     1      -5.432   2.828   4.082  0.00  0.00    -0.264 N 
ATOM      7  C   UNL     1      -4.604   1.669   4.419  0.00  0.00    +0.243 C 
ATOM      8  H   UNL     1      -3.340   5.250   4.404  0.00  0.00    +0.151 HD
ATOM      9  H   UNL     1      -6.364   2.694   3.850  0.00  0.00    +0.153 HD
ENDROOT
BRANCH   2  10
ATOM     10  C   UNL     1      -2.016   2.773   3.524  0.00  0.00    -0.026 A 
ATOM     11  C   UNL     1      -0.803   2.119   3.631  0.00  0.00    +0.006 A 
ATOM     12  C   UNL     1      -0.156   1.673   2.493  0.00  0.00    +0.013 A 
ATOM     13  C   UNL     1      -0.722   1.881   1.250  0.00  0.00    +0.055 A 
ATOM     14  C   UNL     1      -1.933   2.539   1.143  0.00  0.00    +0.013 A 
ATOM     15  C   UNL     1      -2.583   2.981   2.280  0.00  0.00    +0.006 A 
BRANCH  13  16
ATOM     16  C   UNL     1      -0.017   1.395   0.010  0.00  0.00    +0.417 C 
ATOM     17  F   UNL     1      -0.429   0.090  -0.280  0.00  0.00    -0.166 F 
ATOM     18  F   UNL     1       1.366   1.411   0.224  0.00  0.00    -0.166 F 
ATOM     19  F   UNL     1      -0.332   2.233  -1.065  0.00  0.00    -0.166 F 
ENDBRANCH  13  16
ENDBRANCH   2  10
BRANCH   7  20
ATOM     20  C   UNL     1      -5.472   0.592   5.073  0.00  0.00    +0.436 C 
ATOM     21  F   UNL     1      -6.479   0.202   4.184  0.00  0.00    -0.166 F 
ATOM     22  F   UNL     1      -4.679  -0.515   5.394  0.00  0.00    -0.166 F 
ATOM     23  F   UNL     1      -6.051   1.105   6.239  0.00  0.00    -0.166 F 
ENDBRANCH   7  20
BRANCH   1  24
ATOM     24  C   UNL     1      -4.128   2.560   6.688  0.00  0.00    +0.179 C 
ATOM     25  O   UNL     1      -4.450   3.722   6.830  0.00  0.00    -0.291 OA
BRANCH  24  28
ATOM     26  C   UNL     1      -4.975   0.765   9.829  0.00  0.00    +0.008 A 
ATOM     27  C   UNL     1      -4.884   1.851   8.998  0.00  0.00    +0.019 A 
ATOM     28  C   UNL     1      -4.336   1.637   7.737  0.00  0.00    +0.055 A 
ATOM     29  S   UNL     1      -3.959  -0.106   7.792  0.00  0.00    -0.094 S 
ATOM     30  C   UNL     1      -4.524  -0.444   9.396  0.00  0.00    +0.046 A 
ENDBRANCH  24  28
ENDBRANCH   1  24
BRANCH   7  31
ATOM     31  O   UNL     1      -4.008   1.146   3.230  0.00  0.00    -0.364 OA
ATOM     32  H   UNL     1      -4.647   0.856   2.564  0.00  0.00    +0.212 HD
ENDBRANCH   7  31
TORSDOF 6
