REMARK  Name = ZINC52619514
REMARK  7 active torsions:
REMARK  status: ('A' for Active; 'I' for Inactive)
REMARK    1  A    between atoms: C_1  and  C_2
REMARK    2  A    between atoms: C_3  and  N_14
REMARK    3  A    between atoms: C_7  and  N_8
REMARK    4  A    between atoms: C_15  and  C_17
REMARK    5  A    between atoms: N_19  and  C_20
REMARK    6  A    between atoms: C_20  and  C_21
REMARK    7  A    between atoms: C_20  and  C_22
REMARK                            x       y       z     vdW  Elec       q    Type
REMARK                         _______ _______ _______ _____ _____    ______ ____
ROOT
ATOM      1  C   UNL     1      -0.014   1.495   0.015  0.00  0.00    +0.047 C 
ATOM      2  C   UNL     1       0.015  -0.012   0.002  0.00  0.00    -0.008 A 
ATOM      3  C   UNL     1       0.016  -0.697  -1.206  0.00  0.00    +0.038 A 
ATOM      4  C   UNL     1       0.042  -2.086  -1.214  0.00  0.00    +0.024 A 
ATOM      5  C   UNL     1       0.067  -2.785  -0.023  0.00  0.00    +0.004 A 
ATOM      6  C   UNL     1       0.065  -2.106   1.180  0.00  0.00    +0.024 A 
ATOM      7  C   UNL     1       0.045  -0.717   1.196  0.00  0.00    +0.041 A 
ENDROOT
BRANCH   7   8
ATOM      8  N   UNL     1       0.050  -0.030   2.415  0.00  0.00    -0.271 N 
ATOM      9  C   UNL     1      -1.159   0.348   3.157  0.00  0.00    +0.114 C 
ATOM     10  C   UNL     1      -0.679   0.670   4.590  0.00  0.00    +0.029 C 
ATOM     11  C   UNL     1       0.795   1.070   4.346  0.00  0.00    +0.098 C 
ATOM     12  C   UNL     1       1.162   0.363   3.060  0.00  0.00    +0.220 C 
ATOM     13  O   UNL     1       2.295   0.179   2.667  0.00  0.00    -0.275 OA
ENDBRANCH   7   8
BRANCH   3  14
ATOM     14  N   UNL     1      -0.010   0.010  -2.411  0.00  0.00    -0.277 N 
ATOM     15  C   UNL     1      -0.501  -0.572  -3.523  0.00  0.00    +0.303 C 
ATOM     16  O   UNL     1      -1.012  -1.671  -3.457  0.00  0.00    -0.265 OA
ATOM     17  H   UNL     1       0.326   0.919  -2.447  0.00  0.00    +0.155 HD
BRANCH  15  18
ATOM     18  C   UNL     1      -0.416   0.135  -4.835  0.00  0.00    +0.299 C 
ATOM     19  O   UNL     1       0.095   1.234  -4.901  0.00  0.00    -0.265 OA
ATOM     20  N   UNL     1      -0.907  -0.447  -5.947  0.00  0.00    -0.305 N 
ATOM     21  H   UNL     1      -1.316  -1.325  -5.895  0.00  0.00    +0.149 HD
BRANCH  20  22
ATOM     22  C   UNL     1      -0.824   0.247  -7.235  0.00  0.00    +0.067 C 
ATOM     23  C   UNL     1      -0.846  -0.779  -8.370  0.00  0.00    +0.027 C 
ATOM     24  C   UNL     1      -2.016   1.195  -7.382  0.00  0.00    +0.027 C 
ENDBRANCH  20  22
ENDBRANCH  15  18
ENDBRANCH   3  14
TORSDOF 4
