REMARK  Name = ZINC37365673
REMARK  7 active torsions:
REMARK  status: ('A' for Active; 'I' for Inactive)
REMARK    1  A    between atoms: C_1  and  N_2
REMARK    2  A    between atoms: N_2  and  C_3
REMARK    3  A    between atoms: N_2  and  S_4
REMARK    4  A    between atoms: S_4  and  C_7
REMARK    5  A    between atoms: C_10  and  N_14
REMARK    6  A    between atoms: C_11  and  N_13
REMARK    7  A    between atoms: N_14  and  C_15
REMARK                            x       y       z     vdW  Elec       q    Type
REMARK                         _______ _______ _______ _____ _____    ______ ____
ROOT
ATOM      1  C   UNL     1      -2.393  -1.173  -1.553  0.00  0.00    +0.107 A 
ATOM      2  C   UNL     1      -2.825  -0.117  -2.334  0.00  0.00    +0.030 A 
ATOM      3  C   UNL     1      -3.023  -0.291  -3.691  0.00  0.00    +0.027 A 
ATOM      4  C   UNL     1      -2.788  -1.528  -4.273  0.00  0.00    +0.052 A 
ATOM      5  C   UNL     1      -2.352  -2.593  -3.485  0.00  0.00    +0.048 A 
ATOM      6  C   UNL     1      -2.151  -2.408  -2.125  0.00  0.00    +0.053 A 
ENDROOT
BRANCH   1   7
ATOM      7  S   UNL     1      -2.143  -0.942   0.176  0.00  0.00    +0.060 S 
ATOM      8  O   UNL     1      -2.255  -2.224   0.777  0.00  0.00    -0.153 OA
ATOM      9  O   UNL     1      -2.961   0.155   0.561  0.00  0.00    -0.153 OA
BRANCH   7  11
ATOM     10  C   UNL     1      -0.239   0.969   0.365  0.00  0.00    +0.131 C 
ATOM     11  N   UNL     1      -0.574  -0.457   0.383  0.00  0.00    -0.183 NA
ATOM     12  C   UNL     1       0.480  -1.454   0.585  0.00  0.00    +0.131 C 
ENDBRANCH   7  11
ENDBRANCH   1   7
BRANCH   5  13
ATOM     13  N   UNL     1      -2.113  -3.845  -4.065  0.00  0.00    -0.356 N 
ATOM     14  H   UNL     1      -2.251  -3.972  -5.017  0.00  0.00    +0.142 HD
ATOM     15  H   UNL     1      -1.810  -4.584  -3.516  0.00  0.00    +0.142 HD
ENDBRANCH   5  13
BRANCH   4  16
ATOM     16  N   UNL     1      -2.989  -1.708  -5.647  0.00  0.00    -0.312 N 
ATOM     17  H   UNL     1      -2.904  -2.591  -6.038  0.00  0.00    +0.152 HD
BRANCH  16  18
ATOM     18  C   UNL     1      -3.311  -0.614  -6.455  0.00  0.00    +0.045 A 
ATOM     19  C   UNL     1      -2.641   0.592  -6.293  0.00  0.00    +0.024 A 
ATOM     20  C   UNL     1      -2.962   1.671  -7.093  0.00  0.00    +0.002 A 
ATOM     21  C   UNL     1      -3.949   1.552  -8.054  0.00  0.00    +0.001 A 
ATOM     22  C   UNL     1      -4.619   0.354  -8.218  0.00  0.00    +0.016 A 
ATOM     23  C   UNL     1      -4.298  -0.732  -7.425  0.00  0.00    +0.034 A 
ATOM     24  I   UNL     1      -5.307  -2.550  -7.680  0.00  0.00    -0.042 I 
ENDBRANCH  16  18
ENDBRANCH   4  16
TORSDOF 5
