REMARK  Name = ZINC15546811
REMARK  10 active torsions:
REMARK  status: ('A' for Active; 'I' for Inactive)
REMARK    1  A    between atoms: C_1  and  C_2
REMARK    2  A    between atoms: C_4  and  C_32
REMARK    3  A    between atoms: C_5  and  N_9
REMARK    4  A    between atoms: C_6  and  C_8
REMARK    5  A    between atoms: C_10  and  C_12
REMARK    6  A    between atoms: C_12  and  N_13
REMARK    7  A    between atoms: C_14  and  C_16
REMARK    8  A    between atoms: C_16  and  N_17
REMARK    9  A    between atoms: C_19  and  C_28
REMARK   10  A    between atoms: N_30  and  C_31
REMARK                            x       y       z     vdW  Elec       q    Type
REMARK                         _______ _______ _______ _____ _____    ______ ____
ROOT
ATOM      1  N   UNL     1      -1.647   0.984  -5.133  0.00  0.00    -0.305 N 
ATOM      2  C   UNL     1      -2.220   1.256  -3.944  0.00  0.00    +0.231 C 
ATOM      3  O   UNL     1      -2.677   2.358  -3.729  0.00  0.00    -0.274 OA
ATOM      4  H   UNL     1      -1.281   0.102  -5.305  0.00  0.00    +0.149 HD
ENDROOT
BRANCH   1   5
ATOM      5  C   UNL     1      -1.575   2.021  -6.165  0.00  0.00    +0.200 C 
BRANCH   5   7
ATOM      6  N   UNL     1      -0.713   2.246  -8.473  0.00  0.00    -0.284 N 
ATOM      7  C   UNL     1      -0.892   1.466  -7.388  0.00  0.00    +0.234 C 
ATOM      8  O   UNL     1      -0.503   0.317  -7.397  0.00  0.00    -0.274 OA
ATOM      9  H   UNL     1      -0.949   3.186  -8.438  0.00  0.00    +0.155 HD
BRANCH   6  14
ATOM     10  C   UNL     1       1.424   0.032 -13.239  0.00  0.00    +0.044 C 
ATOM     11  C   UNL     1       0.856   0.620 -11.973  0.00  0.00    -0.050 A 
ATOM     12  C   UNL     1      -0.369   1.261 -11.998  0.00  0.00    +0.008 A 
ATOM     13  C   UNL     1      -0.892   1.801 -10.840  0.00  0.00    -0.029 A 
ATOM     14  C   UNL     1      -0.186   1.700  -9.648  0.00  0.00    +0.039 A 
ATOM     15  C   UNL     1       1.047   1.061  -9.627  0.00  0.00    -0.029 A 
ATOM     16  C   UNL     1       1.562   0.517 -10.788  0.00  0.00    +0.008 A 
ATOM     17  C   UNL     1       1.819   0.954  -8.337  0.00  0.00    +0.045 C 
ATOM     18  C   UNL     1      -2.227   2.500 -10.869  0.00  0.00    +0.045 C 
ENDBRANCH   6  14
ENDBRANCH   5   7
ENDBRANCH   1   5
BRANCH   2  19
ATOM     19  C   UNL     1      -2.295   0.189  -2.882  0.00  0.00    +0.201 C 
BRANCH  19  20
ATOM     20  N   UNL     1      -3.076   0.686  -1.742  0.00  0.00    -0.314 N 
ATOM     21  C   UNL     1      -2.342   1.729  -1.016  0.00  0.00    +0.160 C 
ATOM     22  C   UNL     1      -3.251   2.298   0.081  0.00  0.00    +0.276 C 
ATOM     23  O   UNL     1      -4.378   2.909  -0.554  0.00  0.00    -0.476 OA
ATOM     24  C   UNL     1      -4.971   2.208  -1.559  0.00  0.00    +0.143 A 
ATOM     25  C   UNL     1      -4.340   1.121  -2.153  0.00  0.00    +0.073 A 
ATOM     26  C   UNL     1      -4.977   0.438  -3.184  0.00  0.00    +0.027 A 
ATOM     27  C   UNL     1      -6.227   0.836  -3.614  0.00  0.00    +0.002 A 
ATOM     28  C   UNL     1      -6.854   1.916  -3.021  0.00  0.00    +0.004 A 
ATOM     29  C   UNL     1      -6.228   2.600  -1.996  0.00  0.00    +0.047 A 
BRANCH  22  30
ATOM     30  C   UNL     1      -2.496   3.325   0.886  0.00  0.00    +0.255 C 
ATOM     31  O   UNL     1      -2.844   4.487   0.866  0.00  0.00    -0.272 OA
ATOM     32  N   UNL     1      -1.435   2.952   1.629  0.00  0.00    -0.315 N 
ATOM     33  C   UNL     1      -0.702   3.950   2.411  0.00  0.00    +0.128 C 
ATOM     34  H   UNL     1      -1.157   2.023   1.645  0.00  0.00    +0.148 HD
ENDBRANCH  22  30
ENDBRANCH  19  20
ENDBRANCH   2  19
TORSDOF 6
