REMARK  Name = ZINC08375238
REMARK  4 active torsions:
REMARK  status: ('A' for Active; 'I' for Inactive)
REMARK    1  A    between atoms: C_1  and  C_2
REMARK    2  A    between atoms: N_6  and  N_7
REMARK    3  A    between atoms: N_8  and  N_9
REMARK    4  A    between atoms: C_10  and  C_11
REMARK                            x       y       z     vdW  Elec       q    Type
REMARK                         _______ _______ _______ _____ _____    ______ ____
ROOT
ATOM      1  C   UNL     1       5.142  -3.279  -0.065  0.00  0.00    +0.010 A 
ATOM      2  C   UNL     1       6.025  -2.185  -0.179  0.00  0.00    -0.009 A 
ATOM      3  C   UNL     1       5.542  -0.868  -0.269  0.00  0.00    +0.009 A 
ATOM      4  C   UNL     1       6.420   0.165  -0.372  0.00  0.00    +0.001 A 
ATOM      5  C   UNL     1       7.798  -0.045  -0.386  0.00  0.00    +0.001 A 
ATOM      6  C   UNL     1       8.330  -1.292  -0.297  0.00  0.00    +0.008 A 
ATOM      7  C   UNL     1       7.472  -2.408  -0.188  0.00  0.00    -0.017 A 
ATOM      8  C   UNL     1       7.986  -3.702  -0.095  0.00  0.00    +0.017 A 
ATOM      9  C   UNL     1       7.119  -4.791   0.013  0.00  0.00    -0.017 A 
ATOM     10  C   UNL     1       5.670  -4.583   0.028  0.00  0.00    -0.009 A 
ATOM     11  C   UNL     1       4.826  -5.702   0.138  0.00  0.00    +0.009 A 
ATOM     12  C   UNL     1       5.367  -6.946   0.227  0.00  0.00    +0.001 A 
ATOM     13  C   UNL     1       6.746  -7.146   0.212  0.00  0.00    +0.001 A 
ATOM     14  C   UNL     1       7.616  -6.108   0.108  0.00  0.00    +0.008 A 
ENDROOT
BRANCH   1  16
ATOM     15  N   UNL     1       2.882  -4.082  -0.063  0.00  0.00    -0.187 NA
ATOM     16  C   UNL     1       3.693  -3.063  -0.050  0.00  0.00    +0.139 C 
BRANCH  15  23
ATOM     17  C   UNL     1      -2.574  -6.694  -0.064  0.00  0.00    +0.090 C 
ATOM     18  C   UNL     1      -1.146  -6.213  -0.072  0.00  0.00    +0.149 A 
ATOM     19  N   UNL     1      -0.079  -6.962  -0.094  0.00  0.00    -0.131 NA
ATOM     20  N   UNL     1       0.976  -6.227  -0.088  0.00  0.00    -0.110 NA
ATOM     21  C   UNL     1       0.635  -4.960  -0.063  0.00  0.00    +0.254 A 
ATOM     22  N   UNL     1      -0.730  -4.912  -0.051  0.00  0.00    -0.220 N 
ATOM     23  N   UNL     1       1.497  -3.876  -0.049  0.00  0.00    -0.204 N 
ATOM     24  H   UNL     1       1.141  -2.974  -0.029  0.00  0.00    +0.177 HD
BRANCH  22  25
ATOM     25  N   UNL     1      -1.516  -3.795  -0.025  0.00  0.00    -0.294 N 
ATOM     26  H   UNL     1      -1.717  -3.517   0.923  0.00  0.00    +0.163 HD
ATOM     27  H   UNL     1      -1.089  -3.040  -0.541  0.00  0.00    +0.163 HD
ENDBRANCH  22  25
ENDBRANCH  15  23
ENDBRANCH   1  16
TORSDOF 3
