REMARK  Name = ZINC40514972
REMARK  6 active torsions:
REMARK  status: ('A' for Active; 'I' for Inactive)
REMARK    1  A    between atoms: C_1  and  C_2
REMARK    2  A    between atoms: C_4  and  C_20
REMARK    3  A    between atoms: C_6  and  O_11
REMARK    4  A    between atoms: C_7  and  C_8
REMARK    5  A    between atoms: C_8  and  N_10
REMARK    6  A    between atoms: O_11  and  C_12
REMARK                            x       y       z     vdW  Elec       q    Type
REMARK                         _______ _______ _______ _____ _____    ______ ____
ROOT
ATOM      1  C   UNL     1       0.160   1.523   0.028  0.00  0.00    +0.044 C 
ATOM      2  C   UNL     1       0.179   0.016   0.008  0.00  0.00    -0.034 A 
ATOM      3  C   UNL     1       0.167  -0.677  -1.189  0.00  0.00    +0.027 A 
ATOM      4  C   UNL     1       0.185  -2.060  -1.174  0.00  0.00    +0.042 A 
ATOM      5  N   UNL     1       0.215  -2.731  -0.039  0.00  0.00    -0.217 NA
ATOM      6  C   UNL     1       0.228  -2.119   1.132  0.00  0.00    +0.231 A 
ATOM      7  C   UNL     1       0.216  -0.716   1.200  0.00  0.00    +0.068 A 
ATOM      8  C   UNL     1       0.172  -2.814  -2.479  0.00  0.00    +0.066 C 
ENDROOT
BRANCH   7   9
ATOM      9  C   UNL     1       0.237  -0.028   2.503  0.00  0.00    +0.082 C 
ATOM     10  S   UNL     1       1.724   0.503   3.167  0.00  0.00    -0.035 S 
BRANCH   9  11
ATOM     11  N   UNL     1      -0.913   0.183   3.172  0.00  0.00    -0.352 N 
ATOM     12  H   UNL     1      -1.762  -0.052   2.765  0.00  0.00    +0.143 HD
ATOM     13  H   UNL     1      -0.893   0.570   4.062  0.00  0.00    +0.143 HD
ENDBRANCH   9  11
ENDBRANCH   7   9
BRANCH   6  14
ATOM     14  O   UNL     1       0.258  -2.848   2.273  0.00  0.00    -0.436 OA
BRANCH  14  15
ATOM     15  C   UNL     1       0.375  -4.198   2.165  0.00  0.00    +0.149 A 
ATOM     16  C   UNL     1      -0.760  -4.995   2.165  0.00  0.00    +0.049 A 
ATOM     17  C   UNL     1      -0.639  -6.367   2.054  0.00  0.00    +0.023 A 
ATOM     18  C   UNL     1       0.612  -6.946   1.944  0.00  0.00    +0.043 A 
ATOM     19  C   UNL     1       1.746  -6.154   1.945  0.00  0.00    +0.043 A 
ATOM     20  C   UNL     1       1.630  -4.780   2.049  0.00  0.00    +0.085 A 
ATOM     21 CL   UNL     1       3.052  -3.784   2.042  0.00  0.00    -0.080 Cl
ATOM     22 CL   UNL     1       0.760  -8.670   1.806  0.00  0.00    -0.083 Cl
ENDBRANCH  14  15
ENDBRANCH   6  14
TORSDOF 4
