REMARK  Name = ZINC49776854
REMARK  3 active torsions:
REMARK  status: ('A' for Active; 'I' for Inactive)
REMARK    1  A    between atoms: C_1  and  C_2
REMARK    2  A    between atoms: C_5  and  N_9
REMARK    3  A    between atoms: C_14  and  C_16
REMARK                            x       y       z     vdW  Elec       q    Type
REMARK                         _______ _______ _______ _____ _____    ______ ____
ROOT
ATOM      1  N   UNL     1      -3.155   3.344  -3.307  0.00  0.00    +0.407 N 
ATOM      2  C   UNL     1      -3.411   3.525  -4.742  0.00  0.00    -0.074 C 
ATOM      3  C   UNL     1      -3.420   5.018  -5.077  0.00  0.00    -0.018 C 
ATOM      4  C   UNL     1      -4.521   5.711  -4.270  0.00  0.00    -0.003 C 
ATOM      5  C   UNL     1      -4.287   5.453  -2.779  0.00  0.00    -0.006 C 
ATOM      6  C   UNL     1      -4.245   3.944  -2.528  0.00  0.00    +0.023 C 
ATOM      7  H   UNL     1      -2.284   3.791  -3.064  0.00  0.00    -0.077 HD
ENDROOT
BRANCH   1  11
ATOM      8  C   UNL     1      -1.473  -0.449  -5.348  0.00  0.00    +0.087 C 
ATOM      9  C   UNL     1      -2.356   0.406  -4.474  0.00  0.00    +0.122 C 
ATOM     10  N   UNL     1      -1.897   1.306  -3.663  0.00  0.00    -0.277 NA
ATOM     11  C   UNL     1      -3.070   1.909  -3.004  0.00  0.00    +0.119 C 
ATOM     12  C   UNL     1      -4.234   1.157  -3.621  0.00  0.00    +0.102 C 
ATOM     13  N   UNL     1      -3.689   0.314  -4.463  0.00  0.00    -0.223 NA
ATOM     14  N   UNL     1      -5.557   1.325  -3.360  0.00  0.00    -0.346 N 
ATOM     15  H   UNL     1      -5.838   1.892  -2.625  0.00  0.00    +0.143 HD
ATOM     16  H   UNL     1      -6.220   0.877  -3.908  0.00  0.00    +0.143 HD
ENDBRANCH   1  11
BRANCH   6  17
ATOM     17  C   UNL     1      -4.014   3.685  -1.061  0.00  0.00    +0.197 C 
ATOM     18  O   UNL     1      -2.885   3.549  -0.640  0.00  0.00    -0.278 OA
ATOM     19  N   UNL     1      -5.062   3.604  -0.218  0.00  0.00    -0.331 N 
ATOM     20  H   UNL     1      -5.966   3.713  -0.555  0.00  0.00    +0.145 HD
ATOM     21  H   UNL     1      -4.914   3.438   0.726  0.00  0.00    +0.145 HD
ENDBRANCH   6  17
TORSDOF 2
