REMARK  Name = ZINC38732520
REMARK  6 active torsions:
REMARK  status: ('A' for Active; 'I' for Inactive)
REMARK    1  A    between atoms: C_1  and  C_2
REMARK    2  A    between atoms: C_9  and  C_10
REMARK    3  A    between atoms: C_9  and  C_11
REMARK    4  A    between atoms: C_13  and  N_15
REMARK    5  A    between atoms: C_16  and  C_18
REMARK    6  A    between atoms: C_24  and  C_26
REMARK                            x       y       z     vdW  Elec       q    Type
REMARK                         _______ _______ _______ _____ _____    ______ ____
ROOT
ATOM      1  C   UNL     1       5.169  -0.729   1.174  0.00  0.00    +0.087 C 
ATOM      2  C   UNL     1       5.514   0.418   0.222  0.00  0.00    +0.013 C 
ATOM      3  C   UNL     1       7.034   0.517   0.072  0.00  0.00    +0.001 C 
ATOM      4  C   UNL     1       7.666   0.781   1.440  0.00  0.00    +0.001 C 
ATOM      5  C   UNL     1       7.320  -0.366   2.392  0.00  0.00    +0.013 C 
ATOM      6  C   UNL     1       5.801  -0.464   2.542  0.00  0.00    +0.087 C 
ENDROOT
BRANCH   6   7
ATOM      7  C   UNL     1       5.461  -1.594   3.479  0.00  0.00    +0.219 C 
ATOM      8  O   UNL     1       5.149  -2.678   3.034  0.00  0.00    -0.275 OA
ATOM      9  N   UNL     1       5.502  -1.399   4.812  0.00  0.00    -0.298 N 
ATOM     10  C   UNL     1       5.764  -0.063   5.365  0.00  0.00    +0.126 C 
ATOM     11  C   UNL     1       4.621   0.304   6.321  0.00  0.00    +0.125 C 
ATOM     12  N   UNL     1       4.406  -0.817   7.247  0.00  0.00    -0.314 N 
ATOM     13  C   UNL     1       4.144  -2.153   6.694  0.00  0.00    +0.125 C 
ATOM     14  C   UNL     1       5.281  -2.519   5.739  0.00  0.00    +0.126 C 
ATOM     15  C   UNL     1       4.449  -0.616   8.622  0.00  0.00    +0.099 A 
ATOM     16  C   UNL     1       4.819   0.627   9.126  0.00  0.00    +0.042 A 
ATOM     17  C   UNL     1       4.858   0.812  10.496  0.00  0.00    +0.005 A 
ATOM     18  C   UNL     1       4.523  -0.255  11.319  0.00  0.00    +0.018 A 
ATOM     19  C   UNL     1       4.165  -1.460  10.751  0.00  0.00    +0.084 A 
ATOM     20  N   UNL     1       4.131  -1.607   9.440  0.00  0.00    -0.350 N 
ATOM     21  H   UNL     1       3.872  -2.464   9.066  0.00  0.00    +0.166 HD
ENDBRANCH   6   7
BRANCH   1  23
ATOM     22  N   UNL     1       2.902  -1.056   0.240  0.00  0.00    -0.312 N 
ATOM     23  C   UNL     1       3.672  -0.825   1.322  0.00  0.00    +0.217 C 
ATOM     24  O   UNL     1       3.162  -0.695   2.414  0.00  0.00    -0.275 OA
ATOM     25  H   UNL     1       3.311  -1.160  -0.633  0.00  0.00    +0.149 HD
BRANCH  22  35
ATOM     26  C   UNL     1       0.480   0.707  -1.011  0.00  0.00    +0.009 C 
ATOM     27  C   UNL     1       0.788  -0.792  -0.946  0.00  0.00    +0.010 C 
ATOM     28  C   UNL     1      -0.470  -1.616  -1.219  0.00  0.00    -0.000 C 
ATOM     29  C   UNL     1      -0.087  -3.113  -1.325  0.00  0.00    +0.008 C 
ATOM     30  C   UNL     1      -0.199  -3.090   0.215  0.00  0.00    -0.003 C 
ATOM     31  C   UNL     1      -1.283  -2.023   0.011  0.00  0.00    -0.029 C 
ATOM     32  C   UNL     1      -1.411  -0.996   1.131  0.00  0.00    +0.011 C 
ATOM     33  C   UNL     1      -2.659  -2.623  -0.343  0.00  0.00    +0.011 C 
ATOM     34  C   UNL     1       1.081  -2.556   0.857  0.00  0.00    +0.026 C 
ATOM     35  C   UNL     1       1.436  -1.151   0.385  0.00  0.00    +0.076 C 
ENDBRANCH  22  35
ENDBRANCH   1  23
TORSDOF 3
