REMARK  Name = ZINC36129102
REMARK  5 active torsions:
REMARK  status: ('A' for Active; 'I' for Inactive)
REMARK    1  A    between atoms: C_4  and  N_19
REMARK    2  A    between atoms: C_6  and  S_7
REMARK    3  A    between atoms: S_7  and  N_10
REMARK    4  A    between atoms: C_15  and  C_17
REMARK    5  A    between atoms: C_17  and  O_18
REMARK                            x       y       z     vdW  Elec       q    Type
REMARK                         _______ _______ _______ _____ _____    ______ ____
ROOT
ATOM      1  S   UNL     1      -2.005  -1.203   0.054  0.00  0.00    +0.061 S 
ATOM      2  O   UNL     1      -2.487   0.110   0.304  0.00  0.00    -0.153 OA
ATOM      3  O   UNL     1      -0.708  -1.627   0.451  0.00  0.00    -0.153 OA
ENDROOT
BRANCH   1   9
ATOM      4  C   UNL     1      -2.711  -3.524   1.304  0.00  0.00    +0.031 A 
ATOM      5  C   UNL     1      -3.605  -4.398   1.894  0.00  0.00    +0.042 A 
ATOM      6  C   UNL     1      -4.943  -4.061   1.988  0.00  0.00    +0.144 A 
ATOM      7  C   UNL     1      -5.387  -2.842   1.486  0.00  0.00    +0.062 A 
ATOM      8  C   UNL     1      -4.485  -1.969   0.895  0.00  0.00    +0.054 A 
ATOM      9  C   UNL     1      -3.150  -2.312   0.805  0.00  0.00    +0.107 A 
ATOM     10  F   UNL     1      -5.817  -4.915   2.564  0.00  0.00    -0.204 F 
BRANCH   7  11
ATOM     11  N   UNL     1      -6.739  -2.498   1.578  0.00  0.00    -0.356 N 
ATOM     12  H   UNL     1      -7.369  -3.109   1.992  0.00  0.00    +0.142 HD
ATOM     13  H   UNL     1      -7.048  -1.647   1.228  0.00  0.00    +0.142 HD
ENDBRANCH   7  11
ENDBRANCH   1   9
BRANCH   1  14
ATOM     14  N   UNL     1      -2.099  -1.438  -1.583  0.00  0.00    -0.171 NA
ATOM     15  C   UNL     1      -2.881  -0.524  -2.427  0.00  0.00    +0.110 C 
ATOM     16  C   UNL     1      -1.984  -0.006  -3.555  0.00  0.00    +0.017 C 
ATOM     17  C   UNL     1      -1.380  -1.194  -4.308  0.00  0.00    +0.003 C 
ATOM     18  C   UNL     1      -0.521  -2.022  -3.350  0.00  0.00    +0.023 C 
ATOM     19  C   UNL     1      -1.396  -2.560  -2.220  0.00  0.00    +0.105 C 
BRANCH  19  20
ATOM     20  C   UNL     1      -0.518  -3.268  -1.187  0.00  0.00    +0.176 C 
BRANCH  20  21
ATOM     21  O   UNL     1       0.622  -2.457  -0.894  0.00  0.00    -0.393 OA
ATOM     22  H   UNL     1       1.208  -2.830  -0.222  0.00  0.00    +0.209 HD
ENDBRANCH  20  21
ENDBRANCH  19  20
ENDBRANCH   1  14
TORSDOF 5
