REMARK  Name = ZINC63342727
REMARK  7 active torsions:
REMARK  status: ('A' for Active; 'I' for Inactive)
REMARK    1  A    between atoms: C_1  and  C_2
REMARK    2  A    between atoms: C_5  and  C_26
REMARK    3  A    between atoms: C_8  and  C_25
REMARK    4  A    between atoms: C_9  and  C_11
REMARK    5  A    between atoms: N_13  and  C_14
REMARK    6  A    between atoms: C_18  and  S_20
REMARK    7  A    between atoms: S_20  and  N_23
REMARK                            x       y       z     vdW  Elec       q    Type
REMARK                         _______ _______ _______ _____ _____    ______ ____
ROOT
ATOM      1  C   UNL     1       0.069  -1.578   4.790  0.00  0.00    +0.284 C 
ATOM      2  O   UNL     1       0.070  -0.566   5.465  0.00  0.00    -0.266 OA
ATOM      3  N   UNL     1       0.090  -2.786   5.388  0.00  0.00    -0.279 N 
ATOM      4  H   UNL     1       0.021  -3.593   4.853  0.00  0.00    +0.155 HD
ENDROOT
BRANCH   1  13
ATOM      5  C   UNL     1      -0.032   1.502   0.010  0.00  0.00    +0.044 C 
ATOM      6  C   UNL     1      -0.018  -0.005   0.002  0.00  0.00    -0.039 A 
ATOM      7  C   UNL     1      -0.024  -0.685  -1.183  0.00  0.00    +0.004 A 
ATOM      8  C   UNL     1      -0.011  -2.073  -1.198  0.00  0.00    +0.007 A 
ATOM      9  C   UNL     1       0.008  -2.790  -0.021  0.00  0.00    -0.008 A 
ATOM     10  C   UNL     1       0.014  -2.120   1.197  0.00  0.00    +0.139 A 
ATOM     11  C   UNL     1       0.007  -0.712   1.206  0.00  0.00    +0.027 A 
ATOM     12  C   UNL     1       0.025  -0.325   2.616  0.00  0.00    +0.008 A 
ATOM     13  C   UNL     1       0.046  -1.484   3.324  0.00  0.00    +0.194 A 
ATOM     14  O   UNL     1       0.030  -2.535   2.478  0.00  0.00    -0.450 OA
ATOM     15  C   UNL     1       0.020   1.076   3.171  0.00  0.00    +0.048 C 
ATOM     16  C   UNL     1       0.021  -4.296  -0.054  0.00  0.00    +0.047 C 
ENDBRANCH   1  13
BRANCH   3  17
ATOM     17  C   UNL     1       0.209  -2.877   6.778  0.00  0.00    +0.036 A 
ATOM     18  C   UNL     1      -0.393  -1.925   7.592  0.00  0.00    +0.025 A 
ATOM     19  C   UNL     1      -0.273  -2.018   8.964  0.00  0.00    +0.024 A 
ATOM     20  C   UNL     1       0.446  -3.056   9.530  0.00  0.00    +0.067 A 
ATOM     21  C   UNL     1       1.047  -4.005   8.722  0.00  0.00    +0.125 A 
ATOM     22  C   UNL     1       0.925  -3.922   7.348  0.00  0.00    +0.053 A 
ATOM     23 CL   UNL     1       0.596  -3.168  11.256  0.00  0.00    -0.082 Cl
BRANCH  21  24
ATOM     24  S   UNL     1       1.962  -5.326   9.445  0.00  0.00    +0.057 S 
ATOM     25  O   UNL     1       1.140  -5.878  10.465  0.00  0.00    -0.153 OA
ATOM     26  O   UNL     1       2.469  -6.105   8.371  0.00  0.00    -0.153 OA
BRANCH  24  27
ATOM     27  N   UNL     1       3.272  -4.656  10.205  0.00  0.00    -0.203 NA
ATOM     28  H   UNL     1       3.648  -5.083  10.990  0.00  0.00    +0.144 HD
ATOM     29  H   UNL     1       3.662  -3.836   9.864  0.00  0.00    +0.144 HD
ENDBRANCH  24  27
ENDBRANCH  21  24
ENDBRANCH   3  17
TORSDOF 4
