REMARK  Name = ZINC67129377
REMARK  7 active torsions:
REMARK  status: ('A' for Active; 'I' for Inactive)
REMARK    1  A    between atoms: C_4  and  S_22
REMARK    2  A    between atoms: C_5  and  N_7
REMARK    3  A    between atoms: C_8  and  C_10
REMARK    4  A    between atoms: C_10  and  N_11
REMARK    5  A    between atoms: C_13  and  O_21
REMARK    6  A    between atoms: C_16  and  C_18
REMARK    7  A    between atoms: S_22  and  C_23
REMARK                            x       y       z     vdW  Elec       q    Type
REMARK                         _______ _______ _______ _____ _____    ______ ____
ROOT
ATOM      1  N   UNL     1       1.233  -2.082  -0.021  0.00  0.00    -0.286 N 
ATOM      2  C   UNL     1       0.082  -2.774   0.088  0.00  0.00    +0.201 C 
ATOM      3  O   UNL     1      -0.980  -2.187   0.102  0.00  0.00    -0.278 OA
ATOM      4  H   UNL     1       2.076  -2.554  -0.113  0.00  0.00    +0.155 HD
ENDROOT
BRANCH   1   9
ATOM      5  C   UNL     1       0.153   1.373   0.636  0.00  0.00    +0.002 A 
ATOM      6  C   UNL     1       1.172   2.090   0.036  0.00  0.00    +0.001 A 
ATOM      7  C   UNL     1       2.215   1.429  -0.586  0.00  0.00    +0.017 A 
ATOM      8  C   UNL     1       2.241   0.042  -0.608  0.00  0.00    +0.034 A 
ATOM      9  C   UNL     1       1.213  -0.681  -0.002  0.00  0.00    +0.047 A 
ATOM     10  C   UNL     1       0.171  -0.009   0.619  0.00  0.00    +0.024 A 
BRANCH   8  11
ATOM     11  S   UNL     1       3.568  -0.804  -1.400  0.00  0.00    -0.054 S 
BRANCH  11  12
ATOM     12  C   UNL     1       4.629   0.529  -2.023  0.00  0.00    +0.404 C 
ATOM     13  F   UNL     1       3.902   1.323  -2.917  0.00  0.00    -0.197 F 
ATOM     14  F   UNL     1       5.069   1.314  -0.952  0.00  0.00    -0.197 F 
ENDBRANCH  11  12
ENDBRANCH   8  11
ENDBRANCH   1   9
BRANCH   2  15
ATOM     15  C   UNL     1       0.113  -4.277   0.194  0.00  0.00    +0.020 C 
BRANCH  15  16
ATOM     16  N   UNL     1      -1.259  -4.789   0.302  0.00  0.00    +0.395 N 
ATOM     17  C   UNL     1      -1.985  -4.585  -0.978  0.00  0.00    -0.045 C 
ATOM     18  C   UNL     1      -3.129  -5.627  -0.908  0.00  0.00    +0.097 C 
ATOM     19  C   UNL     1      -2.452  -6.838  -0.225  0.00  0.00    +0.023 C 
ATOM     20  C   UNL     1      -1.242  -6.251   0.526  0.00  0.00    +0.022 C 
ATOM     21  H   UNL     1      -1.745  -4.327   1.056  0.00  0.00    -0.080 HD
BRANCH  20  22
ATOM     22  C   UNL     1      -1.361  -6.546   2.000  0.00  0.00    +0.197 C 
ATOM     23  O   UNL     1      -1.451  -5.635   2.795  0.00  0.00    -0.278 OA
ATOM     24  N   UNL     1      -1.366  -7.822   2.433  0.00  0.00    -0.331 N 
ATOM     25  H   UNL     1      -1.294  -8.551   1.797  0.00  0.00    +0.145 HD
ATOM     26  H   UNL     1      -1.442  -8.011   3.381  0.00  0.00    +0.145 HD
ENDBRANCH  20  22
BRANCH  18  27
ATOM     27  O   UNL     1      -3.582  -5.970  -2.219  0.00  0.00    -0.394 OA
ATOM     28  H   UNL     1      -4.298  -6.620  -2.230  0.00  0.00    +0.210 HD
ENDBRANCH  18  27
ENDBRANCH  15  16
ENDBRANCH   2  15
TORSDOF 7
