REMARK  Name = ZINC15555790
REMARK  8 active torsions:
REMARK  status: ('A' for Active; 'I' for Inactive)
REMARK    1  A    between atoms: C_1  and  C_2
REMARK    2  A    between atoms: C_2  and  C_4
REMARK    3  A    between atoms: C_2  and  N_14
REMARK    4  A    between atoms: C_7  and  S_10
REMARK    5  A    between atoms: S_10  and  N_13
REMARK    6  A    between atoms: C_15  and  C_17
REMARK    7  A    between atoms: N_20  and  C_23
REMARK    8  A    between atoms: C_28  and  N_29
REMARK                            x       y       z     vdW  Elec       q    Type
REMARK                         _______ _______ _______ _____ _____    ______ ____
ROOT
ATOM      1  N   UNL     1       0.002  -0.004   0.002  0.00  0.00    -0.309 N 
ATOM      2  C   UNL     1      -0.016   1.344   0.009  0.00  0.00    +0.217 C 
ATOM      3  O   UNL     1      -1.075   1.936   0.018  0.00  0.00    -0.275 OA
ATOM      4  H   UNL     1       0.849  -0.478  -0.009  0.00  0.00    +0.149 HD
ENDROOT
BRANCH   2   5
ATOM      5  C   UNL     1       1.278   2.115   0.001  0.00  0.00    +0.078 C 
ATOM      6  C   UNL     1       2.096   1.756   1.245  0.00  0.00    +0.031 C 
ATOM      7  C   UNL     1       3.381   2.587   1.263  0.00  0.00    +0.106 C 
ATOM      8  N   UNL     1       3.041   4.015   1.273  0.00  0.00    -0.328 N 
ATOM      9  C   UNL     1       2.297   4.393   0.065  0.00  0.00    +0.106 C 
ATOM     10  C   UNL     1       0.980   3.616   0.012  0.00  0.00    +0.031 C 
BRANCH   8  11
ATOM     11  C   UNL     1       4.187   4.801   1.422  0.00  0.00    +0.060 A 
ATOM     12  C   UNL     1       5.170   4.791   0.440  0.00  0.00    +0.025 A 
ATOM     13  C   UNL     1       6.298   5.574   0.588  0.00  0.00    +0.002 A 
ATOM     14  C   UNL     1       6.456   6.357   1.716  0.00  0.00    +0.002 A 
ATOM     15  C   UNL     1       5.482   6.365   2.698  0.00  0.00    +0.034 A 
ATOM     16  C   UNL     1       4.348   5.589   2.554  0.00  0.00    +0.147 A 
BRANCH  16  17
ATOM     17  N   UNL     1       3.307   5.597   3.606  0.00  0.00    +0.058 N 
ATOM     18  O   UNL     1       3.449   6.289   4.598  0.00  0.00    -0.126 OA
ATOM     19  O   UNL     1       2.307   4.913   3.478  0.00  0.00    -0.126 OA
ENDBRANCH  16  17
ENDBRANCH   8  11
ENDBRANCH   2   5
BRANCH   1  21
ATOM     20  C   UNL     1      -1.773  -0.899  -1.423  0.00  0.00    +0.033 C 
ATOM     21  C   UNL     1      -1.256  -0.754   0.010  0.00  0.00    +0.100 C 
BRANCH  21  22
ATOM     22  C   UNL     1      -1.024  -2.120   0.601  0.00  0.00    -0.027 A 
ATOM     23  C   UNL     1       0.126  -2.821   0.289  0.00  0.00    +0.007 A 
ATOM     24  C   UNL     1       0.342  -4.073   0.835  0.00  0.00    +0.029 A 
ATOM     25  C   UNL     1      -0.596  -4.628   1.684  0.00  0.00    +0.105 A 
ATOM     26  C   UNL     1      -1.749  -3.929   1.992  0.00  0.00    +0.029 A 
ATOM     27  C   UNL     1      -1.962  -2.675   1.451  0.00  0.00    +0.007 A 
BRANCH  25  28
ATOM     28  S   UNL     1      -0.324  -6.226   2.374  0.00  0.00    +0.056 S 
ATOM     29  O   UNL     1       1.080  -6.440   2.363  0.00  0.00    -0.153 OA
ATOM     30  O   UNL     1      -1.095  -6.290   3.567  0.00  0.00    -0.153 OA
BRANCH  28  31
ATOM     31  N   UNL     1      -0.980  -7.329   1.328  0.00  0.00    -0.204 NA
ATOM     32  H   UNL     1      -0.598  -8.218   1.259  0.00  0.00    +0.144 HD
ATOM     33  H   UNL     1      -1.745  -7.086   0.783  0.00  0.00    +0.144 HD
ENDBRANCH  28  31
ENDBRANCH  25  28
ENDBRANCH  21  22
ENDBRANCH   1  21
TORSDOF 7
