REMARK  Name = ZINC50422029
REMARK  7 active torsions:
REMARK  status: ('A' for Active; 'I' for Inactive)
REMARK    1  A    between atoms: C_1  and  C_2
REMARK    2  A    between atoms: C_2  and  C_4
REMARK    3  A    between atoms: C_2  and  N_10
REMARK    4  A    between atoms: N_8  and  C_9
REMARK    5  A    between atoms: C_11  and  C_13
REMARK    6  A    between atoms: C_13  and  C_19
REMARK    7  A    between atoms: N_20  and  O_21
REMARK                            x       y       z     vdW  Elec       q    Type
REMARK                         _______ _______ _______ _____ _____    ______ ____
ROOT
ATOM      1  C   UNL     1       0.872  -1.083   3.532  0.00  0.00    +0.109 C 
ATOM      2  C   UNL     1       1.508  -2.439   3.213  0.00  0.00    +0.052 C 
ATOM      3  C   UNL     1       0.403  -3.477   3.003  0.00  0.00    +0.161 C 
ATOM      4  O   UNL     1      -0.416  -3.542   4.173  0.00  0.00    -0.380 OA
ATOM      5  C   UNL     1      -1.075  -2.314   4.492  0.00  0.00    +0.161 C 
ATOM      6  C   UNL     1      -0.029  -1.230   4.763  0.00  0.00    +0.052 C 
ENDROOT
BRANCH   1   7
ATOM      7  C   UNL     1       1.952  -0.071   3.816  0.00  0.00    +0.147 C 
ATOM      8  N   UNL     1       2.058   0.447   4.995  0.00  0.00    -0.076 NA
ATOM      9  N   UNL     1       2.825   0.302   2.818  0.00  0.00    -0.343 N 
ATOM     10  H   UNL     1       2.794  -0.141   1.956  0.00  0.00    +0.144 HD
ATOM     11  H   UNL     1       3.471   1.008   2.979  0.00  0.00    +0.144 HD
BRANCH   8  12
ATOM     12  O   UNL     1       3.073   1.397   5.261  0.00  0.00    -0.408 OA
ATOM     13  H   UNL     1       3.074   1.728   6.170  0.00  0.00    +0.328 HD
ENDBRANCH   8  12
ENDBRANCH   1   7
BRANCH   1  15
ATOM     14  N   UNL     1      -0.722   0.477   2.462  0.00  0.00    -0.305 N 
ATOM     15  C   UNL     1       0.048  -0.624   2.357  0.00  0.00    +0.227 C 
ATOM     16  O   UNL     1       0.077  -1.246   1.316  0.00  0.00    -0.275 OA
ATOM     17  H   UNL     1      -0.803   0.933   3.314  0.00  0.00    +0.149 HD
BRANCH  14  19
ATOM     18  C   UNL     1      -2.769   0.248   1.143  0.00  0.00    +0.036 C 
ATOM     19  C   UNL     1      -1.437   0.986   1.289  0.00  0.00    +0.138 C 
BRANCH  19  20
ATOM     20  C   UNL     1      -1.696   2.461   1.459  0.00  0.00    +0.153 A 
ATOM     21  N   UNL     1      -2.132   3.050   2.539  0.00  0.00    -0.133 NA
ATOM     22  N   UNL     1      -2.237   4.315   2.330  0.00  0.00    -0.138 NA
ATOM     23  C   UNL     1      -1.871   4.590   1.108  0.00  0.00    +0.224 A 
ATOM     24  N   UNL     1      -1.513   3.422   0.522  0.00  0.00    -0.319 N 
ATOM     25  C   UNL     1      -1.028   3.236  -0.848  0.00  0.00    +0.151 C 
ENDBRANCH  19  20
ENDBRANCH  14  19
ENDBRANCH   1  15
TORSDOF 5
