REMARK  Name = ZINC61824173
REMARK  5 active torsions:
REMARK  status: ('A' for Active; 'I' for Inactive)
REMARK    1  A    between atoms: C_1  and  C_2
REMARK    2  A    between atoms: C_2  and  C_20
REMARK    3  A    between atoms: N_5  and  S_8
REMARK    4  A    between atoms: S_8  and  C_11
REMARK    5  A    between atoms: C_12  and  N_19
REMARK                            x       y       z     vdW  Elec       q    Type
REMARK                         _______ _______ _______ _____ _____    ______ ____
ROOT
ATOM      1  S   UNL     1       4.274  -1.082  -0.047  0.00  0.00    +0.080 S 
ATOM      2  O   UNL     1       4.384  -1.766   1.194  0.00  0.00    -0.151 OA
ATOM      3  O   UNL     1       4.358  -1.753  -1.297  0.00  0.00    -0.151 OA
ENDROOT
BRANCH   1   8
ATOM      4  C   UNL     1      -0.019   1.526   0.010  0.00  0.00    +0.011 C 
ATOM      5  C   UNL     1       0.002  -0.004   0.002  0.00  0.00    -0.032 C 
ATOM      6  C   UNL     1       0.717  -0.497  -1.258  0.00  0.00    +0.023 C 
ATOM      7  C   UNL     1       2.143   0.062  -1.284  0.00  0.00    +0.110 C 
ATOM      8  N   UNL     1       2.815  -0.298  -0.028  0.00  0.00    -0.175 NA
ATOM      9  C   UNL     1       2.168   0.049   1.245  0.00  0.00    +0.110 C 
ATOM     10  C   UNL     1       0.742  -0.511   1.242  0.00  0.00    +0.023 C 
ATOM     11  C   UNL     1      -1.433  -0.533   0.014  0.00  0.00    +0.011 C 
ENDBRANCH   1   8
BRANCH   1  12
ATOM     12  C   UNL     1       5.529   0.154  -0.053  0.00  0.00    +0.221 A 
ATOM     13  C   UNL     1       6.082   0.723  -1.145  0.00  0.00    +0.163 A 
ATOM     14  N   UNL     1       6.998   1.617  -0.736  0.00  0.00    -0.205 NA
ATOM     15  C   UNL     1       7.034   1.623   0.567  0.00  0.00    +0.181 A 
ATOM     16  N   UNL     1       6.129   0.728   1.071  0.00  0.00    -0.276 N 
ATOM     17  C   UNL     1       6.048   0.627   2.443  0.00  0.00    +0.102 A 
ATOM     18  C   UNL     1       6.821   1.376   3.229  0.00  0.00    +0.067 A 
ATOM     19  S   UNL     1       7.765   2.310   2.034  0.00  0.00    -0.058 S 
BRANCH  13  20
ATOM     20  N   UNL     1       5.755   0.432  -2.478  0.00  0.00    -0.340 N 
ATOM     21  H   UNL     1       5.077  -0.232  -2.678  0.00  0.00    +0.144 HD
ATOM     22  H   UNL     1       6.208   0.894  -3.200  0.00  0.00    +0.144 HD
ENDBRANCH  13  20
ENDBRANCH   1  12
TORSDOF 3
