REMARK  Name = ZINC05374875
REMARK  7 active torsions:
REMARK  status: ('A' for Active; 'I' for Inactive)
REMARK    1  A    between atoms: CB_1  and  CA_2
REMARK    2  A    between atoms: CA_2  and  C_4
REMARK    3  A    between atoms: CA_2  and  N_6
REMARK    4  A    between atoms: C_7  and  C_9
REMARK    5  A    between atoms: C_9  and  C_10
REMARK    6  A    between atoms: C_10  and  N_11
REMARK    7  A    between atoms: C_15  and  C_16
REMARK                            x       y       z     vdW  Elec       q    Type
REMARK                         _______ _______ _______ _____ _____    ______ ____
ROOT
ATOM      1  N   UNK A   0      -2.788   3.494   0.165  0.00  0.00    -0.255 N 
ATOM      2  C   UNK A   0      -1.512   3.156   0.093  0.00  0.00    +0.258 C 
ATOM      3  O   UNK A   0      -0.630   3.994   0.043  0.00  0.00    -0.269 OA
ATOM      4  C   UNK A   0      -1.210   1.709   0.076  0.00  0.00    +0.077 C 
ATOM      5  C   UNK A   0      -0.013   1.076   0.008  0.00  0.00    +0.028 C 
ATOM      6  S   UNK A   0      -2.858   1.022   0.162  0.00  0.00    -0.061 S 
ATOM      7  C   UNK A   0      -3.761   2.562   0.221  0.00  0.00    +0.121 C 
ATOM      8  S   UNK A   0      -5.454   2.798   0.317  0.00  0.00    -0.027 S 
ENDROOT
BRANCH   5   9
ATOM      9  C   UNK A   0       1.214   1.848  -0.238  0.00  0.00    -0.024 A 
ATOM     10  C   UNK A   0       1.206   2.909  -1.149  0.00  0.00    +0.008 A 
ATOM     11  C   UNK A   0       2.359   3.632  -1.370  0.00  0.00    +0.001 A 
ATOM     12  C   UNK A   0       3.525   3.303  -0.701  0.00  0.00    +0.000 A 
ATOM     13  C   UNK A   0       3.543   2.251   0.198  0.00  0.00    +0.001 A 
ATOM     14  C   UNK A   0       2.397   1.522   0.434  0.00  0.00    +0.008 A 
ENDBRANCH   5   9
BRANCH   1  15
ATOM     15  C   UNK A   0      -3.153   4.912   0.186  0.00  0.00    +0.124 C 
BRANCH  15  16
ATOM     16  C   UNK A   0      -3.362   5.406  -1.246  0.00  0.00    +0.115 C 
BRANCH  16  18
ATOM     17  N   ALA A   1      -3.972   7.519  -2.380  0.00  0.00    -0.302 N 
ATOM     18  C   UNK A   0      -3.738   6.866  -1.225  0.00  0.00    +0.215 C 
ATOM     19  O   UNK A   0      -3.830   7.452  -0.167  0.00  0.00    -0.276 OA
ATOM     20  H   ALA A   1      -3.898   7.049  -3.226  0.00  0.00    +0.150 HD
BRANCH  17  22
ATOM     21  CB  ALA A   1      -3.068   9.790  -2.305  0.00  0.00    +0.040 C 
ATOM     22  CA  ALA A   1      -4.337   8.937  -2.359  0.00  0.00    +0.183 C 
BRANCH  22  23
ATOM     23  C   ALA A   1      -5.116   9.274  -3.605  0.00  0.00    +0.376 C 
ATOM     24  O   ALA A   1      -5.342   8.417  -4.426  0.00  0.00    -0.244 OA
ATOM     25  OXT ALA A   1      -5.558  10.526  -3.802  0.00  0.00    -0.244 OA
ENDBRANCH  22  23
ENDBRANCH  17  22
ENDBRANCH  16  18
ENDBRANCH  15  16
ENDBRANCH   1  15
TORSDOF 6
