REMARK  Name = ZINC11859148
REMARK  6 active torsions:
REMARK  status: ('A' for Active; 'I' for Inactive)
REMARK    1  A    between atoms: C_3  and  C_6
REMARK    2  A    between atoms: C_6  and  C_8
REMARK    3  A    between atoms: C_10  and  C_22
REMARK    4  A    between atoms: C_16  and  C_17
REMARK    5  A    between atoms: C_16  and  O_21
REMARK    6  A    between atoms: C_25  and  C_28
REMARK                            x       y       z     vdW  Elec       q    Type
REMARK                         _______ _______ _______ _____ _____    ______ ____
ROOT
ATOM      1  C   UNL     1      -0.230   6.293  -1.399  0.00  0.00    +0.145 C 
ATOM      2  C   UNL     1      -0.076   5.774   0.035  0.00  0.00    +0.120 C 
ATOM      3  N   UNL     1      -1.206   6.243   0.839  0.00  0.00    -0.292 N 
ATOM      4  C   UNL     1      -2.405   6.480   0.286  0.00  0.00    +0.302 C 
ATOM      5  O   UNL     1      -3.313   6.858   1.001  0.00  0.00    -0.253 OA
ATOM      6  N   UNL     1      -2.642   6.315  -1.024  0.00  0.00    -0.264 N 
ATOM      7  C   UNL     1      -1.595   5.850  -1.935  0.00  0.00    +0.243 C 
ATOM      8  H   UNL     1      -1.085   6.386   1.790  0.00  0.00    +0.151 HD
ATOM      9  H   UNL     1      -3.526   6.509  -1.375  0.00  0.00    +0.153 HD
ENDROOT
BRANCH   2  10
ATOM     10  C   UNL     1      -0.056   4.267   0.025  0.00  0.00    -0.026 A 
ATOM     11  C   UNL     1      -1.211   3.559   0.297  0.00  0.00    +0.006 A 
ATOM     12  C   UNL     1      -1.193   2.176   0.288  0.00  0.00    +0.013 A 
ATOM     13  C   UNL     1      -0.019   1.503   0.006  0.00  0.00    +0.055 A 
ATOM     14  C   UNL     1       1.138   2.211  -0.261  0.00  0.00    +0.013 A 
ATOM     15  C   UNL     1       1.118   3.594  -0.256  0.00  0.00    +0.006 A 
BRANCH  13  16
ATOM     16  C   UNL     1       0.001  -0.004  -0.005  0.00  0.00    +0.417 C 
ATOM     17  F   UNL     1      -0.298  -0.466  -1.291  0.00  0.00    -0.166 F 
ATOM     18  F   UNL     1       1.271  -0.456   0.369  0.00  0.00    -0.166 F 
ATOM     19  F   UNL     1      -0.951  -0.489   0.898  0.00  0.00    -0.166 F 
ENDBRANCH  13  16
ENDBRANCH   2  10
BRANCH   7  20
ATOM     20  C   UNL     1      -1.820   6.454  -3.323  0.00  0.00    +0.436 C 
ATOM     21  F   UNL     1      -1.776   7.849  -3.237  0.00  0.00    -0.166 F 
ATOM     22  F   UNL     1      -0.819   6.008  -4.192  0.00  0.00    -0.166 F 
ATOM     23  F   UNL     1      -3.070   6.055  -3.808  0.00  0.00    -0.166 F 
ENDBRANCH   7  20
BRANCH   1  24
ATOM     24  C   UNL     1      -0.149   7.798  -1.404  0.00  0.00    +0.179 C 
ATOM     25  O   UNL     1      -0.436   8.425  -0.405  0.00  0.00    -0.291 OA
BRANCH  24  28
ATOM     26  C   UNL     1       0.824  10.242  -4.027  0.00  0.00    +0.008 A 
ATOM     27  C   UNL     1       0.398   9.847  -2.786  0.00  0.00    +0.019 A 
ATOM     28  C   UNL     1       0.262   8.479  -2.571  0.00  0.00    +0.055 A 
ATOM     29  S   UNL     1       0.735   7.810  -4.156  0.00  0.00    -0.094 S 
ATOM     30  C   UNL     1       1.078   9.300  -4.975  0.00  0.00    +0.046 A 
ENDBRANCH  24  28
ENDBRANCH   1  24
BRANCH   7  31
ATOM     31  O   UNL     1      -1.636   4.424  -2.020  0.00  0.00    -0.364 OA
ATOM     32  H   UNL     1      -2.475   4.074  -2.348  0.00  0.00    +0.212 HD
ENDBRANCH   7  31
TORSDOF 6
