REMARK  Name = ZINC37137889
REMARK  7 active torsions:
REMARK  status: ('A' for Active; 'I' for Inactive)
REMARK    1  A    between atoms: C_1  and  C_2
REMARK    2  A    between atoms: C_2  and  C_4
REMARK    3  A    between atoms: C_2  and  N_12
REMARK    4  A    between atoms: N_9  and  C_11
REMARK    5  A    between atoms: N_12  and  C_13
REMARK    6  A    between atoms: C_16  and  S_20
REMARK    7  A    between atoms: S_20  and  N_23
REMARK                            x       y       z     vdW  Elec       q    Type
REMARK                         _______ _______ _______ _____ _____    ______ ____
ROOT
ATOM      1  C   UNL     1       2.103  -0.604   1.173  0.00  0.00    +0.042 A 
ATOM      2  C   UNL     1       2.818  -0.253   0.035  0.00  0.00    +0.026 A 
ATOM      3  C   UNL     1       4.194  -0.366   0.023  0.00  0.00    +0.030 A 
ATOM      4  C   UNL     1       4.861  -0.830   1.142  0.00  0.00    +0.106 A 
ATOM      5  C   UNL     1       4.154  -1.180   2.277  0.00  0.00    +0.045 A 
ATOM      6  C   UNL     1       2.777  -1.064   2.298  0.00  0.00    +0.041 A 
ATOM      7 BR   UNL     1       1.810  -1.537   3.853  0.00  0.00    -0.048 Br
ENDROOT
BRANCH   4   8
ATOM      8  S   UNL     1       6.617  -0.974   1.121  0.00  0.00    +0.056 S 
ATOM      9  O   UNL     1       6.957  -1.946   2.101  0.00  0.00    -0.153 OA
ATOM     10  O   UNL     1       6.998  -1.100  -0.242  0.00  0.00    -0.153 OA
BRANCH   8  11
ATOM     11  N   UNL     1       7.233   0.469   1.653  0.00  0.00    -0.204 NA
ATOM     12  H   UNL     1       6.634   1.189   1.902  0.00  0.00    +0.144 HD
ATOM     13  H   UNL     1       8.193   0.593   1.715  0.00  0.00    +0.144 HD
ENDBRANCH   8  11
ENDBRANCH   4   8
BRANCH   1  14
ATOM     14  N   UNL     1       0.711  -0.489   1.189  0.00  0.00    -0.340 N 
ATOM     15  H   UNL     1       0.213  -0.731   1.986  0.00  0.00    +0.146 HD
BRANCH  14  17
ATOM     16  C   UNL     1      -0.019   1.526   0.010  0.00  0.00    +0.028 C 
ATOM     17  C   UNL     1       0.002  -0.004   0.002  0.00  0.00    +0.069 C 
BRANCH  17  18
ATOM     18  C   UNL     1      -1.433  -0.534   0.013  0.00  0.00    -0.008 C 
ATOM     19  C   UNL     1      -2.189   0.061   1.204  0.00  0.00    +0.002 C 
ATOM     20  C   UNL     1      -3.644  -0.413   1.162  0.00  0.00    -0.018 C 
ATOM     21  C   UNL     1      -4.266  -0.012  -0.178  0.00  0.00    -0.079 C 
ATOM     22  N   UNL     1      -3.515  -0.634  -1.275  0.00  0.00    +0.378 N 
ATOM     23  C   UNL     1      -2.137  -0.130  -1.285  0.00  0.00    -0.074 C 
ATOM     24  C   UNL     1      -4.162  -0.310  -2.554  0.00  0.00    -0.096 C 
ATOM     25  H   UNL     1      -3.505  -1.635  -1.150  0.00  0.00    -0.082 HD
ENDBRANCH  17  18
ENDBRANCH  14  17
ENDBRANCH   1  14
TORSDOF 5
