REMARK  Name = ZINC65424295
REMARK  8 active torsions:
REMARK  status: ('A' for Active; 'I' for Inactive)
REMARK    1  A    between atoms: C_1  and  C_2
REMARK    2  A    between atoms: C_2  and  N_3
REMARK    3  A    between atoms: N_3  and  C_4
REMARK    4  A    between atoms: N_3  and  C_6
REMARK    5  A    between atoms: C_4  and  C_5
REMARK    6  A    between atoms: C_9  and  C_13
REMARK    7  A    between atoms: C_10  and  O_12
REMARK    8  A    between atoms: C_22  and  C_25
REMARK                            x       y       z     vdW  Elec       q    Type
REMARK                         _______ _______ _______ _____ _____    ______ ____
ROOT
ATOM      1  C   UNL     1      -2.016  -0.759   1.227  0.00  0.00    +0.033 A 
ATOM      2  C   UNL     1      -1.355  -0.520   2.426  0.00  0.00    +0.023 A 
ATOM      3  C   UNL     1      -1.992  -0.766   3.627  0.00  0.00    +0.009 A 
ATOM      4  C   UNL     1      -3.287  -1.249   3.639  0.00  0.00    +0.002 A 
ATOM      5  C   UNL     1      -3.952  -1.489   2.445  0.00  0.00    +0.122 A 
ATOM      6  C   UNL     1      -3.318  -1.240   1.238  0.00  0.00    +0.068 A 
ENDROOT
BRANCH   4   7
ATOM      7  C   UNL     1      -3.978  -1.516   4.952  0.00  0.00    +0.063 C 
ATOM      8  C   UNL     1      -4.030  -0.231   5.794  0.00  0.00    +0.108 C 
ATOM      9  C   UNL     1      -4.133  -0.522   7.256  0.00  0.00    +0.216 C 
ATOM     10  O   UNL     1      -4.512   0.394   7.955  0.00  0.00    -0.276 OA
ATOM     11  N   UNL     1      -3.860  -1.666   7.888  0.00  0.00    -0.289 N 
ATOM     12  C   UNL     1      -3.626  -2.909   7.166  0.00  0.00    +0.243 C 
ATOM     13  C   UNL     1      -3.190  -2.508   5.759  0.00  0.00    +0.005 C 
ATOM     14  C   UNL     1      -2.085  -3.184   5.550  0.00  0.00    +0.064 C 
ATOM     15  N   UNL     1      -1.705  -3.826   6.685  0.00  0.00    -0.157 NA
ATOM     16  N   UNL     1      -2.494  -3.694   7.649  0.00  0.00    -0.160 NA
ATOM     17  C   UNL     1      -1.345  -3.240   4.239  0.00  0.00    +0.067 C 
ATOM     18  H   UNL     1      -3.817  -1.669   8.857  0.00  0.00    +0.151 HD
ENDBRANCH   4   7
BRANCH   5  19
ATOM     19  O   UNL     1      -5.225  -1.965   2.459  0.00  0.00    -0.506 OA
ATOM     20  H   UNL     1      -5.902  -1.274   2.469  0.00  0.00    +0.292 HD
ENDBRANCH   5  19
BRANCH   1  21
ATOM     21  N   UNL     1      -1.372  -0.511   0.012  0.00  0.00    -0.330 N 
BRANCH  21  23
ATOM     22  C   UNL     1      -0.019   1.526   0.010  0.00  0.00    +0.024 C 
ATOM     23  C   UNL     1       0.002  -0.004   0.002  0.00  0.00    +0.102 C 
ENDBRANCH  21  23
BRANCH  21  24
ATOM     24  C   UNL     1      -2.072  -0.758  -1.251  0.00  0.00    +0.102 C 
ATOM     25  C   UNL     1      -1.816  -2.197  -1.703  0.00  0.00    +0.024 C 
ENDBRANCH  21  24
ENDBRANCH   1  21
TORSDOF 5
