REMARK  Name = ZINC48290766
REMARK  10 active torsions:
REMARK  status: ('A' for Active; 'I' for Inactive)
REMARK    1  A    between atoms: C_1  and  C_2
REMARK    2  A    between atoms: C_5  and  C_8
REMARK    3  A    between atoms: C_8  and  N_9
REMARK    4  A    between atoms: N_9  and  C_10
REMARK    5  A    between atoms: N_9  and  C_25
REMARK    6  A    between atoms: C_10  and  C_11
REMARK    7  A    between atoms: N_13  and  C_14
REMARK    8  A    between atoms: C_14  and  C_15
REMARK    9  A    between atoms: C_18  and  S_21
REMARK   10  A    between atoms: S_21  and  N_24
REMARK                            x       y       z     vdW  Elec       q    Type
REMARK                         _______ _______ _______ _____ _____    ______ ____
ROOT
ATOM      1  N   UNL     1       1.421  -4.724  -0.187  0.00  0.00    +0.393 N 
ATOM      2  H   UNL     1       1.826  -4.285   0.627  0.00  0.00    -0.080 HD
ENDROOT
BRANCH   1   3
ATOM      3  C   UNL     1       2.070  -4.203  -1.397  0.00  0.00    -0.036 C 
ATOM      4  C   UNL     1       1.292  -4.646  -2.655  0.00  0.00    -0.006 C 
ATOM      5  C   UNL     1       1.459  -3.432  -3.593  0.00  0.00    +0.034 C 
ATOM      6  C   UNL     1       1.667  -2.247  -2.674  0.00  0.00    -0.046 A 
ATOM      7  C   UNL     1       2.020  -2.690  -1.411  0.00  0.00    -0.058 A 
ATOM      8  C   UNL     1       2.263  -1.776  -0.400  0.00  0.00    +0.002 A 
ATOM      9  C   UNL     1       2.155  -0.421  -0.648  0.00  0.00    +0.000 A 
ATOM     10  C   UNL     1       1.804   0.024  -1.909  0.00  0.00    +0.000 A 
ATOM     11  C   UNL     1       1.557  -0.889  -2.921  0.00  0.00    +0.004 A 
ENDBRANCH   1   3
BRANCH   1  12
ATOM     12  C   UNL     1      -0.017  -4.430  -0.237  0.00  0.00    -0.041 C 
BRANCH  12  17
ATOM     13  C   UNL     1      -0.840   1.267   0.276  0.00  0.00    +0.044 C 
ATOM     14  C   UNL     1      -0.626  -0.219   0.142  0.00  0.00    -0.050 A 
ATOM     15  C   UNL     1      -0.873  -0.847  -1.064  0.00  0.00    +0.003 A 
ATOM     16  C   UNL     1      -0.676  -2.209  -1.187  0.00  0.00    +0.002 A 
ATOM     17  C   UNL     1      -0.231  -2.944  -0.104  0.00  0.00    -0.064 A 
ATOM     18  C   UNL     1       0.017  -2.316   1.102  0.00  0.00    +0.002 A 
ATOM     19  C   UNL     1      -0.175  -0.952   1.224  0.00  0.00    +0.003 A 
ENDBRANCH  12  17
ENDBRANCH   1  12
BRANCH   1  20
ATOM     20  C   UNL     1       1.621  -6.177  -0.111  0.00  0.00    +0.020 C 
BRANCH  20  21
ATOM     21  C   UNL     1       3.091  -6.475   0.035  0.00  0.00    +0.197 C 
ATOM     22  O   UNL     1       3.882  -5.567   0.187  0.00  0.00    -0.278 OA
ATOM     23  N   UNL     1       3.528  -7.749  -0.003  0.00  0.00    -0.313 N 
ATOM     24  H   UNL     1       2.907  -8.469  -0.197  0.00  0.00    +0.149 HD
BRANCH  23  25
ATOM     25  C   UNL     1       4.940  -8.048   0.248  0.00  0.00    +0.139 C 
BRANCH  25  26
ATOM     26  C   UNL     1       5.190  -9.518   0.028  0.00  0.00    -0.030 A 
ATOM     27  C   UNL     1       5.049 -10.407   1.076  0.00  0.00    +0.007 A 
ATOM     28  C   UNL     1       5.278 -11.756   0.874  0.00  0.00    +0.029 A 
ATOM     29  C   UNL     1       5.647 -12.214  -0.377  0.00  0.00    +0.105 A 
ATOM     30  C   UNL     1       5.788 -11.324  -1.425  0.00  0.00    +0.029 A 
ATOM     31  C   UNL     1       5.554  -9.976  -1.224  0.00  0.00    +0.007 A 
BRANCH  29  32
ATOM     32  S   UNL     1       5.941 -13.932  -0.634  0.00  0.00    +0.056 S 
ATOM     33  O   UNL     1       6.803 -14.033  -1.759  0.00  0.00    -0.153 OA
ATOM     34  O   UNL     1       6.273 -14.482   0.633  0.00  0.00    -0.153 OA
BRANCH  32  35
ATOM     35  N   UNL     1       4.499 -14.613  -1.081  0.00  0.00    -0.204 NA
ATOM     36  H   UNL     1       3.704 -14.062  -1.154  0.00  0.00    +0.144 HD
ATOM     37  H   UNL     1       4.449 -15.563  -1.271  0.00  0.00    +0.144 HD
ENDBRANCH  32  35
ENDBRANCH  29  32
ENDBRANCH  25  26
ENDBRANCH  23  25
ENDBRANCH  20  21
ENDBRANCH   1  20
TORSDOF 9
