REMARK  Name = ZINC45599419
REMARK  5 active torsions:
REMARK  status: ('A' for Active; 'I' for Inactive)
REMARK    1  A    between atoms: C_1  and  C_2
REMARK    2  A    between atoms: C_5  and  S_7
REMARK    3  A    between atoms: S_7  and  C_8
REMARK    4  A    between atoms: C_8  and  C_9
REMARK    5  A    between atoms: C_19  and  C_23
REMARK                            x       y       z     vdW  Elec       q    Type
REMARK                         _______ _______ _______ _____ _____    ______ ____
ROOT
ATOM      1  C   UNL     1       0.073  -6.146   2.545  0.00  0.00    +0.143 A 
ATOM      2  N   UNL     1       1.235  -6.569   3.011  0.00  0.00    -0.216 NA
ATOM      3  C   UNL     1       1.344  -7.189   4.175  0.00  0.00    +0.128 A 
ATOM      4  C   UNL     1       0.175  -7.410   4.954  0.00  0.00    +0.051 A 
ATOM      5  C   UNL     1       0.052  -8.065   6.257  0.00  0.00    -0.025 A 
ATOM      6  C   UNL     1      -1.186  -8.147   6.787  0.00  0.00    -0.004 A 
ATOM      7  S   UNL     1      -2.249  -7.370   5.600  0.00  0.00    -0.073 S 
ATOM      8  C   UNL     1      -1.026  -6.933   4.391  0.00  0.00    +0.114 A 
ATOM      9  N   UNL     1      -1.045  -6.319   3.224  0.00  0.00    -0.224 NA
ATOM     10  C   UNL     1      -1.574  -8.762   8.096  0.00  0.00    +0.046 C 
ATOM     11  C   UNL     1      -0.302  -8.963   8.933  0.00  0.00    -0.009 C 
ATOM     12  C   UNL     1       0.763  -9.626   8.056  0.00  0.00    +0.008 C 
ATOM     13  C   UNL     1       1.257  -8.635   7.001  0.00  0.00    +0.037 C 
ATOM     14  C   UNL     1      -0.614  -9.859  10.134  0.00  0.00    +0.008 C 
ATOM     15  N   UNL     1       2.579  -7.617   4.627  0.00  0.00    -0.343 N 
ATOM     16  H   UNL     1       2.697  -7.857   5.559  0.00  0.00    +0.144 HD
ATOM     17  H   UNL     1       3.327  -7.676   4.012  0.00  0.00    +0.144 HD
ENDROOT
BRANCH   1  18
ATOM     18  C   UNL     1       0.024  -5.446   1.212  0.00  0.00    +0.152 C 
BRANCH  18  19
ATOM     19  S   UNL     1       0.246  -3.663   1.456  0.00  0.00    -0.091 S 
BRANCH  19  24
ATOM     20  C   UNL     1       0.307   0.039  -2.261  0.00  0.00    +0.066 C 
ATOM     21  C   UNL     1       0.188  -1.397  -1.821  0.00  0.00    +0.047 A 
ATOM     22  C   UNL     1      -0.009  -2.396  -2.715  0.00  0.00    +0.070 A 
ATOM     23  S   UNL     1      -0.064  -3.811  -1.627  0.00  0.00    -0.069 S 
ATOM     24  C   UNL     1       0.166  -2.995  -0.172  0.00  0.00    +0.135 A 
ATOM     25  N   UNL     1       0.276  -1.738  -0.548  0.00  0.00    -0.238 NA
ENDBRANCH  19  24
ENDBRANCH  18  19
ENDBRANCH   1  18
TORSDOF 3
