REMARK  Name = ZINC40218641
REMARK  6 active torsions:
REMARK  status: ('A' for Active; 'I' for Inactive)
REMARK    1  A    between atoms: C_1  and  C_2
REMARK    2  A    between atoms: C_3  and  C_7
REMARK    3  A    between atoms: C_13  and  C_16
REMARK    4  A    between atoms: C_16  and  N_17
REMARK    5  A    between atoms: N_17  and  S_18
REMARK    6  A    between atoms: S_18  and  N_21
REMARK                            x       y       z     vdW  Elec       q    Type
REMARK                         _______ _______ _______ _____ _____    ______ ____
ROOT
ATOM      1  C   UNL     1      -2.508  -0.405   0.012  0.00  0.00    +0.250 C 
ATOM      2  O   UNL     1      -2.798   0.773   0.100  0.00  0.00    -0.270 OA
ATOM      3  N   UNL     1      -3.481  -1.333  -0.090  0.00  0.00    -0.297 N 
ATOM      4  C   UNL     1      -3.152  -2.765  -0.096  0.00  0.00    +0.108 C 
ATOM      5  C   UNL     1      -3.781  -3.410  -1.335  0.00  0.00    +0.019 C 
ATOM      6  C   UNL     1      -5.282  -3.110  -1.355  0.00  0.00    +0.008 C 
ATOM      7  C   UNL     1      -5.500  -1.597  -1.435  0.00  0.00    +0.022 C 
ATOM      8  C   UNL     1      -4.891  -0.931  -0.192  0.00  0.00    +0.113 C 
ENDROOT
BRANCH   1  11
ATOM      9  C   UNL     1      -0.210   0.816  -1.738  0.00  0.00    +0.087 C 
ATOM     10  C   UNL     1      -0.080  -0.300  -0.734  0.00  0.00    +0.114 A 
ATOM     11  C   UNL     1      -1.094  -0.818   0.018  0.00  0.00    +0.077 A 
ATOM     12  C   UNL     1      -0.480  -1.875   0.836  0.00  0.00    +0.054 A 
ATOM     13  C   UNL     1       0.820  -1.890   0.503  0.00  0.00    +0.196 A 
ATOM     14  O   UNL     1       1.045  -0.955  -0.434  0.00  0.00    -0.467 OA
ENDBRANCH   1  11
BRANCH   7  15
ATOM     15  C   UNL     1      -6.999  -1.299  -1.490  0.00  0.00    +0.112 C 
BRANCH  15  16
ATOM     16  N   UNL     1      -7.205   0.138  -1.686  0.00  0.00    -0.180 NA
ATOM     17  H   UNL     1      -6.472   0.757  -1.544  0.00  0.00    +0.149 HD
BRANCH  16  18
ATOM     18  S   UNL     1      -8.690   0.706  -2.152  0.00  0.00    +0.092 S 
ATOM     19  O   UNL     1      -8.577   2.120  -2.230  0.00  0.00    -0.142 OA
ATOM     20  O   UNL     1      -9.100  -0.088  -3.257  0.00  0.00    -0.142 OA
BRANCH  18  21
ATOM     21  N   UNL     1      -9.746   0.382  -0.919  0.00  0.00    -0.193 NA
ATOM     22  H   UNL     1     -10.507   0.965  -0.766  0.00  0.00    +0.145 HD
ATOM     23  H   UNL     1      -9.605  -0.390  -0.349  0.00  0.00    +0.145 HD
ENDBRANCH  18  21
ENDBRANCH  16  18
ENDBRANCH  15  16
ENDBRANCH   7  15
TORSDOF 5
