REMARK  Name = ZINC50208800
REMARK  5 active torsions:
REMARK  status: ('A' for Active; 'I' for Inactive)
REMARK    1  A    between atoms: C_1  and  C_2
REMARK    2  A    between atoms: C_2  and  C_4
REMARK    3  A    between atoms: C_2  and  N_10
REMARK    4  A    between atoms: N_13  and  C_14
REMARK    5  A    between atoms: C_19  and  C_20
REMARK                            x       y       z     vdW  Elec       q    Type
REMARK                         _______ _______ _______ _____ _____    ______ ____
ROOT
ATOM      1  N   UNL     1       0.683  -0.510  -1.206  0.00  0.00    -0.294 N 
ATOM      2  C   UNL     1       2.027  -0.603  -1.220  0.00  0.00    +0.304 C 
ATOM      3  O   UNL     1       2.668  -0.296  -0.233  0.00  0.00    -0.252 OA
ATOM      4  N   UNL     1       2.662  -1.036  -2.327  0.00  0.00    -0.269 N 
ATOM      5  H   UNL     1       0.172  -0.754  -1.994  0.00  0.00    +0.151 HD
ATOM      6  H   UNL     1       2.149  -1.342  -3.092  0.00  0.00    +0.156 HD
ENDROOT
BRANCH   4   7
ATOM      7  C   UNL     1       4.053  -1.044  -2.374  0.00  0.00    +0.049 A 
ATOM      8  C   UNL     1       4.787  -1.333  -1.232  0.00  0.00    +0.025 A 
ATOM      9  C   UNL     1       6.166  -1.340  -1.280  0.00  0.00    +0.017 A 
ATOM     10  C   UNL     1       6.830  -1.060  -2.465  0.00  0.00    +0.019 A 
ATOM     11  C   UNL     1       6.118  -0.772  -3.609  0.00  0.00    +0.032 A 
ATOM     12  C   UNL     1       4.720  -0.767  -3.578  0.00  0.00    +0.085 A 
ATOM     13 BR   UNL     1       8.720  -1.075  -2.511  0.00  0.00    -0.050 Br
BRANCH  12  14
ATOM     14  C   UNL     1       3.953  -0.466  -4.797  0.00  0.00    +0.388 C 
ATOM     15  O   UNL     1       4.533  -0.321  -5.864  0.00  0.00    -0.241 OA
ATOM     16  O   UNL     1       2.735  -0.360  -4.743  0.00  0.00    -0.241 OA
ENDBRANCH  12  14
ENDBRANCH   4   7
BRANCH   1  18
ATOM     17  C   UNL     1      -0.047   1.490  -0.003  0.00  0.00    +0.030 C 
ATOM     18  C   UNL     1      -0.007  -0.039  -0.002  0.00  0.00    +0.100 C 
BRANCH  18  19
ATOM     19  C   UNL     1      -1.435  -0.587   0.014  0.00  0.00    +0.138 C 
ATOM     20  C   UNL     1      -1.404  -2.130   0.010  0.00  0.00    +0.035 C 
ATOM     21  C   UNL     1      -2.587  -2.481  -0.934  0.00  0.00    +0.031 C 
ATOM     22  C   UNL     1      -2.514  -1.309  -1.944  0.00  0.00    +0.160 C 
ATOM     23  O   UNL     1      -2.132  -0.163  -1.163  0.00  0.00    -0.375 OA
ENDBRANCH  18  19
ENDBRANCH   1  18
TORSDOF 4
