REMARK  Name = ZINC39662507
REMARK  10 active torsions:
REMARK  status: ('A' for Active; 'I' for Inactive)
REMARK    1  A    between atoms: C_1  and  C_2
REMARK    2  A    between atoms: C_4  and  C_11
REMARK    3  A    between atoms: N_5  and  C_7
REMARK    4  A    between atoms: C_7  and  C_8
REMARK    5  A    between atoms: C_7  and  C_9
REMARK    6  A    between atoms: C_7  and  C_10
REMARK    7  A    between atoms: C_15  and  C_24
REMARK    8  A    between atoms: N_26  and  C_27
REMARK    9  A    between atoms: C_27  and  C_29
REMARK   10  A    between atoms: C_27  and  C_31
REMARK                            x       y       z     vdW  Elec       q    Type
REMARK                         _______ _______ _______ _____ _____    ______ ____
ROOT
ATOM      1  C   UNL     1      -0.539  -3.809  -1.544  0.00  0.00    +0.265 C 
ATOM      2  O   UNL     1      -0.685  -3.802  -2.751  0.00  0.00    -0.268 OA
ATOM      3  N   UNL     1      -0.450  -4.979  -0.882  0.00  0.00    -0.295 N 
ATOM      4  C   UNL     1      -0.406  -5.193   0.584  0.00  0.00    +0.121 C 
ATOM      5  C   UNL     1      -1.270  -6.452   0.821  0.00  0.00    +0.100 C 
ATOM      6  C   UNL     1      -1.244  -7.204  -0.520  0.00  0.00    -0.004 C 
ATOM      7  C   UNL     1      -0.382  -6.345  -1.456  0.00  0.00    +0.115 C 
ATOM      8  C   UNL     1      -0.618  -8.584  -0.341  0.00  0.00    -0.010 C 
ATOM      9  C   UNL     1      -0.657  -9.334  -1.675  0.00  0.00    -0.082 C 
ATOM     10  N   UNL     1      -2.048  -9.461  -2.127  0.00  0.00    +0.379 N 
ATOM     11  C   UNL     1      -2.614  -8.132  -2.386  0.00  0.00    -0.082 C 
ATOM     12  C   UNL     1      -2.658  -7.330  -1.081  0.00  0.00    -0.010 C 
ATOM     13  H   UNL     1      -2.076 -10.008  -2.974  0.00  0.00    -0.086 HD
ATOM     14  H   UNL     1      -2.591  -9.923  -1.413  0.00  0.00    -0.086 HD
ENDROOT
BRANCH   1  18
ATOM     15  C   UNL     1       0.067  -0.300   2.068  0.00  0.00    +0.067 C 
ATOM     16  C   UNL     1      -0.199  -0.996   0.758  0.00  0.00    +0.061 A 
ATOM     17  C   UNL     1      -0.144  -2.373   0.532  0.00  0.00    +0.057 A 
ATOM     18  C   UNL     1      -0.460  -2.538  -0.805  0.00  0.00    +0.124 A 
ATOM     19  N   UNL     1      -0.682  -1.286  -1.303  0.00  0.00    -0.254 N 
ATOM     20  N   UNL     1      -0.527  -0.417  -0.369  0.00  0.00    -0.175 NA
BRANCH  19  21
ATOM     21  C   UNL     1      -1.047  -0.980  -2.688  0.00  0.00    +0.056 C 
ATOM     22  C   UNL     1      -2.300  -1.770  -3.072  0.00  0.00    +0.036 C 
ATOM     23  C   UNL     1      -1.328   0.518  -2.823  0.00  0.00    +0.036 C 
ATOM     24  C   UNL     1       0.105  -1.368  -3.617  0.00  0.00    +0.036 C 
ENDBRANCH  19  21
ENDBRANCH   1  18
BRANCH   5  25
ATOM     25  C   UNL     1      -2.680  -6.060   1.179  0.00  0.00    +0.219 C 
ATOM     26  O   UNL     1      -3.162  -5.046   0.722  0.00  0.00    -0.275 OA
ATOM     27  N   UNL     1      -3.405  -6.838   2.008  0.00  0.00    -0.296 N 
ATOM     28  H   UNL     1      -2.999  -7.614   2.425  0.00  0.00    +0.150 HD
BRANCH  27  29
ATOM     29  C   UNL     1      -4.808  -6.511   2.279  0.00  0.00    +0.207 C 
BRANCH  29  30
ATOM     30  C   UNL     1      -5.208  -7.083   3.614  0.00  0.00    -0.013 A 
ATOM     31  C   UNL     1      -4.761  -8.335   3.991  0.00  0.00    +0.006 A 
ATOM     32  C   UNL     1      -5.128  -8.861   5.216  0.00  0.00    +0.000 A 
ATOM     33  C   UNL     1      -5.943  -8.133   6.064  0.00  0.00    +0.000 A 
ATOM     34  C   UNL     1      -6.389  -6.880   5.687  0.00  0.00    +0.000 A 
ATOM     35  C   UNL     1      -6.018  -6.353   4.464  0.00  0.00    +0.006 A 
ENDBRANCH  29  30
BRANCH  29  36
ATOM     36  C   UNL     1      -5.658  -7.085   1.223  0.00  0.00    +0.090 C 
ATOM     37  N   UNL     1      -6.314  -7.529   0.409  0.00  0.00    -0.194 NA
ENDBRANCH  29  36
ENDBRANCH  27  29
ENDBRANCH   5  25
TORSDOF 6
