REMARK  Name = ZINC20533528
REMARK  4 active torsions:
REMARK  status: ('A' for Active; 'I' for Inactive)
REMARK    1  A    between atoms: C_3  and  O_37
REMARK    2  A    between atoms: C_6  and  C_7
REMARK    3  A    between atoms: C_7  and  C_8
REMARK    4  A    between atoms: N_16  and  C_19
REMARK                            x       y       z     vdW  Elec       q    Type
REMARK                         _______ _______ _______ _____ _____    ______ ____
ROOT
ATOM      1  C   UNL     1      -1.746  -1.027  -1.429  0.00  0.00    +0.072 C 
ATOM      2  C   UNL     1      -3.026  -1.889  -1.446  0.00  0.00    +0.107 C 
ATOM      3  C   UNL     1      -3.879  -1.315  -2.611  0.00  0.00    +0.122 C 
ATOM      4  C   UNL     1      -5.096  -0.758  -1.907  0.00  0.00    +0.228 C 
ATOM      5  O   UNL     1      -6.034  -0.217  -2.453  0.00  0.00    -0.275 OA
ATOM      6  N   UNL     1      -4.978  -0.955  -0.589  0.00  0.00    -0.238 N 
ATOM      7  C   UNL     1      -3.846  -1.591  -0.211  0.00  0.00    +0.227 C 
ATOM      8  O   UNL     1      -3.532  -1.877   0.924  0.00  0.00    -0.275 OA
ATOM      9  C   UNL     1      -3.030  -0.173  -3.183  0.00  0.00    +0.136 C 
ATOM     10  N   UNL     1      -2.136   0.252  -2.081  0.00  0.00    -0.295 NA
ATOM     11  C   UNL     1      -3.886   0.969  -3.653  0.00  0.00    +0.006 A 
ATOM     12  C   UNL     1      -4.801   1.788  -3.029  0.00  0.00    +0.046 A 
ATOM     13  C   UNL     1      -5.446   2.780  -3.748  0.00  0.00    +0.124 A 
ATOM     14  C   UNL     1      -5.170   2.945  -5.095  0.00  0.00    +0.040 A 
ATOM     15  C   UNL     1      -4.255   2.125  -5.723  0.00  0.00    +0.026 A 
ATOM     16  C   UNL     1      -3.602   1.125  -5.006  0.00  0.00    +0.039 A 
ATOM     17  N   UNL     1      -2.650   0.185  -5.412  0.00  0.00    -0.283 N 
ATOM     18  C   UNL     1      -2.263  -0.615  -4.400  0.00  0.00    +0.243 C 
ATOM     19  O   UNL     1      -1.453  -1.516  -4.457  0.00  0.00    -0.273 OA
ATOM     20  F   UNL     1      -6.343   3.586  -3.138  0.00  0.00    -0.205 F 
ATOM     21  H   UNL     1      -2.612   0.859  -1.430  0.00  0.00    +0.124 HD
ATOM     22  H   UNL     1      -2.307   0.117  -6.317  0.00  0.00    +0.155 HD
ENDROOT
BRANCH   6  23
ATOM     23  C   UNL     1      -5.996  -0.521   0.371  0.00  0.00    +0.084 C 
ATOM     24  C   UNL     1      -5.376   0.469   1.360  0.00  0.00    +0.023 C 
ATOM     25  C   UNL     1      -6.439   0.921   2.363  0.00  0.00    +0.002 C 
ATOM     26  C   UNL     1      -6.971  -0.294   3.125  0.00  0.00    +0.000 C 
ATOM     27  C   UNL     1      -7.591  -1.284   2.136  0.00  0.00    +0.002 C 
ATOM     28  C   UNL     1      -6.528  -1.737   1.133  0.00  0.00    +0.023 C 
ENDBRANCH   6  23
BRANCH   1  29
ATOM     29  C   UNL     1      -1.293  -0.774   0.011  0.00  0.00    +0.054 C 
BRANCH  29  35
ATOM     30  C   UNL     1      -0.017   1.378   0.010  0.00  0.00    +0.007 A 
ATOM     31  C   UNL     1       1.169   2.087   0.002  0.00  0.00    +0.045 A 
ATOM     32  C   UNL     1       2.380   1.409  -0.013  0.00  0.00    +0.117 A 
ATOM     33  C   UNL     1       2.396   0.022  -0.021  0.00  0.00    +0.045 A 
ATOM     34  C   UNL     1       1.207  -0.681  -0.013  0.00  0.00    +0.007 A 
ATOM     35  C   UNL     1       0.002  -0.004   0.002  0.00  0.00    -0.046 A 
BRANCH  32  36
ATOM     36  O   UNL     1       3.548   2.104  -0.021  0.00  0.00    -0.507 OA
ATOM     37  H   UNL     1       3.895   2.300   0.860  0.00  0.00    +0.292 HD
ENDBRANCH  32  36
ENDBRANCH  29  35
ENDBRANCH   1  29
TORSDOF 4
