REMARK  Name = ZINC12402855
REMARK  9 active torsions:
REMARK  status: ('A' for Active; 'I' for Inactive)
REMARK    1  A    between atoms: C_1  and  C_2
REMARK    2  A    between atoms: C_2  and  C_3
REMARK    3  A    between atoms: C_3  and  C_4
REMARK    4  A    between atoms: C_22  and  C_37
REMARK    5  A    between atoms: C_25  and  O_36
REMARK    6  A    between atoms: C_28  and  C_35
REMARK    7  A    between atoms: C_29  and  C_31
REMARK    8  A    between atoms: C_31  and  C_33
REMARK    9  A    between atoms: C_33  and  O_34
REMARK                            x       y       z     vdW  Elec       q    Type
REMARK                         _______ _______ _______ _____ _____    ______ ____
ROOT
ATOM      1  C   UNL     1      -0.370  -0.937   3.693  0.00  0.00    +0.252 C 
ATOM      2  O   UNL     1      -1.017   0.017   4.542  0.00  0.00    -0.345 OA
ATOM      3  C   UNL     1      -1.216   1.206   3.759  0.00  0.00    +0.161 C 
ATOM      4  C   UNL     1      -2.531   1.088   2.968  0.00  0.00    +0.039 C 
ATOM      5  C   UNL     1      -2.138   1.041   1.482  0.00  0.00    +0.004 C 
ATOM      6  C   UNL     1      -3.172   1.688   0.605  0.00  0.00    -0.000 C 
ATOM      7  C   UNL     1      -3.026   1.272  -0.863  0.00  0.00    +0.008 C 
ATOM      8  C   UNL     1      -4.404   1.461  -1.504  0.00  0.00    +0.032 C 
ATOM      9  C   UNL     1      -4.955   2.813  -1.137  0.00  0.00    -0.056 C 
ATOM     10  C   UNL     1      -6.128   3.157  -1.712  0.00  0.00    +0.051 C 
ATOM     11  C   UNL     1      -6.695   4.484  -1.376  0.00  0.00    +0.179 C 
ATOM     12  O   UNL     1      -7.369   5.120  -2.173  0.00  0.00    -0.288 OA
ATOM     13  C   UNL     1      -6.402   5.003  -0.017  0.00  0.00    +0.047 C 
ATOM     14  C   UNL     1      -5.253   4.613   0.557  0.00  0.00    -0.012 C 
ATOM     15  C   UNL     1      -4.276   3.772  -0.219  0.00  0.00    +0.013 C 
ATOM     16  C   UNL     1      -3.214   3.208   0.692  0.00  0.00    +0.035 C 
ATOM     17  C   UNL     1      -1.832   3.815   0.544  0.00  0.00    +0.120 C 
ATOM     18  C   UNL     1      -0.872   3.204   1.574  0.00  0.00    +0.042 C 
ATOM     19  C   UNL     1      -0.747   1.694   1.412  0.00  0.00    +0.012 C 
ATOM     20  C   UNL     1      -0.079   1.135   2.703  0.00  0.00    +0.164 C 
ATOM     21  O   UNL     1       0.126  -0.277   2.527  0.00  0.00    -0.334 OA
ATOM     22  C   UNL     1       0.035   1.296   0.158  0.00  0.00    +0.015 C 
ATOM     23  C   UNL     1      -3.600   4.754  -1.174  0.00  0.00    +0.020 C 
ENDROOT
BRANCH  20  24
ATOM     24  C   UNL     1       1.170   1.867   3.110  0.00  0.00    +0.193 C 
ATOM     25  O   UNL     1       1.099   2.811   3.860  0.00  0.00    -0.292 OA
BRANCH  24  26
ATOM     26  C   UNL     1       2.510   1.421   2.583  0.00  0.00    +0.233 C 
BRANCH  26  27
ATOM     27  O   UNL     1       3.544   2.187   3.204  0.00  0.00    -0.387 OA
ATOM     28  H   UNL     1       4.436   1.954   2.911  0.00  0.00    +0.210 HD
ENDBRANCH  26  27
ENDBRANCH  24  26
ENDBRANCH  20  24
BRANCH  17  29
ATOM     29  O   UNL     1      -1.864   5.223   0.842  0.00  0.00    -0.391 OA
ATOM     30  H   UNL     1      -1.006   5.662   0.762  0.00  0.00    +0.210 HD
ENDBRANCH  17  29
BRANCH   1  31
ATOM     31  C   UNL     1       0.785  -1.597   4.447  0.00  0.00    +0.061 C 
BRANCH  31  33
ATOM     32  C   UNL     1       1.387  -3.071   6.372  0.00  0.00    +0.004 C 
ATOM     33  C   UNL     1       0.231  -2.411   5.618  0.00  0.00    +0.002 C 
ENDBRANCH  31  33
ENDBRANCH   1  31
TORSDOF 6
