REMARK  Name = ZINC02254490
REMARK  10 active torsions:
REMARK  status: ('A' for Active; 'I' for Inactive)
REMARK    1  A    between atoms: C_1  and  C_2
REMARK    2  A    between atoms: C_2  and  O_3
REMARK    3  A    between atoms: O_3  and  C_4
REMARK    4  A    between atoms: C_4  and  C_6
REMARK    5  A    between atoms: C_12  and  C_13
REMARK    6  A    between atoms: C_16  and  O_19
REMARK    7  A    between atoms: C_21  and  N_34
REMARK    8  A    between atoms: C_22  and  C_32
REMARK    9  A    between atoms: C_23  and  C_25
REMARK   10  A    between atoms: C_28  and  O_31
REMARK                            x       y       z     vdW  Elec       q    Type
REMARK                         _______ _______ _______ _____ _____    ______ ____
ROOT
ATOM      1  C   UNL     1      -3.199   3.772   1.261  0.00  0.00    +0.080 C 
ATOM      2  C   UNL     1      -4.374   3.070   1.204  0.00  0.00    +0.100 A 
ATOM      3  N   UNL     1      -4.877   2.492   0.056  0.00  0.00    -0.257 N 
ATOM      4  C   UNL     1      -6.047   1.829   0.151  0.00  0.00    +0.271 A 
ATOM      5  O   UNL     1      -6.543   1.298  -0.826  0.00  0.00    -0.266 OA
ATOM      6  C   UNL     1      -6.709   1.763   1.458  0.00  0.00    +0.079 A 
ATOM      7  C   UNL     1      -7.877   1.163   1.804  0.00  0.00    +0.028 C 
ATOM      8  S   UNL     1      -5.564   2.684   2.472  0.00  0.00    -0.065 S 
ATOM      9  C   UNL     1      -4.160   2.617  -1.140  0.00  0.00    +0.118 C 
ATOM     10  C   UNL     1      -2.987   3.278  -1.249  0.00  0.00    +0.079 C 
ATOM     11  C   UNL     1      -2.396   3.929  -0.015  0.00  0.00    +0.102 C 
ENDROOT
BRANCH   7  12
ATOM     12  C   UNL     1      -8.270   1.079   3.216  0.00  0.00    -0.024 A 
ATOM     13  C   UNL     1      -7.294   1.116   4.220  0.00  0.00    +0.011 A 
ATOM     14  C   UNL     1      -7.669   1.044   5.543  0.00  0.00    +0.046 A 
ATOM     15  C   UNL     1      -9.011   0.923   5.882  0.00  0.00    +0.117 A 
ATOM     16  C   UNL     1      -9.983   0.880   4.889  0.00  0.00    +0.046 A 
ATOM     17  C   UNL     1      -9.621   0.957   3.564  0.00  0.00    +0.011 A 
BRANCH  15  18
ATOM     18  O   UNL     1      -9.374   0.846   7.188  0.00  0.00    -0.507 OA
ATOM     19  H   UNL     1      -9.409  -0.056   7.535  0.00  0.00    +0.292 HD
ENDBRANCH  15  18
ENDBRANCH   7  12
BRANCH  11  20
ATOM     20  C   UNL     1      -1.026   3.344   0.215  0.00  0.00    -0.034 A 
ATOM     21  C   UNL     1      -0.882   1.985   0.425  0.00  0.00    +0.008 A 
ATOM     22  C   UNL     1       0.372   1.448   0.641  0.00  0.00    +0.046 A 
ATOM     23  C   UNL     1       1.489   2.271   0.638  0.00  0.00    +0.117 A 
ATOM     24  C   UNL     1       1.342   3.634   0.422  0.00  0.00    +0.046 A 
ATOM     25  C   UNL     1       0.085   4.167   0.212  0.00  0.00    +0.008 A 
BRANCH  23  26
ATOM     26  O   UNL     1       2.724   1.744   0.845  0.00  0.00    -0.507 OA
ATOM     27  H   UNL     1       3.173   1.464   0.035  0.00  0.00    +0.292 HD
ENDBRANCH  23  26
ENDBRANCH  11  20
BRANCH   9  28
ATOM     28  N   UNL     1      -4.681   2.033  -2.269  0.00  0.00    -0.343 N 
ATOM     29  H   UNL     1      -4.090   1.745  -2.982  0.00  0.00    +0.144 HD
ATOM     30  H   UNL     1      -5.639   1.909  -2.354  0.00  0.00    +0.144 HD
ENDBRANCH   9  28
BRANCH   1  31
ATOM     31  C   UNL     1      -2.753   4.331   2.466  0.00  0.00    +0.339 C 
ATOM     32  O   UNL     1      -3.412   4.195   3.482  0.00  0.00    -0.245 OA
BRANCH  31  33
ATOM     33  O   UNL     1      -1.592   5.021   2.501  0.00  0.00    -0.462 OA
BRANCH  33  35
ATOM     34  C   UNL     1       0.131   6.305   3.607  0.00  0.00    +0.048 C 
ATOM     35  C   UNL     1      -1.198   5.564   3.763  0.00  0.00    +0.229 C 
ENDBRANCH  33  35
ENDBRANCH  31  33
ENDBRANCH   1  31
BRANCH  10  36
ATOM     36  C   UNL     1      -2.314   3.361  -2.510  0.00  0.00    +0.099 C 
ATOM     37  N   UNL     1      -1.780   3.428  -3.510  0.00  0.00    -0.191 NA
ENDBRANCH  10  36
TORSDOF 9
