REMARK  Name = ZINC17097357
REMARK  3 active torsions:
REMARK  status: ('A' for Active; 'I' for Inactive)
REMARK    1  A    between atoms: C_5  and  C_7
REMARK    2  A    between atoms: C_12  and  C_18
REMARK    3  A    between atoms: C_20  and  N_25
REMARK                            x       y       z     vdW  Elec       q    Type
REMARK                         _______ _______ _______ _____ _____    ______ ____
ROOT
ATOM      1  C   UNL     1       2.451   3.939  -0.000  0.00  0.00    +0.033 C 
ATOM      2  C   UNL     1       2.512   4.828  -1.245  0.00  0.00    +0.060 C 
ATOM      3  C   UNL     1       3.784   5.638  -1.227  0.00  0.00    +0.018 C 
ATOM      4  C   UNL     1       4.348   6.015  -0.060  0.00  0.00    +0.020 C 
ATOM      5  C   UNL     1       5.620   6.830  -0.067  0.00  0.00    +0.064 C 
ATOM      6  C   UNL     1       5.607   7.780  -1.265  0.00  0.00    +0.109 C 
ATOM      7  C   UNL     1       5.228   7.010  -2.503  0.00  0.00    +0.218 C 
ATOM      8  O   UNL     1       5.707   7.313  -3.575  0.00  0.00    -0.275 OA
ATOM      9  N   UNL     1       4.361   5.986  -2.422  0.00  0.00    -0.289 N 
ATOM     10  C   UNL     1       3.779   5.662   1.175  0.00  0.00    +0.162 C 
ATOM     11  O   UNL     1       4.307   6.032   2.204  0.00  0.00    -0.292 OA
ATOM     12  C   UNL     1       2.524   4.833   1.242  0.00  0.00    +0.088 C 
ATOM     13  H   UNL     1       4.138   5.485  -3.222  0.00  0.00    +0.155 HD
ENDROOT
BRANCH   1  18
ATOM     14  C   UNL     1      -1.237   3.133   0.029  0.00  0.00    +0.000 A 
ATOM     15  C   UNL     1      -1.218   1.751   0.017  0.00  0.00    +0.001 A 
ATOM     16  C   UNL     1      -0.013   1.076   0.008  0.00  0.00    +0.020 A 
ATOM     17  C   UNL     1       1.176   1.784   0.000  0.00  0.00    +0.044 A 
ATOM     18  C   UNL     1       1.157   3.167   0.007  0.00  0.00    -0.025 A 
ATOM     19  C   UNL     1      -0.050   3.841   0.022  0.00  0.00    +0.005 A 
ATOM     20 CL   UNL     1       2.691   0.937  -0.019  0.00  0.00    -0.083 Cl
ENDBRANCH   1  18
BRANCH   5  21
ATOM     21  C   UNL     1       6.807   5.907  -0.170  0.00  0.00    -0.019 A 
ATOM     22  C   UNL     1       6.937   5.066  -1.259  0.00  0.00    +0.038 A 
ATOM     23  C   UNL     1       8.030   4.225  -1.356  0.00  0.00    +0.127 A 
ATOM     24  C   UNL     1       8.986   4.215  -0.358  0.00  0.00    +0.034 A 
ATOM     25  C   UNL     1       8.854   5.051   0.734  0.00  0.00    +0.022 A 
ATOM     26  C   UNL     1       7.764   5.898   0.829  0.00  0.00    +0.045 A 
ATOM     27 CL   UNL     1       7.598   6.950   2.200  0.00  0.00    -0.083 Cl
BRANCH  23  28
ATOM     28  N   UNL     1       8.171   3.329  -2.526  0.00  0.00    +0.056 N 
ATOM     29  O   UNL     1       9.131   2.583  -2.609  0.00  0.00    -0.126 OA
ATOM     30  O   UNL     1       7.329   3.337  -3.405  0.00  0.00    -0.126 OA
ENDBRANCH  23  28
ENDBRANCH   5  21
TORSDOF 3
