REMARK  Name = ZINC20155209
REMARK  4 active torsions:
REMARK  status: ('A' for Active; 'I' for Inactive)
REMARK    1  A    between atoms: C_1  and  C_2
REMARK    2  A    between atoms: C_5  and  C_20
REMARK    3  A    between atoms: C_10  and  C_12
REMARK    4  A    between atoms: C_17  and  N_18
REMARK                            x       y       z     vdW  Elec       q    Type
REMARK                         _______ _______ _______ _____ _____    ______ ____
ROOT
ATOM      1  C   UNL     1       1.005  -2.017  -1.056  0.00  0.00    +0.009 C 
ATOM      2  C   UNL     1       0.865  -0.495  -1.127  0.00  0.00    +0.004 C 
ATOM      3  C   UNL     1       2.249   0.151  -1.034  0.00  0.00    +0.009 C 
ATOM      4  C   UNL     1       2.112   1.671  -1.139  0.00  0.00    +0.004 C 
ATOM      5  C   UNL     1       1.260   2.185   0.025  0.00  0.00    +0.111 C 
ATOM      6  N   UNL     1      -0.020   1.463   0.029  0.00  0.00    -0.297 N 
ATOM      7  C   UNL     1      -0.002  -0.006   0.037  0.00  0.00    +0.111 C 
ATOM      8  C   UNL     1      -1.188   2.136   0.020  0.00  0.00    +0.248 C 
ATOM      9  O   UNL     1      -2.237   1.531  -0.087  0.00  0.00    -0.270 OA
ATOM     10  C   UNL     1       3.500   2.314  -1.080  0.00  0.00    +0.009 C 
ENDROOT
BRANCH   8  11
ATOM     11  C   UNL     1      -1.193   3.605   0.139  0.00  0.00    +0.059 A 
ATOM     12  C   UNL     1      -0.541   4.226   1.208  0.00  0.00    +0.035 A 
ATOM     13  C   UNL     1      -0.550   5.601   1.313  0.00  0.00    +0.042 A 
ATOM     14  C   UNL     1      -1.202   6.372   0.362  0.00  0.00    +0.022 A 
ATOM     15  C   UNL     1      -1.849   5.773  -0.698  0.00  0.00    +0.025 A 
ATOM     16  C   UNL     1      -1.847   4.389  -0.824  0.00  0.00    +0.037 A 
ATOM     17 CL   UNL     1       0.259   6.370   2.642  0.00  0.00    -0.084 Cl
BRANCH  16  18
ATOM     18  N   UNL     1      -2.493   3.784  -1.895  0.00  0.00    -0.357 N 
ATOM     19  H   UNL     1      -3.005   4.401  -2.648  0.00  0.00    +0.142 HD
ATOM     20  H   UNL     1      -2.493   2.688  -1.989  0.00  0.00    +0.142 HD
ENDBRANCH  16  18
ENDBRANCH   8  11
TORSDOF 2
