REMARK  Name = ZINC11591670
REMARK  5 active torsions:
REMARK  status: ('A' for Active; 'I' for Inactive)
REMARK    1  A    between atoms: C_1  and  C_2
REMARK    2  A    between atoms: C_2  and  C_4
REMARK    3  A    between atoms: C_2  and  N_11
REMARK    4  A    between atoms: C_12  and  C_14
REMARK    5  A    between atoms: C_14  and  N_15
REMARK                            x       y       z     vdW  Elec       q    Type
REMARK                         _______ _______ _______ _____ _____    ______ ____
ROOT
ATOM      1  N   UNL     1       0.343  -0.513  -0.383  0.00  0.00    -0.215 N 
ATOM      2  C   UNL     1       1.142   0.570  -0.286  0.00  0.00    +0.252 C 
ATOM      3  O   UNL     1       2.339   0.584  -0.094  0.00  0.00    -0.272 OA
ATOM      4  C   UNL     1       0.231   1.762  -0.469  0.00  0.00    +0.144 C 
ATOM      5  C   UNL     1       0.646   2.564  -1.699  0.00  0.00    +0.081 C 
ATOM      6  C   UNL     1       1.910   3.362  -1.349  0.00  0.00    +0.232 C 
ATOM      7  O   UNL     1       1.584   4.295  -0.318  0.00  0.00    -0.492 OA
ATOM      8  C   UNL     1       0.920   3.837   0.774  0.00  0.00    +0.126 A 
ATOM      9  C   UNL     1       0.246   2.626   0.760  0.00  0.00    +0.027 A 
ATOM     10  C   UNL     1      -0.425   2.199   1.893  0.00  0.00    +0.010 A 
ATOM     11  C   UNL     1      -0.423   2.972   3.038  0.00  0.00    +0.001 A 
ATOM     12  C   UNL     1       0.252   4.178   3.057  0.00  0.00    +0.004 A 
ATOM     13  C   UNL     1       0.921   4.611   1.930  0.00  0.00    +0.046 A 
ATOM     14  N   UNL     1      -1.098   1.169  -0.666  0.00  0.00    -0.281 N 
ATOM     15  C   UNL     1      -0.932  -0.167  -0.599  0.00  0.00    +0.310 C 
ATOM     16  O   UNL     1      -1.839  -0.967  -0.722  0.00  0.00    -0.252 OA
ATOM     17  H   UNL     1      -1.929   1.644  -0.818  0.00  0.00    +0.152 HD
ENDROOT
BRANCH   1  18
ATOM     18  C   UNL     1       0.812  -1.896  -0.265  0.00  0.00    +0.213 C 
BRANCH  18  20
ATOM     19  N   UNL     1       1.663  -3.670  -1.763  0.00  0.00    -0.307 N 
ATOM     20  C   UNL     1       1.200  -2.412  -1.627  0.00  0.00    +0.231 C 
ATOM     21  O   UNL     1       1.094  -1.696  -2.600  0.00  0.00    -0.274 OA
ATOM     22  H   UNL     1       1.747  -4.243  -0.985  0.00  0.00    +0.149 HD
BRANCH  19  24
ATOM     23  C   UNL     1       3.499  -3.813  -3.372  0.00  0.00    +0.033 C 
ATOM     24  C   UNL     1       2.040  -4.173  -3.087  0.00  0.00    +0.102 C 
BRANCH  24  25
ATOM     25  C   UNL     1       1.875  -5.670  -3.122  0.00  0.00    -0.009 A 
ATOM     26  C   UNL     1       1.983  -6.405  -1.956  0.00  0.00    +0.007 A 
ATOM     27  C   UNL     1       1.833  -7.778  -1.987  0.00  0.00    +0.000 A 
ATOM     28  C   UNL     1       1.573  -8.418  -3.185  0.00  0.00    +0.001 A 
ATOM     29  C   UNL     1       1.465  -7.685  -4.351  0.00  0.00    +0.020 A 
ATOM     30  C   UNL     1       1.611  -6.309  -4.319  0.00  0.00    +0.046 A 
ATOM     31 CL   UNL     1       1.468  -5.387  -5.783  0.00  0.00    -0.083 Cl
ENDBRANCH  24  25
ENDBRANCH  19  24
ENDBRANCH  18  20
ENDBRANCH   1  18
TORSDOF 4
