REMARK  Name = ZINC54712967
REMARK  5 active torsions:
REMARK  status: ('A' for Active; 'I' for Inactive)
REMARK    1  A    between atoms: C_1  and  C_2
REMARK    2  A    between atoms: C_2  and  C_4
REMARK    3  A    between atoms: C_2  and  C_6
REMARK    4  A    between atoms: N_8  and  C_9
REMARK    5  A    between atoms: C_14  and  O_17
REMARK                            x       y       z     vdW  Elec       q    Type
REMARK                         _______ _______ _______ _____ _____    ______ ____
ROOT
ATOM      1  C   UNL     1      -1.412  -0.526   0.013  0.00  0.00    +0.217 C 
ATOM      2  O   UNL     1      -1.808  -1.223  -0.897  0.00  0.00    -0.275 OA
ATOM      3  N   UNL     1      -2.236  -0.217   1.033  0.00  0.00    -0.312 N 
ATOM      4  H   UNL     1      -1.920   0.341   1.761  0.00  0.00    +0.149 HD
ENDROOT
BRANCH   3   5
ATOM      5  C   UNL     1      -3.611  -0.724   1.044  0.00  0.00    +0.075 C 
ATOM      6  C   UNL     1      -3.631  -2.130   1.646  0.00  0.00    +0.022 C 
ATOM      7  C   UNL     1      -5.066  -2.660   1.657  0.00  0.00    +0.004 C 
ATOM      8  C   UNL     1      -5.946  -1.732   2.498  0.00  0.00    +0.031 C 
ATOM      9  C   UNL     1      -5.926  -0.326   1.895  0.00  0.00    +0.116 C 
ATOM     10  C   UNL     1      -4.490   0.204   1.884  0.00  0.00    +0.053 C 
BRANCH   9  11
ATOM     11  O   UNL     1      -6.426  -0.373   0.557  0.00  0.00    -0.392 OA
ATOM     12  H   UNL     1      -7.333  -0.700   0.488  0.00  0.00    +0.210 HD
ENDBRANCH   9  11
ENDBRANCH   3   5
BRANCH   1  14
ATOM     13  C   UNL     1      -0.019   1.526   0.010  0.00  0.00    +0.018 C 
ATOM     14  C   UNL     1       0.002  -0.004   0.002  0.00  0.00    +0.086 C 
BRANCH  14  15
ATOM     15  C   UNL     1       0.718  -0.497  -1.257  0.00  0.00    +0.121 C 
ATOM     16 CL   UNL     1       2.450   0.003  -1.198  0.00  0.00    -0.125 Cl
ENDBRANCH  14  15
ENDBRANCH   1  14
TORSDOF 4
