REMARK  Name = ZINC61882302
REMARK  9 active torsions:
REMARK  status: ('A' for Active; 'I' for Inactive)
REMARK    1  A    between atoms: C_1  and  C_2
REMARK    2  A    between atoms: C_2  and  C_3
REMARK    3  A    between atoms: C_3  and  C_5
REMARK    4  A    between atoms: C_3  and  C_6
REMARK    5  A    between atoms: C_6  and  C_8
REMARK    6  A    between atoms: C_6  and  N_9
REMARK    7  A    between atoms: N_9  and  S_10
REMARK    8  A    between atoms: S_10  and  C_13
REMARK    9  A    between atoms: C_17  and  N_20
REMARK                            x       y       z     vdW  Elec       q    Type
REMARK                         _______ _______ _______ _____ _____    ______ ____
ROOT
ATOM      1  S   UNL     1       0.557  -3.758   3.383  0.00  0.00    +0.060 S 
ATOM      2  O   UNL     1       1.199  -3.980   4.631  0.00  0.00    -0.153 OA
ATOM      3  O   UNL     1      -0.820  -3.421   3.284  0.00  0.00    -0.153 OA
ENDROOT
BRANCH   1   4
ATOM      4  C   UNL     1       0.786  -5.223   2.431  0.00  0.00    +0.122 A 
ATOM      5  C   UNL     1      -0.296  -5.821   1.812  0.00  0.00    +0.049 A 
ATOM      6  C   UNL     1      -0.120  -6.971   1.063  0.00  0.00    +0.045 A 
ATOM      7  C   UNL     1       1.140  -7.526   0.932  0.00  0.00    +0.044 A 
ATOM      8  C   UNL     1       2.228  -6.928   1.552  0.00  0.00    +0.042 A 
ATOM      9  C   UNL     1       2.049  -5.769   2.299  0.00  0.00    +0.065 A 
ATOM     10 BR   UNL     1       3.529  -4.946   3.139  0.00  0.00    -0.046 Br
ATOM     11 CL   UNL     1      -1.482  -7.719   0.289  0.00  0.00    -0.083 Cl
BRANCH   8  12
ATOM     12  N   UNL     1       3.503  -7.486   1.421  0.00  0.00    -0.357 N 
ATOM     13  H   UNL     1       3.627  -8.292   0.897  0.00  0.00    +0.142 HD
ATOM     14  H   UNL     1       4.262  -7.067   1.855  0.00  0.00    +0.142 HD
ENDBRANCH   8  12
ENDBRANCH   1   4
BRANCH   1  15
ATOM     15  N   UNL     1       1.396  -2.547   2.627  0.00  0.00    -0.187 NA
ATOM     16  H   UNL     1       2.146  -2.125   3.074  0.00  0.00    +0.148 HD
BRANCH  15  17
ATOM     17  C   UNL     1       1.005  -2.112   1.284  0.00  0.00    +0.076 C 
ATOM     18  C   UNL     1       2.213  -2.195   0.349  0.00  0.00    +0.026 C 
BRANCH  17  19
ATOM     19  C   UNL     1       0.502  -0.668   1.342  0.00  0.00    +0.004 C 
ATOM     20  C   UNL     1       1.652   0.256   1.747  0.00  0.00    +0.009 C 
BRANCH  19  22
ATOM     21  C   UNL     1      -0.638   1.143   0.051  0.00  0.00    +0.004 C 
ATOM     22  C   UNL     1      -0.022  -0.255  -0.035  0.00  0.00    +0.001 C 
ENDBRANCH  19  22
ENDBRANCH  17  19
ENDBRANCH  15  17
ENDBRANCH   1  15
TORSDOF 6
