REMARK  Name = ZINC43436834
REMARK  8 active torsions:
REMARK  status: ('A' for Active; 'I' for Inactive)
REMARK    1  A    between atoms: C_1  and  C_2
REMARK    2  A    between atoms: C_2  and  N_3
REMARK    3  A    between atoms: C_4  and  C_6
REMARK    4  A    between atoms: C_6  and  C_8
REMARK    5  A    between atoms: C_6  and  N_9
REMARK    6  A    between atoms: N_12  and  C_13
REMARK    7  A    between atoms: C_16  and  S_19
REMARK    8  A    between atoms: S_19  and  N_22
REMARK                            x       y       z     vdW  Elec       q    Type
REMARK                         _______ _______ _______ _____ _____    ______ ____
ROOT
ATOM      1  C   UNL     1       1.865  -6.404  -5.076  0.00  0.00    +0.035 A 
ATOM      2  C   UNL     1       2.047  -5.654  -6.231  0.00  0.00    +0.025 A 
ATOM      3  C   UNL     1       2.239  -6.290  -7.442  0.00  0.00    +0.030 A 
ATOM      4  C   UNL     1       2.251  -7.671  -7.506  0.00  0.00    +0.106 A 
ATOM      5  C   UNL     1       2.070  -8.421  -6.358  0.00  0.00    +0.030 A 
ATOM      6  C   UNL     1       1.882  -7.791  -5.143  0.00  0.00    +0.025 A 
ENDROOT
BRANCH   1  10
ATOM      7  N   UNL     1       2.070  -5.637  -1.551  0.00  0.00    -0.288 N 
ATOM      8  C   UNL     1       2.176  -6.300  -2.720  0.00  0.00    +0.304 C 
ATOM      9  O   UNL     1       2.729  -7.383  -2.757  0.00  0.00    -0.252 OA
ATOM     10  N   UNL     1       1.670  -5.763  -3.848  0.00  0.00    -0.269 N 
ATOM     11  H   UNL     1       1.629  -4.774  -1.522  0.00  0.00    +0.151 HD
ATOM     12  H   UNL     1       1.171  -4.933  -3.808  0.00  0.00    +0.156 HD
BRANCH   7  13
ATOM     13  C   UNL     1       2.620  -6.221  -0.325  0.00  0.00    +0.157 C 
ATOM     14  C   UNL     1       1.594  -7.175   0.290  0.00  0.00    +0.038 C 
BRANCH  13  16
ATOM     15  N   UNL     1       3.456  -5.425   1.862  0.00  0.00    -0.314 N 
ATOM     16  C   UNL     1       2.937  -5.122   0.656  0.00  0.00    +0.233 C 
ATOM     17  O   UNL     1       2.724  -3.965   0.360  0.00  0.00    -0.274 OA
ATOM     18  H   UNL     1       3.626  -6.350   2.099  0.00  0.00    +0.149 HD
BRANCH  15  20
ATOM     19  C   UNL     1       4.339  -4.966   4.096  0.00  0.00    +0.024 C 
ATOM     20  C   UNL     1       3.764  -4.356   2.816  0.00  0.00    +0.101 C 
ENDBRANCH  15  20
ENDBRANCH  13  16
ENDBRANCH   7  13
ENDBRANCH   1  10
BRANCH   4  21
ATOM     21  S   UNL     1       2.497  -8.478  -9.053  0.00  0.00    +0.061 S 
ATOM     22  O   UNL     1       1.922  -9.772  -8.932  0.00  0.00    -0.153 OA
ATOM     23  O   UNL     1       2.098  -7.558 -10.059  0.00  0.00    -0.153 OA
BRANCH  21  24
ATOM     24  N   UNL     1       4.128  -8.701  -9.235  0.00  0.00    -0.177 NA
ATOM     25  C   UNL     1       4.901  -7.663  -9.880  0.00  0.00    +0.109 C 
ATOM     26  C   UNL     1       4.932  -7.913 -11.408  0.00  0.00    +0.017 C 
ATOM     27  C   UNL     1       5.776  -9.077 -11.718  0.00  0.00    +0.001 C 
ATOM     28  C   UNL     1       5.273 -10.393 -11.131  0.00  0.00    +0.001 C 
ATOM     29  C   UNL     1       5.768 -10.529  -9.713  0.00  0.00    +0.017 C 
ATOM     30  C   UNL     1       4.733  -9.947  -8.727  0.00  0.00    +0.109 C 
ENDBRANCH  21  24
ENDBRANCH   4  21
TORSDOF 6
