REMARK  Name = ZINC05026024
REMARK  3 active torsions:
REMARK  status: ('A' for Active; 'I' for Inactive)
REMARK    1  A    between atoms: C_1  and  C_2
REMARK    2  A    between atoms: C_2  and  C_24
REMARK    3  A    between atoms: C_12  and  C_15
REMARK                            x       y       z     vdW  Elec       q    Type
REMARK                         _______ _______ _______ _____ _____    ______ ____
ROOT
ATOM      1  C   UNL     1      -0.019   1.526   0.010  0.00  0.00    +0.041 C 
ATOM      2  C   UNL     1       0.002  -0.004   0.002  0.00  0.00    +0.068 C 
ATOM      3  C   UNL     1      -1.437  -0.532  -0.004  0.00  0.00    +0.071 C 
ATOM      4  C   UNL     1      -2.050  -0.240   1.359  0.00  0.00    -0.018 A 
ATOM      5  C   UNL     1      -1.250   0.053   2.411  0.00  0.00    +0.021 A 
ATOM      6  S   UNL     1      -2.360   0.318   3.763  0.00  0.00    -0.075 S 
ATOM      7  C   UNL     1      -3.805   0.060   2.988  0.00  0.00    +0.080 A 
ATOM      8  C   UNL     1      -3.469  -0.244   1.660  0.00  0.00    +0.068 A 
ATOM      9  C   UNL     1      -4.575  -0.540   0.721  0.00  0.00    +0.248 C 
ATOM     10  O   UNL     1      -4.361  -0.985  -0.391  0.00  0.00    -0.270 OA
ATOM     11  N   UNL     1      -5.832  -0.296   1.150  0.00  0.00    -0.289 N 
ATOM     12  C   UNL     1      -6.136   0.380   2.406  0.00  0.00    +0.190 C 
ATOM     13  N   UNL     1      -5.106   0.109   3.425  0.00  0.00    -0.316 N 
ATOM     14  C   UNL     1       0.244   0.125   2.386  0.00  0.00    +0.203 C 
ATOM     15  O   UNL     1       0.694  -0.475   1.161  0.00  0.00    -0.368 OA
ATOM     16  C   UNL     1       0.725  -0.495  -1.254  0.00  0.00    +0.041 C 
ATOM     17  H   UNL     1      -6.572  -0.585   0.593  0.00  0.00    +0.151 HD
ATOM     18  H   UNL     1      -5.336  -0.029   4.357  0.00  0.00    +0.149 HD
ENDROOT
BRANCH  12  19
ATOM     19  C   UNL     1      -6.208   1.866   2.163  0.00  0.00    -0.009 A 
ATOM     20  C   UNL     1      -5.862   2.749   3.168  0.00  0.00    +0.008 A 
ATOM     21  C   UNL     1      -5.927   4.111   2.945  0.00  0.00    +0.015 A 
ATOM     22  C   UNL     1      -6.338   4.591   1.715  0.00  0.00    +0.018 A 
ATOM     23  C   UNL     1      -6.684   3.707   0.708  0.00  0.00    +0.015 A 
ATOM     24  C   UNL     1      -6.614   2.345   0.931  0.00  0.00    +0.008 A 
ATOM     25 BR   UNL     1      -6.428   6.455   1.409  0.00  0.00    -0.050 Br
ENDBRANCH  12  19
TORSDOF 1
