REMARK  Name = ZINC36280580
REMARK  4 active torsions:
REMARK  status: ('A' for Active; 'I' for Inactive)
REMARK    1  A    between atoms: N_8  and  N_9
REMARK    2  A    between atoms: C_10  and  C_12
REMARK    3  A    between atoms: C_14  and  N_20
REMARK    4  A    between atoms: C_22  and  O_24
REMARK                            x       y       z     vdW  Elec       q    Type
REMARK                         _______ _______ _______ _____ _____    ______ ____
ROOT
ATOM      1  N   UNL     1      -3.134  -1.904   0.019  0.00  0.00    -0.201 N 
ATOM      2  C   UNL     1      -4.471  -1.732   0.032  0.00  0.00    +0.283 C 
ATOM      3  O   UNL     1      -4.939  -0.610   0.043  0.00  0.00    -0.267 OA
ATOM      4  H   UNL     1      -2.761  -2.799   0.011  0.00  0.00    +0.178 HD
ENDROOT
BRANCH   1  12
ATOM      5  C   UNL     1      -0.017   1.383   0.010  0.00  0.00    +0.050 A 
ATOM      6  C   UNL     1       1.176   2.085   0.002  0.00  0.00    +0.125 A 
ATOM      7  C   UNL     1       2.385   1.406  -0.014  0.00  0.00    +0.055 A 
ATOM      8  C   UNL     1       2.419   0.027  -0.021  0.00  0.00    +0.047 A 
ATOM      9  C   UNL     1       1.226  -0.703  -0.013  0.00  0.00    +0.091 A 
ATOM     10  C   UNL     1       0.002  -0.004   0.002  0.00  0.00    +0.036 A 
ATOM     11  C   UNL     1      -1.050  -1.047   0.005  0.00  0.00    +0.152 C 
ATOM     12  N   UNL     1      -2.352  -0.879   0.018  0.00  0.00    -0.174 NA
ATOM     13  C   UNL     1      -0.300  -2.318  -0.009  0.00  0.00    +0.241 C 
ATOM     14  N   UNL     1       0.978  -2.040  -0.018  0.00  0.00    -0.210 NA
ATOM     15 BR   UNL     1       4.080  -0.877  -0.043  0.00  0.00    -0.048 Br
ATOM     16  F   UNL     1       1.162   3.436   0.009  0.00  0.00    -0.205 F 
BRANCH  13  17
ATOM     17  O   UNL     1      -0.842  -3.559  -0.011  0.00  0.00    -0.491 OA
ATOM     18  H   UNL     1      -0.190  -4.273  -0.021  0.00  0.00    +0.294 HD
ENDBRANCH  13  17
ENDBRANCH   1  12
BRANCH   2  19
ATOM     19  C   UNL     1      -5.368  -2.908   0.033  0.00  0.00    +0.149 A 
ATOM     20  C   UNL     1      -6.748  -2.722   0.041  0.00  0.00    +0.094 A 
ATOM     21  C   UNL     1      -7.581  -3.842   0.042  0.00  0.00    +0.067 A 
ATOM     22  C   UNL     1      -6.992  -5.105   0.035  0.00  0.00    +0.100 A 
ATOM     23  C   UNL     1      -5.609  -5.207   0.028  0.00  0.00    +0.150 A 
ATOM     24  N   UNL     1      -4.850  -4.132   0.022  0.00  0.00    -0.228 NA
ATOM     25 CL   UNL     1      -4.869  -6.777   0.020  0.00  0.00    -0.060 Cl
ATOM     26 CL   UNL     1      -7.978  -6.533   0.037  0.00  0.00    -0.078 Cl
ATOM     27 CL   UNL     1      -7.423  -1.122   0.050  0.00  0.00    -0.079 Cl
BRANCH  21  28
ATOM     28  N   UNL     1      -8.967  -3.701   0.050  0.00  0.00    -0.356 N 
ATOM     29  H   UNL     1      -9.365  -2.816   0.055  0.00  0.00    +0.142 HD
ATOM     30  H   UNL     1      -9.535  -4.487   0.051  0.00  0.00    +0.142 HD
ENDBRANCH  21  28
ENDBRANCH   2  19
TORSDOF 4
