REMARK  Name = ZINC35327149
REMARK  9 active torsions:
REMARK  status: ('A' for Active; 'I' for Inactive)
REMARK    1  A    between atoms: C_1  and  C_2
REMARK    2  A    between atoms: C_2  and  O_28
REMARK    3  A    between atoms: C_4  and  C_22
REMARK    4  A    between atoms: C_6  and  C_15
REMARK    5  A    between atoms: C_15  and  O_17
REMARK    6  A    between atoms: O_17  and  C_18
REMARK    7  A    between atoms: C_18  and  C_19
REMARK    8  A    between atoms: C_18  and  C_20
REMARK    9  A    between atoms: C_18  and  C_21
REMARK                            x       y       z     vdW  Elec       q    Type
REMARK                         _______ _______ _______ _____ _____    ______ ____
ROOT
ATOM      1  C   UNL     1      -0.165   1.407   0.959  0.00  0.00    +0.041 C 
ATOM      2  C   UNL     1       0.108  -0.059   0.614  0.00  0.00    +0.067 C 
ATOM      3  C   UNL     1      -1.220  -0.799   0.447  0.00  0.00    +0.043 C 
ATOM      4  C   UNL     1      -0.949  -2.263   0.093  0.00  0.00    +0.039 C 
ATOM      5  C   UNL     1      -0.146  -2.919   1.219  0.00  0.00    +0.145 C 
ATOM      6  C   UNL     1       1.172  -2.173   1.406  0.00  0.00    +0.116 C 
ATOM      7  C   UNL     1       0.915  -0.707   1.741  0.00  0.00    +0.078 C 
ATOM      8  N   UNL     1       1.974  -2.807   2.459  0.00  0.00    -0.306 N 
ATOM      9  C   UNL     1       3.118  -3.218   1.879  0.00  0.00    +0.146 C 
ATOM     10  S   UNL     1       4.382  -4.020   2.709  0.00  0.00    -0.018 S 
ATOM     11  N   UNL     1       3.144  -2.922   0.573  0.00  0.00    -0.260 N 
ATOM     12  N   UNL     1       1.998  -2.283   0.191  0.00  0.00    -0.217 NA
ATOM     13  H   UNL     1       1.728  -2.909   3.392  0.00  0.00    +0.150 HD
ATOM     14  H   UNL     1       3.880  -3.134  -0.024  0.00  0.00    +0.168 HD
ATOM     15  H   UNL     1       1.517  -2.801  -0.528  0.00  0.00    +0.147 HD
ENDROOT
BRANCH   4  16
ATOM     16  C   UNL     1      -2.259  -2.989  -0.079  0.00  0.00    -0.043 A 
ATOM     17  C   UNL     1      -3.259  -2.844   0.864  0.00  0.00    +0.004 A 
ATOM     18  C   UNL     1      -4.460  -3.510   0.707  0.00  0.00    +0.000 A 
ATOM     19  C   UNL     1      -4.661  -4.321  -0.395  0.00  0.00    +0.000 A 
ATOM     20  C   UNL     1      -3.661  -4.465  -1.339  0.00  0.00    +0.000 A 
ATOM     21  C   UNL     1      -2.462  -3.796  -1.183  0.00  0.00    +0.004 A 
ENDBRANCH   4  16
BRANCH   5  22
ATOM     22  C   UNL     1      -0.939  -2.865   2.499  0.00  0.00    +0.315 C 
ATOM     23  O   UNL     1      -1.201  -1.798   3.003  0.00  0.00    -0.250 OA
BRANCH  22  24
ATOM     24  O   UNL     1      -1.355  -4.002   3.080  0.00  0.00    -0.459 OA
BRANCH  24  25
ATOM     25  C   UNL     1      -2.001  -3.883   4.349  0.00  0.00    +0.105 C 
ATOM     26  C   UNL     1      -3.291  -3.076   4.191  0.00  0.00    +0.055 C 
ATOM     27  C   UNL     1      -2.333  -5.277   4.884  0.00  0.00    +0.055 C 
ATOM     28  C   UNL     1      -1.069  -3.169   5.331  0.00  0.00    +0.055 C 
ENDBRANCH  24  25
ENDBRANCH  22  24
ENDBRANCH   5  22
BRANCH   2  29
ATOM     29  O   UNL     1       0.850  -0.131  -0.606  0.00  0.00    -0.389 OA
ATOM     30  H   UNL     1       0.398   0.262  -1.365  0.00  0.00    +0.210 HD
ENDBRANCH   2  29
TORSDOF 5
