REMARK  Name = ZINC00207932
REMARK  3 active torsions:
REMARK  status: ('A' for Active; 'I' for Inactive)
REMARK    1  A    between atoms: C_6  and  C_7
REMARK    2  A    between atoms: C_7  and  C_9
REMARK    3  A    between atoms: C_10  and  N_21
REMARK                            x       y       z     vdW  Elec       q    Type
REMARK                         _______ _______ _______ _____ _____    ______ ____
ROOT
ATOM      1  C   UNL     1      -1.248  -2.174  -0.104  0.00  0.00    +0.083 A 
ATOM      2  C   UNL     1      -2.320  -3.038  -0.215  0.00  0.00    +0.052 A 
ATOM      3  C   UNL     1      -2.046  -4.463  -0.321  0.00  0.00    +0.029 A 
ATOM      4  C   UNL     1      -2.965  -5.534  -0.443  0.00  0.00    +0.017 A 
ATOM      5  C   UNL     1      -2.489  -6.824  -0.530  0.00  0.00    -0.025 A 
ATOM      6  C   UNL     1      -1.123  -7.067  -0.497  0.00  0.00    +0.046 A 
ATOM      7  N   UNL     1      -0.271  -6.063  -0.384  0.00  0.00    -0.244 NA
ATOM      8  C   UNL     1      -0.678  -4.816  -0.298  0.00  0.00    +0.111 A 
ATOM      9  S   UNL     1       0.164  -3.260  -0.147  0.00  0.00    -0.064 S 
ATOM     10  C   UNL     1      -0.867  -8.556  -0.608  0.00  0.00    +0.056 C 
ATOM     11  C   UNL     1      -2.217  -9.224  -0.270  0.00  0.00    +0.011 C 
ATOM     12  C   UNL     1      -3.236  -8.134  -0.665  0.00  0.00    +0.037 C 
ENDROOT
BRANCH   2  13
ATOM     13  N   UNL     1      -3.620  -2.561  -0.225  0.00  0.00    -0.356 N 
ATOM     14  H   UNL     1      -3.788  -1.608  -0.154  0.00  0.00    +0.142 HD
ATOM     15  H   UNL     1      -4.363  -3.180  -0.304  0.00  0.00    +0.142 HD
ENDBRANCH   2  13
BRANCH   1  16
ATOM     16  C   UNL     1      -1.267  -0.764   0.011  0.00  0.00    +0.202 C 
ATOM     17  O   UNL     1      -2.317  -0.157  -0.107  0.00  0.00    -0.286 OA
BRANCH  16  23
ATOM     18  C   UNL     1       1.048  -0.657   0.926  0.00  0.00    +0.013 A 
ATOM     19  C   UNL     1       2.216   0.035   1.167  0.00  0.00    +0.021 A 
ATOM     20  C   UNL     1       2.338   1.355   0.763  0.00  0.00    +0.041 A 
ATOM     21  C   UNL     1       1.290   1.986   0.115  0.00  0.00    +0.021 A 
ATOM     22  C   UNL     1       0.117   1.304  -0.132  0.00  0.00    +0.013 A 
ATOM     23  C   UNL     1      -0.012  -0.026   0.273  0.00  0.00    +0.023 A 
ATOM     24 CL   UNL     1       3.811   2.221   1.072  0.00  0.00    -0.084 Cl
ENDBRANCH  16  23
ENDBRANCH   1  16
TORSDOF 3
