REMARK  Name = ZINC67103351
REMARK  6 active torsions:
REMARK  status: ('A' for Active; 'I' for Inactive)
REMARK    1  A    between atoms: C_1  and  C_2
REMARK    2  A    between atoms: C_4  and  C_8
REMARK    3  A    between atoms: C_5  and  C_7
REMARK    4  A    between atoms: N_18  and  N_19
REMARK    5  A    between atoms: C_20  and  C_22
REMARK    6  A    between atoms: C_22  and  C_23
REMARK                            x       y       z     vdW  Elec       q    Type
REMARK                         _______ _______ _______ _____ _____    ______ ____
ROOT
ATOM      1  C   UNL     1      -1.365  -3.419  -0.005  0.00  0.00    +0.250 C 
ATOM      2  O   UNL     1      -0.808  -4.495  -0.112  0.00  0.00    -0.270 OA
ATOM      3  N   UNL     1      -2.707  -3.362   0.102  0.00  0.00    -0.294 N 
ATOM      4  C   UNL     1      -3.403  -2.068   0.108  0.00  0.00    +0.127 C 
ATOM      5  C   UNL     1      -4.458  -2.073  -1.004  0.00  0.00    +0.128 C 
ATOM      6  N   UNL     1      -5.253  -3.304  -0.893  0.00  0.00    -0.281 N 
ATOM      7  C   UNL     1      -4.557  -4.599  -0.900  0.00  0.00    +0.128 C 
ATOM      8  C   UNL     1      -3.502  -4.594   0.207  0.00  0.00    +0.127 C 
ATOM      9  C   UNL     1      -6.595  -3.248  -0.786  0.00  0.00    +0.319 C 
ATOM     10  O   UNL     1      -7.167  -2.178  -0.874  0.00  0.00    -0.251 OA
ATOM     11  N   UNL     1      -7.303  -4.376  -0.582  0.00  0.00    -0.218 N 
ATOM     12  H   UNL     1      -6.856  -5.237  -0.586  0.00  0.00    +0.174 HD
ENDROOT
BRANCH   1  16
ATOM     13  C   UNL     1       0.316   1.278   1.061  0.00  0.00    +0.086 C 
ATOM     14  C   UNL     1       0.154  -0.107   0.490  0.00  0.00    +0.103 A 
ATOM     15  C   UNL     1      -0.822  -0.971   0.808  0.00  0.00    +0.057 A 
ATOM     16  C   UNL     1      -0.572  -2.177   0.007  0.00  0.00    +0.078 A 
ATOM     17  C   UNL     1       0.549  -1.907  -0.722  0.00  0.00    +0.114 A 
ATOM     18  O   UNL     1       0.959  -0.671  -0.423  0.00  0.00    -0.464 OA
ATOM     19  C   UNL     1       1.209  -2.842  -1.703  0.00  0.00    +0.087 C 
ENDBRANCH   1  16
BRANCH  11  20
ATOM     20  N   UNL     1      -8.685  -4.306  -0.365  0.00  0.00    -0.233 N 
ATOM     21  C   UNL     1      -9.377  -5.422  -0.061  0.00  0.00    +0.229 C 
ATOM     22  O   UNL     1      -8.803  -6.487   0.025  0.00  0.00    -0.274 OA
ATOM     23  H   UNL     1      -9.145  -3.454  -0.434  0.00  0.00    +0.173 HD
BRANCH  21  24
ATOM     24  C   UNL     1     -10.864  -5.347   0.172  0.00  0.00    +0.101 C 
BRANCH  24  25
ATOM     25  C   UNL     1     -11.400  -6.742   0.499  0.00  0.00    -0.002 C 
ATOM     26  C   UNL     1     -11.227  -7.652  -0.719  0.00  0.00    +0.004 C 
ATOM     27  C   UNL     1     -11.764  -9.048  -0.393  0.00  0.00    +0.000 C 
ATOM     28  C   UNL     1     -13.248  -8.952  -0.034  0.00  0.00    +0.000 C 
ATOM     29  C   UNL     1     -13.421  -8.042   1.184  0.00  0.00    +0.000 C 
ATOM     30  C   UNL     1     -12.884  -6.647   0.858  0.00  0.00    +0.004 C 
ENDBRANCH  24  25
ENDBRANCH  21  24
ENDBRANCH  11  20
TORSDOF 4
