REMARK  Name = ZINC35329214
REMARK  6 active torsions:
REMARK  status: ('A' for Active; 'I' for Inactive)
REMARK    1  A    between atoms: C_1  and  C_2
REMARK    2  A    between atoms: N_5  and  C_11
REMARK    3  A    between atoms: C_7  and  C_10
REMARK    4  A    between atoms: C_14  and  S_18
REMARK    5  A    between atoms: C_16  and  N_17
REMARK    6  A    between atoms: S_18  and  C_21
REMARK                            x       y       z     vdW  Elec       q    Type
REMARK                         _______ _______ _______ _____ _____    ______ ____
ROOT
ATOM      1  C   UNL     1      -2.096  -2.850  -0.659  0.00  0.00    +0.051 A 
ATOM      2  C   UNL     1      -1.492  -3.339  -1.808  0.00  0.00    +0.027 A 
ATOM      3  C   UNL     1      -2.192  -4.184  -2.650  0.00  0.00    +0.029 A 
ATOM      4  C   UNL     1      -3.493  -4.543  -2.350  0.00  0.00    +0.090 A 
ATOM      5  C   UNL     1      -4.102  -4.061  -1.207  0.00  0.00    +0.051 A 
ATOM      6  C   UNL     1      -3.406  -3.217  -0.354  0.00  0.00    +0.048 A 
ENDROOT
BRANCH   1  10
ATOM      7  C   UNL     1      -0.019   1.526   0.010  0.00  0.00    +0.039 C 
ATOM      8  C   UNL     1       0.002  -0.004   0.002  0.00  0.00    +0.133 C 
ATOM      9  C   UNL     1      -1.436  -0.536   0.015  0.00  0.00    +0.136 C 
ATOM     10  N   UNL     1      -1.389  -1.995   0.196  0.00  0.00    -0.324 N 
ATOM     11  C   UNL     1      -0.578  -2.530   1.302  0.00  0.00    +0.136 C 
ATOM     12  C   UNL     1       0.818  -1.901   1.226  0.00  0.00    +0.133 C 
ATOM     13  O   UNL     1       0.691  -0.479   1.161  0.00  0.00    -0.371 OA
ATOM     14  C   UNL     1       1.621  -2.288   2.469  0.00  0.00    +0.039 C 
ENDBRANCH   1  10
BRANCH   4  15
ATOM     15  S   UNL     1      -4.377  -5.619  -3.429  0.00  0.00    -0.006 S 
ATOM     16  O   UNL     1      -5.746  -5.301  -3.217  0.00  0.00    -0.170 OA
ATOM     17  O   UNL     1      -3.778  -5.428  -4.704  0.00  0.00    -0.170 OA
ATOM     18  C   UNL     1      -4.021  -7.289  -2.817  0.00  0.00    +0.200 C 
ENDBRANCH   4  15
BRANCH   6  19
ATOM     19  N   UNL     1      -4.019  -2.732   0.808  0.00  0.00    -0.356 N 
ATOM     20  H   UNL     1      -3.533  -2.139   1.401  0.00  0.00    +0.142 HD
ATOM     21  H   UNL     1      -4.931  -2.988   1.018  0.00  0.00    +0.142 HD
ENDBRANCH   6  19
TORSDOF 3
