REMARK  Name = ZINC61091523
REMARK  6 active torsions:
REMARK  status: ('A' for Active; 'I' for Inactive)
REMARK    1  A    between atoms: C_1  and  C_2
REMARK    2  A    between atoms: C_7  and  N_10
REMARK    3  A    between atoms: N_10  and  C_11
REMARK    4  A    between atoms: C_12  and  C_14
REMARK    5  A    between atoms: C_14  and  N_15
REMARK    6  A    between atoms: C_17  and  N_22
REMARK                            x       y       z     vdW  Elec       q    Type
REMARK                         _______ _______ _______ _____ _____    ______ ____
ROOT
ATOM      1  N   UNL     1       1.448  -2.513   0.028  0.00  0.00    -0.300 N 
ATOM      2  C   UNL     1       0.871  -2.252  -1.293  0.00  0.00    +0.132 C 
ATOM      3  C   UNL     1       2.620  -3.172   0.133  0.00  0.00    +0.235 C 
ATOM      4  O   UNL     1       3.098  -3.388   1.227  0.00  0.00    -0.274 OA
ENDROOT
BRANCH   1  10
ATOM      5  C   UNL     1       2.916   1.050   1.929  0.00  0.00    +0.007 C 
ATOM      6  C   UNL     1       2.009   0.100   1.145  0.00  0.00    -0.012 C 
ATOM      7  C   UNL     1       0.725   0.831   0.748  0.00  0.00    +0.003 C 
ATOM      8  C   UNL     1      -0.182  -0.120  -0.036  0.00  0.00    +0.002 C 
ATOM      9  C   UNL     1      -0.531  -1.327   0.837  0.00  0.00    +0.022 C 
ATOM     10  C   UNL     1       0.753  -2.058   1.234  0.00  0.00    +0.076 C 
ATOM     11  C   UNL     1       1.659  -1.107   2.018  0.00  0.00    +0.025 C 
ENDBRANCH   1  10
BRANCH   3  12
ATOM     12  C   UNL     1       3.336  -3.639  -1.108  0.00  0.00    +0.220 C 
BRANCH  12  13
ATOM     13  N   UNL     1       4.575  -4.323  -0.728  0.00  0.00    -0.305 N 
ATOM     14  C   UNL     1       5.725  -3.607  -0.600  0.00  0.00    +0.112 A 
ATOM     15  C   UNL     1       6.885  -4.221  -0.249  0.00  0.00    +0.041 A 
ATOM     16  C   UNL     1       6.901  -5.607  -0.016  0.00  0.00    +0.029 A 
ATOM     17  C   UNL     1       5.744  -6.318  -0.146  0.00  0.00    +0.072 A 
ATOM     18  C   UNL     1       4.561  -5.650  -0.505  0.00  0.00    +0.252 A 
ATOM     19  O   UNL     1       3.519  -6.276  -0.619  0.00  0.00    -0.268 OA
BRANCH  15  20
ATOM     20  N   UNL     1       8.066  -3.473  -0.121  0.00  0.00    -0.357 N 
ATOM     21  H   UNL     1       8.054  -2.516  -0.283  0.00  0.00    +0.142 HD
ATOM     22  H   UNL     1       8.893  -3.912   0.130  0.00  0.00    +0.142 HD
ENDBRANCH  15  20
ENDBRANCH  12  13
ENDBRANCH   3  12
TORSDOF 4
