REMARK  Name = ZINC25596931
REMARK  5 active torsions:
REMARK  status: ('A' for Active; 'I' for Inactive)
REMARK    1  A    between atoms: C_9  and  C_12
REMARK    2  A    between atoms: N_14  and  N_15
REMARK    3  A    between atoms: C_16  and  C_18
REMARK    4  A    between atoms: C_22  and  C_27
REMARK    5  A    between atoms: C_27  and  C_28
REMARK                            x       y       z     vdW  Elec       q    Type
REMARK                         _______ _______ _______ _____ _____    ______ ____
ROOT
ATOM      1  N   UNL     1      -3.914  -3.225   3.333  0.00  0.00    -0.233 N 
ATOM      2  C   UNL     1      -2.850  -2.918   2.565  0.00  0.00    +0.250 C 
ATOM      3  O   UNL     1      -2.965  -2.881   1.358  0.00  0.00    -0.272 OA
ATOM      4  H   UNL     1      -3.810  -3.258   4.428  0.00  0.00    +0.173 HD
ENDROOT
BRANCH   2   5
ATOM      5  C   UNL     1      -1.519  -2.621   3.205  0.00  0.00    +0.170 C 
ATOM      6  C   UNL     1      -1.527  -1.180   3.716  0.00  0.00    +0.101 C 
ATOM      7  S   UNL     1      -1.529  -0.067   2.275  0.00  0.00    -0.145 S 
ATOM      8  C   UNL     1       0.023  -0.522   1.442  0.00  0.00    +0.136 C 
ATOM      9  C   UNL     1       0.152  -2.018   1.436  0.00  0.00    +0.227 C 
ATOM     10  O   UNL     1       0.904  -2.500   0.616  0.00  0.00    -0.275 OA
ATOM     11  N   UNL     1      -0.473  -2.858   2.236  0.00  0.00    -0.302 N 
ATOM     12  H   UNL     1      -0.085  -3.876   2.084  0.00  0.00    +0.150 HD
BRANCH   8  13
ATOM     13  C   UNL     1       0.002  -0.004   0.002  0.00  0.00    +0.058 C 
BRANCH  13  14
ATOM     14  C   UNL     1      -0.018   1.503   0.010  0.00  0.00    -0.046 A 
ATOM     15  C   UNL     1      -1.225   2.177   0.020  0.00  0.00    +0.006 A 
ATOM     16  C   UNL     1      -1.245   3.559   0.033  0.00  0.00    +0.038 A 
ATOM     17  C   UNL     1      -0.056   4.268   0.026  0.00  0.00    +0.123 A 
ATOM     18  C   UNL     1       1.152   3.591   0.011  0.00  0.00    +0.038 A 
ATOM     19  C   UNL     1       1.170   2.210   0.003  0.00  0.00    +0.006 A 
ATOM     20  F   UNL     1      -0.074   5.619   0.033  0.00  0.00    -0.205 F 
ENDBRANCH  13  14
ENDBRANCH   8  13
ENDBRANCH   2   5
BRANCH   1  23
ATOM     21  C   UNL     1      -6.216  -3.808   3.507  0.00  0.00    +0.273 C 
ATOM     22  O   UNL     1      -6.101  -3.845   4.714  0.00  0.00    -0.270 OA
ATOM     23  N   UNL     1      -5.152  -3.501   2.738  0.00  0.00    -0.231 N 
ATOM     24  H   UNL     1      -5.256  -3.467   1.644  0.00  0.00    +0.173 HD
BRANCH  21  33
ATOM     25  C   UNL     1     -12.478  -4.566   2.803  0.00  0.00    +0.004 A 
ATOM     26  C   UNL     1     -12.048  -5.239   3.931  0.00  0.00    +0.004 A 
ATOM     27  C   UNL     1     -10.712  -5.216   4.285  0.00  0.00    +0.049 A 
ATOM     28  C   UNL     1      -9.800  -4.517   3.509  0.00  0.00    +0.163 A 
ATOM     29  C   UNL     1     -10.232  -3.843   2.373  0.00  0.00    +0.162 A 
ATOM     30  C   UNL     1     -11.574  -3.869   2.024  0.00  0.00    +0.049 A 
ATOM     31  O   UNL     1      -9.352  -3.157   1.593  0.00  0.00    -0.484 OA
ATOM     32  C   UNL     1      -8.083  -2.843   2.177  0.00  0.00    +0.283 C 
ATOM     33  C   UNL     1      -7.547  -4.105   2.867  0.00  0.00    +0.297 C 
ATOM     34  O   UNL     1      -8.488  -4.501   3.871  0.00  0.00    -0.472 OA
ENDBRANCH  21  33
ENDBRANCH   1  23
TORSDOF 5
