REMARK  Name = ZINC04897574
REMARK  7 active torsions:
REMARK  status: ('A' for Active; 'I' for Inactive)
REMARK    1  A    between atoms: C_4  and  C_7
REMARK    2  A    between atoms: C_7  and  S_8
REMARK    3  A    between atoms: S_8  and  N_11
REMARK    4  A    between atoms: N_11  and  C_12
REMARK    5  A    between atoms: C_14  and  O_24
REMARK    6  A    between atoms: C_16  and  O_23
REMARK    7  A    between atoms: C_20  and  O_22
REMARK                            x       y       z     vdW  Elec       q    Type
REMARK                         _______ _______ _______ _____ _____    ______ ____
ROOT
ATOM      1  N   UNL     1       0.471   3.525  -1.216  0.00  0.00    -0.184 NA
ATOM      2  H   UNL     1       0.627   3.051  -2.048  0.00  0.00    +0.148 HD
ENDROOT
BRANCH   1   3
ATOM      3  C   UNL     1       1.230   3.166  -0.016  0.00  0.00    +0.163 C 
ATOM      4  C   UNL     1       1.394   1.645   0.051  0.00  0.00    +0.168 C 
ATOM      5  C   UNL     1       2.255   1.288   1.267  0.00  0.00    +0.170 C 
ATOM      6  C   UNL     1       3.599   2.013   1.162  0.00  0.00    +0.197 C 
ATOM      7  O   UNL     1       3.373   3.421   1.072  0.00  0.00    -0.347 OA
ATOM      8  C   UNL     1       2.614   3.819  -0.071  0.00  0.00    +0.268 C 
BRANCH   8   9
ATOM      9  O   UNL     1       2.471   5.240  -0.077  0.00  0.00    -0.366 OA
ATOM     10  H   UNL     1       3.310   5.720  -0.112  0.00  0.00    +0.213 HD
ENDBRANCH   8   9
BRANCH   5  11
ATOM     11  O   UNL     1       1.585   1.695   2.462  0.00  0.00    -0.387 OA
ATOM     12  H   UNL     1       2.074   1.499   3.273  0.00  0.00    +0.210 HD
ENDBRANCH   5  11
BRANCH   4  13
ATOM     13  O   UNL     1       0.110   1.031   0.177  0.00  0.00    -0.387 OA
ATOM     14  H   UNL     1       0.139   0.065   0.225  0.00  0.00    +0.210 HD
ENDBRANCH   4  13
ENDBRANCH   1   3
BRANCH   1  15
ATOM     15  S   UNL     1      -0.653   4.739  -1.153  0.00  0.00    +0.034 S 
ATOM     16  O   UNL     1       0.030   5.835  -0.560  0.00  0.00    -0.158 OA
ATOM     17  O   UNL     1      -1.160   4.832  -2.478  0.00  0.00    -0.158 OA
BRANCH  15  18
ATOM     18  C   UNL     1      -1.940   4.124  -0.033  0.00  0.00    +0.220 C 
BRANCH  18  22
ATOM     19  C   UNL     1      -5.182   6.905   0.073  0.00  0.00    +0.000 A 
ATOM     20  C   UNL     1      -5.178   5.883  -0.857  0.00  0.00    +0.000 A 
ATOM     21  C   UNL     1      -4.129   4.983  -0.892  0.00  0.00    +0.005 A 
ATOM     22  C   UNL     1      -3.084   5.105   0.004  0.00  0.00    -0.025 A 
ATOM     23  C   UNL     1      -3.090   6.124   0.938  0.00  0.00    +0.005 A 
ATOM     24  C   UNL     1      -4.136   7.027   0.970  0.00  0.00    +0.000 A 
ENDBRANCH  18  22
ENDBRANCH  15  18
ENDBRANCH   1  15
TORSDOF 7
