REMARK  Name = ZINC40481575
REMARK  9 active torsions:
REMARK  status: ('A' for Active; 'I' for Inactive)
REMARK    1  A    between atoms: C_1  and  C_2
REMARK    2  A    between atoms: C_2  and  C_3
REMARK    3  A    between atoms: C_3  and  C_4
REMARK    4  A    between atoms: C_4  and  C_5
REMARK    5  A    between atoms: C_4  and  C_6
REMARK    6  A    between atoms: C_4  and  N_19
REMARK    7  A    between atoms: N_8  and  C_9
REMARK    8  A    between atoms: C_9  and  C_16
REMARK    9  A    between atoms: C_12  and  C_15
REMARK                            x       y       z     vdW  Elec       q    Type
REMARK                         _______ _______ _______ _____ _____    ______ ____
ROOT
ATOM      1  C   UNL     1      -2.826  -2.585   0.015  0.00  0.00    +0.202 C 
ATOM      2  O   UNL     1      -3.729  -1.900  -0.416  0.00  0.00    -0.277 OA
ATOM      3  N   UNL     1      -3.088  -3.813   0.504  0.00  0.00    -0.301 N 
ATOM      4  H   UNL     1      -2.366  -4.362   0.850  0.00  0.00    +0.150 HD
ENDROOT
BRANCH   3   5
ATOM      5  C   UNL     1      -4.462  -4.321   0.515  0.00  0.00    +0.136 C 
ATOM      6  C   UNL     1      -5.342  -3.393   1.356  0.00  0.00    +0.037 C 
ATOM      7  C   UNL     1      -4.806  -3.342   2.788  0.00  0.00    +0.006 C 
ATOM      8  C   UNL     1      -4.826  -4.748   3.390  0.00  0.00    -0.014 C 
ATOM      9  C   UNL     1      -3.947  -5.676   2.549  0.00  0.00    +0.006 C 
ATOM     10  C   UNL     1      -4.482  -5.727   1.117  0.00  0.00    +0.037 C 
ATOM     11  C   UNL     1      -4.290  -4.697   4.822  0.00  0.00    +0.007 C 
BRANCH   5  12
ATOM     12  C   UNL     1      -4.990  -4.371  -0.896  0.00  0.00    +0.379 C 
ATOM     13  O   UNL     1      -4.283  -4.016  -1.824  0.00  0.00    -0.244 OA
ATOM     14  O   UNL     1      -6.123  -4.766  -1.109  0.00  0.00    -0.244 OA
ENDBRANCH   5  12
ENDBRANCH   3   5
BRANCH   1  15
ATOM     15  C   UNL     1      -1.413  -2.063   0.004  0.00  0.00    +0.004 C 
ATOM     16  C   UNL     1      -0.696  -2.557  -1.254  0.00  0.00    -0.001 C 
BRANCH  15  17
ATOM     17  N   UNL     1      -0.702  -2.550   1.195  0.00  0.00    +0.387 N 
ATOM     18  H   UNL     1      -1.174  -2.225   2.025  0.00  0.00    -0.089 HD
ATOM     19  H   UNL     1      -0.688  -3.559   1.189  0.00  0.00    -0.089 HD
ATOM     20  H   UNL     1       0.244  -2.201   1.187  0.00  0.00    -0.089 HD
ENDBRANCH  15  17
BRANCH  15  21
ATOM     21  C   UNL     1      -1.433  -0.534   0.013  0.00  0.00    -0.004 C 
BRANCH  21  23
ATOM     22  C   UNL     1      -0.019   1.526   0.010  0.00  0.00    +0.004 C 
ATOM     23  C   UNL     1       0.002  -0.004   0.002  0.00  0.00    -0.004 C 
ENDBRANCH  21  23
ENDBRANCH  15  21
ENDBRANCH   1  15
TORSDOF 6
