REMARK  Name = ZINC20502712
REMARK  4 active torsions:
REMARK  status: ('A' for Active; 'I' for Inactive)
REMARK    1  A    between atoms: N_10  and  C_11
REMARK    2  A    between atoms: C_11  and  C_13
REMARK    3  A    between atoms: C_13  and  P_14
REMARK    4  A    between atoms: P_14  and  O_17
REMARK                            x       y       z     vdW  Elec       q    Type
REMARK                         _______ _______ _______ _____ _____    ______ ____
ROOT
ATOM      1  C   UNL     1      -0.017   1.379  -0.001  0.00  0.00    +0.022 A 
ATOM      2  C   UNL     1       1.150   2.108  -0.001  0.00  0.00    +0.028 A 
ATOM      3  C   UNL     1       2.394   1.463  -0.020  0.00  0.00    +0.055 A 
ATOM      4  C   UNL     1       2.385   0.060  -0.038  0.00  0.00    +0.040 A 
ATOM      5  C   UNL     1       1.219  -0.667  -0.037  0.00  0.00    +0.037 A 
ATOM      6  C   UNL     1       0.002  -0.006  -0.020  0.00  0.00    +0.042 A 
ATOM      7 CL   UNL     1      -1.484  -0.903  -0.019  0.00  0.00    -0.084 Cl
ATOM      8  S   UNL     1       4.110  -0.353  -0.058  0.00  0.00    -0.052 S 
ATOM      9  C   UNL     1       4.750   1.201  -0.043  0.00  0.00    +0.164 A 
ATOM     10  N   UNL     1       6.034   1.555  -0.049  0.00  0.00    -0.156 NA
ATOM     11  N   UNL     1       3.663   2.013  -0.023  0.00  0.00    -0.335 N 
ATOM     12  H   UNL     1       3.776   2.976  -0.012  0.00  0.00    +0.168 HD
ENDROOT
BRANCH  10  13
ATOM     13  C   UNL     1       6.368   2.837  -0.146  0.00  0.00    +0.250 C 
ATOM     14  O   UNL     1       5.505   3.694  -0.134  0.00  0.00    -0.273 OA
BRANCH  13  15
ATOM     15  C   UNL     1       7.818   3.230  -0.273  0.00  0.00    +0.227 C 
BRANCH  15  16
ATOM     16  P   UNL     1       8.444   3.772   1.351  0.00  0.00    +0.366 P 
ATOM     17  O   UNL     1       7.545   4.903   1.898  0.00  0.00    -0.256 OA
ATOM     18  O   UNL     1       8.428   2.580   2.334  0.00  0.00    -0.140 OA
BRANCH  16  19
ATOM     19  O   UNL     1       9.951   4.315   1.191  0.00  0.00    -0.322 OA
ATOM     20  H   UNL     1      10.349   4.622   2.018  0.00  0.00    +0.220 HD
ENDBRANCH  16  19
ENDBRANCH  15  16
ENDBRANCH  13  15
ENDBRANCH  10  13
TORSDOF 4
