REMARK  Name = ZINC36747669
REMARK  3 active torsions:
REMARK  status: ('A' for Active; 'I' for Inactive)
REMARK    1  A    between atoms: N_11  and  C_14
REMARK    2  A    between atoms: C_14  and  C_15
REMARK    3  A    between atoms: C_15  and  C_16
REMARK                            x       y       z     vdW  Elec       q    Type
REMARK                         _______ _______ _______ _____ _____    ______ ____
ROOT
ATOM      1  C   UNL     1      -0.019   1.526   0.010  0.00  0.00    +0.005 C 
ATOM      2  C   UNL     1       1.414   2.066  -0.000  0.00  0.00    +0.005 C 
ATOM      3  C   UNL     1       2.066   1.771   1.359  0.00  0.00    +0.043 C 
ATOM      4  C   UNL     1       1.807   0.338   1.704  0.00  0.00    -0.004 A 
ATOM      5  C   UNL     1       0.904  -0.487   1.129  0.00  0.00    -0.023 A 
ATOM      6  C   UNL     1       0.881  -1.831   1.678  0.00  0.00    +0.074 A 
ATOM      7  C   UNL     1       1.790  -2.081   2.717  0.00  0.00    +0.092 A 
ATOM      8  S   UNL     1       2.602  -0.651   2.941  0.00  0.00    -0.075 S 
ATOM      9  N   UNL     1       1.888  -3.300   3.337  0.00  0.00    -0.329 N 
ATOM     10  C   UNL     1       1.061  -4.284   2.908  0.00  0.00    +0.161 A 
ATOM     11  N   UNL     1       0.170  -4.116   1.922  0.00  0.00    -0.288 N 
ATOM     12  C   UNL     1       0.006  -2.949   1.256  0.00  0.00    +0.263 A 
ATOM     13  O   UNL     1      -0.813  -2.825   0.364  0.00  0.00    -0.267 OA
ATOM     14  S   UNL     1       1.160  -5.817   3.664  0.00  0.00    -0.013 S 
ATOM     15  C   UNL     1       0.002  -0.004   0.002  0.00  0.00    +0.037 C 
ATOM     16  H   UNL     1       2.524  -3.452   4.053  0.00  0.00    +0.168 HD
ENDROOT
BRANCH  11  17
ATOM     17  C   UNL     1      -0.671  -5.255   1.544  0.00  0.00    +0.136 C 
BRANCH  17  18
ATOM     18  C   UNL     1      -1.954  -5.240   2.378  0.00  0.00    +0.117 C 
BRANCH  18  19
ATOM     19  C   UNL     1      -2.819  -6.411   1.990  0.00  0.00    +0.212 C 
ATOM     20  O   UNL     1      -2.446  -7.182   1.131  0.00  0.00    -0.276 OA
ATOM     21  N   UNL     1      -4.007  -6.602   2.596  0.00  0.00    -0.329 N 
ATOM     22  H   UNL     1      -4.306  -5.986   3.283  0.00  0.00    +0.145 HD
ATOM     23  H   UNL     1      -4.564  -7.356   2.347  0.00  0.00    +0.145 HD
ENDBRANCH  18  19
ENDBRANCH  17  18
ENDBRANCH  11  17
TORSDOF 3
