REMARK  Name = ZINC33903656
REMARK  7 active torsions:
REMARK  status: ('A' for Active; 'I' for Inactive)
REMARK    1  A    between atoms: C_1  and  C_2
REMARK    2  A    between atoms: C_7  and  C_34
REMARK    3  A    between atoms: C_12  and  C_32
REMARK    4  A    between atoms: C_12  and  C_33
REMARK    5  A    between atoms: C_14  and  O_31
REMARK    6  A    between atoms: C_17  and  C_30
REMARK    7  A    between atoms: C_23  and  C_25
REMARK                            x       y       z     vdW  Elec       q    Type
REMARK                         _______ _______ _______ _____ _____    ______ ____
ROOT
ATOM      1  C   UNL     1       0.411   1.369   0.389  0.00  0.00    +0.015 C 
ATOM      2  C   UNL     1       0.246  -0.159   0.348  0.00  0.00    +0.007 C 
ATOM      3  C   UNL     1       0.723  -0.751  -0.972  0.00  0.00    +0.010 C 
ATOM      4  C   UNL     1       2.208  -1.075  -1.019  0.00  0.00    +0.006 C 
ATOM      5  C   UNL     1       2.962  -0.515   0.173  0.00  0.00    +0.019 C 
ATOM      6  C   UNL     1       4.470  -0.626   0.029  0.00  0.00    +0.016 C 
ATOM      7  C   UNL     1       4.891   0.328  -1.079  0.00  0.00    -0.012 C 
ATOM      8  C   UNL     1       6.187   0.640  -1.205  0.00  0.00    +0.044 C 
ATOM      9  C   UNL     1       7.110   0.033  -0.232  0.00  0.00    +0.166 C 
ATOM     10  O   UNL     1       8.161  -0.465  -0.566  0.00  0.00    -0.292 OA
ATOM     11  C   UNL     1       6.677   0.069   1.222  0.00  0.00    +0.053 C 
ATOM     12  C   UNL     1       5.197  -0.249   1.297  0.00  0.00    -0.002 C 
ATOM     13  C   UNL     1       4.569  -0.152   2.471  0.00  0.00    +0.161 C 
ATOM     14  C   UNL     1       3.118  -0.368   2.598  0.00  0.00    +0.206 C 
ATOM     15  O   UNL     1       2.515   0.010   3.578  0.00  0.00    -0.288 OA
ATOM     16  C   UNL     1       2.424  -1.110   1.473  0.00  0.00    +0.070 C 
ATOM     17  C   UNL     1       0.917  -0.850   1.543  0.00  0.00    +0.115 C 
ATOM     18  C   UNL     1      -0.052  -1.897   2.097  0.00  0.00    +0.153 C 
ATOM     19  O   UNL     1       0.291  -0.719   2.823  0.00  0.00    -0.363 OA
ATOM     20  C   UNL     1      -1.274  -1.895   1.160  0.00  0.00    +0.043 C 
ATOM     21  C   UNL     1      -1.266  -0.510   0.483  0.00  0.00    +0.033 C 
ATOM     22  C   UNL     1       2.674  -2.615   1.614  0.00  0.00    +0.023 C 
ATOM     23  C   UNL     1       7.488  -0.956   2.014  0.00  0.00    +0.024 C 
ATOM     24  C   UNL     1       6.944   1.477   1.762  0.00  0.00    +0.024 C 
ATOM     25  C   UNL     1       4.899  -2.025  -0.410  0.00  0.00    +0.020 C 
ENDROOT
BRANCH  21  26
ATOM     26  C   UNL     1      -1.986   0.519   1.316  0.00  0.00    -0.006 A 
ATOM     27  C   UNL     1      -2.065   0.555   2.727  0.00  0.00    +0.045 A 
ATOM     28  C   UNL     1      -2.798   1.636   3.049  0.00  0.00    +0.195 A 
ATOM     29  O   UNL     1      -3.165   2.253   1.913  0.00  0.00    -0.471 OA
ATOM     30  C   UNL     1      -2.671   1.583   0.860  0.00  0.00    +0.198 A 
ENDBRANCH  21  26
BRANCH  13  31
ATOM     31  O   UNL     1       5.250   0.141   3.616  0.00  0.00    -0.503 OA
ATOM     32  H   UNL     1       4.692   0.185   4.405  0.00  0.00    +0.292 HD
ENDBRANCH  13  31
TORSDOF 2
