REMARK  Name = ZINC40291468
REMARK  6 active torsions:
REMARK  status: ('A' for Active; 'I' for Inactive)
REMARK    1  A    between atoms: C_1  and  C_2
REMARK    2  A    between atoms: C_3  and  C_20
REMARK    3  A    between atoms: C_6  and  O_11
REMARK    4  A    between atoms: C_7  and  C_8
REMARK    5  A    between atoms: C_8  and  N_10
REMARK    6  A    between atoms: O_11  and  C_12
REMARK                            x       y       z     vdW  Elec       q    Type
REMARK                         _______ _______ _______ _____ _____    ______ ____
ROOT
ATOM      1  C   UNL     1      -0.324   1.442  -0.011  0.00  0.00    +0.046 C 
ATOM      2  C   UNL     1      -0.224  -0.061   0.009  0.00  0.00    -0.013 A 
ATOM      3  C   UNL     1      -0.353  -0.802  -1.154  0.00  0.00    +0.064 A 
ATOM      4  N   UNL     1      -0.262  -2.117  -1.115  0.00  0.00    -0.151 NA
ATOM      5  N   UNL     1      -0.055  -2.764  -0.027  0.00  0.00    -0.110 NA
ATOM      6  C   UNL     1       0.083  -2.157   1.141  0.00  0.00    +0.250 A 
ATOM      7  C   UNL     1       0.008  -0.754   1.205  0.00  0.00    +0.071 A 
ATOM      8  C   UNL     1      -0.597  -0.104  -2.467  0.00  0.00    +0.068 C 
ENDROOT
BRANCH   7   9
ATOM      9  C   UNL     1       0.163  -0.038   2.486  0.00  0.00    +0.082 C 
ATOM     10  S   UNL     1       1.699   0.559   2.952  0.00  0.00    -0.035 S 
BRANCH   9  11
ATOM     11  N   UNL     1      -0.903   0.147   3.288  0.00  0.00    -0.352 N 
ATOM     12  H   UNL     1      -1.786  -0.124   2.992  0.00  0.00    +0.143 HD
ATOM     13  H   UNL     1      -0.788   0.551   4.163  0.00  0.00    +0.143 HD
ENDBRANCH   9  11
ENDBRANCH   7   9
BRANCH   6  14
ATOM     14  O   UNL     1       0.300  -2.880   2.266  0.00  0.00    -0.436 OA
BRANCH  14  15
ATOM     15  C   UNL     1       0.436  -4.227   2.142  0.00  0.00    +0.132 A 
ATOM     16  C   UNL     1       1.642  -4.766   1.716  0.00  0.00    +0.048 A 
ATOM     17  C   UNL     1       1.780  -6.135   1.590  0.00  0.00    +0.025 A 
ATOM     18  C   UNL     1       0.717  -6.969   1.889  0.00  0.00    +0.059 A 
ATOM     19  C   UNL     1      -0.487  -6.433   2.314  0.00  0.00    +0.063 A 
ATOM     20  C   UNL     1      -0.627  -5.064   2.446  0.00  0.00    +0.067 A 
ATOM     21 CL   UNL     1      -1.819  -7.481   2.687  0.00  0.00    -0.082 Cl
ATOM     22 CL   UNL     1       0.893  -8.688   1.731  0.00  0.00    -0.082 Cl
ENDBRANCH  14  15
ENDBRANCH   6  14
TORSDOF 4
