REMARK  Name = ZINC20375306
REMARK  4 active torsions:
REMARK  status: ('A' for Active; 'I' for Inactive)
REMARK    1  A    between atoms: C_6  and  S_7
REMARK    2  A    between atoms: S_7  and  N_10
REMARK    3  A    between atoms: N_10  and  C_11
REMARK    4  A    between atoms: C_16  and  O_17
REMARK                            x       y       z     vdW  Elec       q    Type
REMARK                         _______ _______ _______ _____ _____    ______ ____
ROOT
ATOM      1  N   UNL     1      -1.974   2.468   1.607  0.00  0.00    -0.213 N 
ATOM      2  H   UNL     1      -2.877   1.986   2.010  0.00  0.00    +0.174 HD
ENDROOT
BRANCH   1   3
ATOM      3  C   UNL     1      -1.133   3.199   2.454  0.00  0.00    +0.091 A 
ATOM      4  C   UNL     1      -0.497   4.340   1.988  0.00  0.00    +0.048 A 
ATOM      5  C   UNL     1       0.329   5.063   2.830  0.00  0.00    +0.043 A 
ATOM      6  C   UNL     1       0.531   4.644   4.133  0.00  0.00    +0.024 A 
ATOM      7  C   UNL     1      -0.096   3.503   4.602  0.00  0.00    +0.049 A 
ATOM      8  C   UNL     1      -0.929   2.778   3.767  0.00  0.00    +0.139 A 
ATOM      9 CL   UNL     1       1.119   6.495   2.248  0.00  0.00    -0.083 Cl
BRANCH   8  10
ATOM     10  O   UNL     1      -1.546   1.656   4.227  0.00  0.00    -0.505 OA
ATOM     11  H   UNL     1      -1.383   1.325   5.263  0.00  0.00    +0.292 HD
ENDBRANCH   8  10
ENDBRANCH   1   3
BRANCH   1  12
ATOM     12  S   UNL     1      -1.611   2.331  -0.003  0.00  0.00    +0.072 S 
ATOM     13  O   UNL     1      -1.431   3.653  -0.493  0.00  0.00    -0.150 OA
ATOM     14  O   UNL     1      -2.563   1.436  -0.560  0.00  0.00    -0.150 OA
BRANCH  12  20
ATOM     15  C   UNL     1       1.115   2.288  -0.135  0.00  0.00    +0.030 A 
ATOM     16  C   UNL     1       2.345   1.663  -0.230  0.00  0.00    +0.017 A 
ATOM     17  C   UNL     1       2.415   0.284  -0.307  0.00  0.00    +0.018 A 
ATOM     18  C   UNL     1       1.256  -0.470  -0.289  0.00  0.00    +0.017 A 
ATOM     19  C   UNL     1       0.027   0.156  -0.194  0.00  0.00    +0.030 A 
ATOM     20  C   UNL     1      -0.043   1.534  -0.117  0.00  0.00    +0.109 A 
ATOM     21 BR   UNL     1       4.097  -0.571  -0.437  0.00  0.00    -0.050 Br
ENDBRANCH  12  20
ENDBRANCH   1  12
TORSDOF 4
