REMARK  Name = ZINC39665432
REMARK  9 active torsions:
REMARK  status: ('A' for Active; 'I' for Inactive)
REMARK    1  A    between atoms: C_1  and  C_2
REMARK    2  A    between atoms: C_5  and  C_12
REMARK    3  A    between atoms: N_9  and  C_11
REMARK    4  A    between atoms: C_16  and  C_25
REMARK    5  A    between atoms: N_27  and  C_28
REMARK    6  A    between atoms: C_28  and  C_29
REMARK    7  A    between atoms: C_29  and  C_31
REMARK    8  A    between atoms: C_29  and  O_32
REMARK    9  A    between atoms: O_32  and  C_33
REMARK                            x       y       z     vdW  Elec       q    Type
REMARK                         _______ _______ _______ _____ _____    ______ ____
ROOT
ATOM      1  C   UNL     1       0.193  -1.381  -5.198  0.00  0.00    +0.250 C 
ATOM      2  O   UNL     1       0.137  -0.281  -5.712  0.00  0.00    -0.270 OA
ATOM      3  N   UNL     1       0.286  -2.482  -5.970  0.00  0.00    -0.296 N 
ATOM      4  C   UNL     1       0.259  -3.899  -5.538  0.00  0.00    +0.121 C 
ATOM      5  C   UNL     1      -0.573  -4.622  -6.621  0.00  0.00    +0.100 C 
ATOM      6  C   UNL     1      -0.450  -3.732  -7.869  0.00  0.00    -0.004 C 
ATOM      7  C   UNL     1       0.432  -2.549  -7.444  0.00  0.00    +0.115 C 
ATOM      8  C   UNL     1      -1.825  -3.229  -8.298  0.00  0.00    -0.010 C 
ATOM      9  C   UNL     1      -1.683  -2.394  -9.574  0.00  0.00    -0.082 C 
ATOM     10  N   UNL     1      -1.086  -3.215 -10.634  0.00  0.00    +0.379 N 
ATOM     11  C   UNL     1       0.273  -3.617 -10.253  0.00  0.00    -0.082 C 
ATOM     12  C   UNL     1       0.213  -4.504  -9.006  0.00  0.00    -0.010 C 
ATOM     13  H   UNL     1      -1.651  -4.038 -10.778  0.00  0.00    -0.086 HD
ATOM     14  H   UNL     1      -1.050  -2.681 -11.490  0.00  0.00    -0.086 HD
ENDROOT
BRANCH   1  19
ATOM     15  C   UNL     1      -2.226   1.031  -0.570  0.00  0.00    +0.068 C 
ATOM     16  C   UNL     1      -1.281  -0.138  -0.462  0.00  0.00    +0.071 A 
ATOM     17  C   UNL     1      -0.619  -0.816  -1.571  0.00  0.00    +0.060 A 
ATOM     18  C   UNL     1      -0.624  -0.646  -2.959  0.00  0.00    +0.067 A 
ATOM     19  C   UNL     1       0.158  -1.511  -3.728  0.00  0.00    +0.074 A 
ATOM     20  C   UNL     1       0.909  -2.505  -3.086  0.00  0.00    +0.127 A 
ATOM     21  N   UNL     1       0.892  -2.638  -1.780  0.00  0.00    -0.235 NA
ATOM     22  C   UNL     1       0.165  -1.841  -1.003  0.00  0.00    +0.160 A 
ATOM     23  N   UNL     1      -0.023  -1.770   0.349  0.00  0.00    -0.249 N 
ATOM     24  N   UNL     1      -0.902  -0.722   0.638  0.00  0.00    -0.174 NA
ATOM     25  C   UNL     1       0.602  -2.650   1.339  0.00  0.00    +0.174 C 
ATOM     26 CL   UNL     1      -1.574   0.602  -3.704  0.00  0.00    -0.082 Cl
ENDBRANCH   1  19
BRANCH   5  27
ATOM     27  C   UNL     1      -0.005  -5.991  -6.892  0.00  0.00    +0.218 C 
ATOM     28  O   UNL     1       1.170  -6.212  -6.689  0.00  0.00    -0.275 OA
ATOM     29  N   UNL     1      -0.803  -6.971  -7.361  0.00  0.00    -0.312 N 
ATOM     30  H   UNL     1      -1.743  -6.795  -7.524  0.00  0.00    +0.149 HD
BRANCH  29  31
ATOM     31  C   UNL     1      -0.251  -8.302  -7.624  0.00  0.00    +0.148 C 
BRANCH  31  32
ATOM     32  C   UNL     1      -1.359  -9.220  -8.145  0.00  0.00    +0.187 C 
ATOM     33  C   UNL     1      -0.813 -10.640  -8.302  0.00  0.00    +0.053 C 
BRANCH  32  34
ATOM     34  O   UNL     1      -1.816  -8.743  -9.412  0.00  0.00    -0.488 OA
BRANCH  34  35
ATOM     35  C   UNL     1      -3.074  -9.096  -9.787  0.00  0.00    +0.121 A 
ATOM     36  C   UNL     1      -3.871  -9.841  -8.931  0.00  0.00    +0.045 A 
ATOM     37  C   UNL     1      -5.149 -10.198  -9.314  0.00  0.00    +0.004 A 
ATOM     38  C   UNL     1      -5.634  -9.814 -10.551  0.00  0.00    +0.000 A 
ATOM     39  C   UNL     1      -4.841  -9.072 -11.407  0.00  0.00    +0.004 A 
ATOM     40  C   UNL     1      -3.564  -8.707 -11.026  0.00  0.00    +0.045 A 
ENDBRANCH  34  35
ENDBRANCH  32  34
ENDBRANCH  31  32
ENDBRANCH  29  31
ENDBRANCH   5  27
TORSDOF 6
