REMARK  Name = ZINC18175328
REMARK  5 active torsions:
REMARK  status: ('A' for Active; 'I' for Inactive)
REMARK    1  A    between atoms: C_3  and  N_13
REMARK    2  A    between atoms: C_4  and  N_10
REMARK    3  A    between atoms: C_6  and  C_7
REMARK    4  A    between atoms: C_19  and  N_23
REMARK    5  A    between atoms: C_20  and  C_21
REMARK                            x       y       z     vdW  Elec       q    Type
REMARK                         _______ _______ _______ _____ _____    ______ ____
ROOT
ATOM      1  C   UNL     1      -3.185  -0.910   1.573  0.00  0.00    +0.015 A 
ATOM      2  C   UNL     1      -1.919  -0.397   1.401  0.00  0.00    +0.026 A 
ATOM      3  C   UNL     1      -1.279  -0.518   0.171  0.00  0.00    +0.061 A 
ATOM      4  C   UNL     1      -1.918  -1.153  -0.891  0.00  0.00    +0.148 A 
ATOM      5  C   UNL     1      -3.181  -1.672  -0.724  0.00  0.00    +0.047 A 
ATOM      6  C   UNL     1      -3.827  -1.553   0.511  0.00  0.00    +0.039 A 
ENDROOT
BRANCH   3   7
ATOM      7  N   UNL     1      -0.000   0.001   0.000  0.00  0.00    -0.323 N 
ATOM      8  C   UNL     1       0.945  -0.603   0.949  0.00  0.00    +0.110 C 
ATOM      9  C   UNL     1       2.384  -0.316   0.513  0.00  0.00    +0.056 C 
ATOM     10  C   UNL     1       2.519   1.184   0.277  0.00  0.00    -0.015 A 
ATOM     11  C   UNL     1       1.414   1.946   0.112  0.00  0.00    +0.013 A 
ATOM     12  S   UNL     1       2.030   3.587  -0.125  0.00  0.00    -0.076 S 
ATOM     13  C   UNL     1       3.729   3.268  -0.009  0.00  0.00    +0.081 A 
ATOM     14  C   UNL     1       3.781   1.898   0.211  0.00  0.00    +0.083 A 
ATOM     15  C   UNL     1      -0.005   1.471   0.132  0.00  0.00    +0.147 C 
BRANCH  13  16
ATOM     16  N   UNL     1       4.781   4.162  -0.112  0.00  0.00    -0.352 N 
ATOM     17  H   UNL     1       5.695   3.848  -0.027  0.00  0.00    +0.143 HD
ATOM     18  H   UNL     1       4.604   5.103  -0.268  0.00  0.00    +0.143 HD
ENDBRANCH  13  16
BRANCH  14  19
ATOM     19  C   UNL     1       5.030   1.216   0.368  0.00  0.00    +0.102 C 
ATOM     20  N   UNL     1       6.021   0.674   0.492  0.00  0.00    -0.191 NA
ENDBRANCH  14  19
ENDBRANCH   3   7
BRANCH   6  21
ATOM     21  C   UNL     1      -5.183  -2.104   0.692  0.00  0.00    +0.242 C 
ATOM     22  O   UNL     1      -5.741  -2.663  -0.233  0.00  0.00    -0.270 OA
ATOM     23  N   UNL     1      -5.804  -1.989   1.882  0.00  0.00    -0.325 N 
ATOM     24  H   UNL     1      -5.359  -1.543   2.620  0.00  0.00    +0.145 HD
ATOM     25  H   UNL     1      -6.696  -2.351   2.001  0.00  0.00    +0.145 HD
ENDBRANCH   6  21
BRANCH   4  26
ATOM     26  N   UNL     1      -1.236  -1.274  -2.199  0.00  0.00    +0.058 N 
ATOM     27  O   UNL     1      -1.829  -1.744  -3.154  0.00  0.00    -0.126 OA
ATOM     28  O   UNL     1      -0.082  -0.903  -2.321  0.00  0.00    -0.126 OA
ENDBRANCH   4  26
TORSDOF 5
