REMARK  Name = ZINC43668893
REMARK  7 active torsions:
REMARK  status: ('A' for Active; 'I' for Inactive)
REMARK    1  A    between atoms: C_1  and  C_2
REMARK    2  A    between atoms: C_4  and  N_20
REMARK    3  A    between atoms: N_5  and  C_7
REMARK    4  A    between atoms: C_10  and  C_19
REMARK    5  A    between atoms: C_14  and  C_16
REMARK    6  A    between atoms: C_16  and  C_17
REMARK    7  A    between atoms: C_16  and  C_18
REMARK                            x       y       z     vdW  Elec       q    Type
REMARK                         _______ _______ _______ _____ _____    ______ ____
ROOT
ATOM      1  C   UNL     1       1.700   1.212  -0.426  0.00  0.00    +0.068 C 
ATOM      2  C   UNL     1       0.970  -0.066  -0.105  0.00  0.00    +0.075 A 
ATOM      3  C   UNL     1      -0.193  -0.523  -0.733  0.00  0.00    +0.075 A 
ATOM      4  C   UNL     1      -0.537  -1.710  -0.162  0.00  0.00    +0.128 A 
ATOM      5  N   UNL     1       0.387  -1.985   0.795  0.00  0.00    -0.246 N 
ATOM      6  N   UNL     1       1.320  -0.941   0.803  0.00  0.00    -0.173 NA
ATOM      7  I   UNL     1      -1.224   0.448  -2.277  0.00  0.00    -0.038 I 
ENDROOT
BRANCH   5   8
ATOM      8  C   UNL     1       0.407  -3.167   1.661  0.00  0.00    +0.113 C 
ATOM      9  C   UNL     1      -0.888  -3.226   2.472  0.00  0.00    +0.030 C 
ATOM     10  C   UNL     1      -1.011  -1.966   3.331  0.00  0.00    -0.012 C 
ATOM     11  C   UNL     1       0.184  -1.880   4.284  0.00  0.00    +0.004 C 
ATOM     12  C   UNL     1       1.479  -1.821   3.472  0.00  0.00    +0.006 C 
ATOM     13  C   UNL     1       1.602  -3.081   2.613  0.00  0.00    +0.016 C 
ATOM     14  C   UNL     1      -1.032  -0.733   2.427  0.00  0.00    +0.007 C 
BRANCH  13  15
ATOM     15  C   UNL     1       2.897  -3.021   1.802  0.00  0.00    -0.012 C 
ATOM     16  C   UNL     1       4.092  -2.935   2.754  0.00  0.00    +0.007 C 
ATOM     17  C   UNL     1       3.020  -4.281   0.943  0.00  0.00    +0.007 C 
ENDBRANCH  13  15
ENDBRANCH   5   8
BRANCH   4  18
ATOM     18  N   UNL     1      -1.635  -2.498  -0.497  0.00  0.00    -0.342 N 
ATOM     19  H   UNL     1      -2.240  -2.213  -1.200  0.00  0.00    +0.144 HD
ATOM     20  H   UNL     1      -1.794  -3.333  -0.029  0.00  0.00    +0.144 HD
ENDBRANCH   4  18
TORSDOF 3
