REMARK  Name = ZINC49399909
REMARK  4 active torsions:
REMARK  status: ('A' for Active; 'I' for Inactive)
REMARK    1  A    between atoms: C_1  and  C_2
REMARK    2  A    between atoms: C_6  and  C_22
REMARK    3  A    between atoms: C_10  and  C_12
REMARK    4  A    between atoms: C_15  and  C_17
REMARK                            x       y       z     vdW  Elec       q    Type
REMARK                         _______ _______ _______ _____ _____    ______ ____
ROOT
ATOM      1  C   UNL     1       0.008   1.528  -0.005  0.00  0.00    +0.028 C 
ATOM      2  C   UNL     1       0.015  -0.002  -0.007  0.00  0.00    +0.073 C 
ATOM      3  C   UNL     1       0.632  -0.511  -1.313  0.00  0.00    +0.023 C 
ATOM      4  C   UNL     1       0.765  -2.035  -1.250  0.00  0.00    +0.016 C 
ATOM      5  C   UNL     1       1.692  -2.421  -0.095  0.00  0.00    +0.092 C 
ATOM      6  C   UNL     1       1.087  -1.933   1.225  0.00  0.00    +0.120 C 
ATOM      7  N   UNL     1       0.819  -0.492   1.122  0.00  0.00    -0.298 N 
ATOM      8  C   UNL     1       1.304   0.365   2.042  0.00  0.00    +0.220 C 
ATOM      9  O   UNL     1       0.994   1.537   2.003  0.00  0.00    -0.275 OA
ENDROOT
BRANCH   5  10
ATOM     10  C   UNL     1       3.041  -1.780  -0.298  0.00  0.00    +0.215 C 
ATOM     11  O   UNL     1       3.478  -1.012   0.532  0.00  0.00    -0.276 OA
ATOM     12  N   UNL     1       3.762  -2.062  -1.402  0.00  0.00    -0.329 N 
ATOM     13  H   UNL     1       3.412  -2.677  -2.066  0.00  0.00    +0.145 HD
ATOM     14  H   UNL     1       4.630  -1.650  -1.532  0.00  0.00    +0.145 HD
ENDBRANCH   5  10
BRANCH   8  15
ATOM     15  C   UNL     1       2.232  -0.133   3.120  0.00  0.00    +0.086 C 
ATOM     16  C   UNL     1       1.703  -0.150   4.555  0.00  0.00    +0.025 C 
ATOM     17  C   UNL     1       2.747   0.888   4.136  0.00  0.00    +0.068 C 
BRANCH  17  18
ATOM     18  C   UNL     1       2.287   2.315   3.983  0.00  0.00    +0.109 A 
ATOM     19  C   UNL     1       3.083   3.381   3.778  0.00  0.00    +0.045 A 
ATOM     20  C   UNL     1       2.239   4.512   3.695  0.00  0.00    +0.041 A 
ATOM     21  C   UNL     1       0.978   4.070   3.853  0.00  0.00    +0.195 A 
ATOM     22  O   UNL     1       1.013   2.738   4.021  0.00  0.00    -0.468 OA
ENDBRANCH  17  18
ENDBRANCH   8  15
TORSDOF 3
