REMARK  Name = ZINC22829129
REMARK  11 active torsions:
REMARK  status: ('A' for Active; 'I' for Inactive)
REMARK    1  A    between atoms: C_1  and  C_2
REMARK    2  A    between atoms: C_2  and  C_3
REMARK    3  A    between atoms: C_2  and  C_4
REMARK    4  A    between atoms: C_4  and  N_5
REMARK    5  A    between atoms: C_9  and  C_10
REMARK    6  A    between atoms: C_9  and  N_11
REMARK    7  A    between atoms: N_11  and  C_12
REMARK    8  A    between atoms: C_12  and  C_13
REMARK    9  A    between atoms: C_13  and  C_14
REMARK   10  A    between atoms: C_14  and  N_15
REMARK   11  A    between atoms: N_18  and  C_21
REMARK                            x       y       z     vdW  Elec       q    Type
REMARK                         _______ _______ _______ _____ _____    ______ ____
ROOT
ATOM      1  N   UNL     1      -1.395  -1.995  -0.114  0.00  0.00    -0.249 N 
ATOM      2  C   UNL     1      -1.425  -2.548  -1.344  0.00  0.00    +0.259 C 
ATOM      3  O   UNL     1      -1.442  -1.851  -2.342  0.00  0.00    -0.269 OA
ATOM      4  C   UNL     1      -1.434  -4.018  -1.447  0.00  0.00    +0.115 C 
ATOM      5  C   UNL     1      -1.463  -4.655  -2.673  0.00  0.00    +0.018 C 
ATOM      6  C   UNL     1      -1.325  -6.154  -2.747  0.00  0.00    +0.061 C 
ATOM      7  C   UNL     1      -1.411  -4.779  -0.185  0.00  0.00    +0.256 C 
ATOM      8  O   UNL     1      -1.417  -5.996  -0.189  0.00  0.00    -0.270 OA
ATOM      9  N   UNL     1      -1.382  -4.090   0.975  0.00  0.00    -0.263 N 
ATOM     10  C   UNL     1      -1.370  -2.750   0.993  0.00  0.00    +0.146 C 
ATOM     11  S   UNL     1      -1.327  -1.961   2.512  0.00  0.00    -0.018 S 
ATOM     12  H   UNL     1      -1.367  -4.576   1.814  0.00  0.00    +0.157 HD
ENDROOT
BRANCH   5  13
ATOM     13  N   UNL     1      -1.615  -3.936  -3.803  0.00  0.00    -0.347 N 
ATOM     14  H   UNL     1      -1.628  -2.966  -3.763  0.00  0.00    +0.146 HD
BRANCH  13  15
ATOM     15  C   UNL     1      -1.759  -4.617  -5.092  0.00  0.00    +0.102 C 
BRANCH  15  16
ATOM     16  C   UNL     1      -1.915  -3.578  -6.204  0.00  0.00    +0.034 C 
BRANCH  16  17
ATOM     17  C   UNL     1      -2.066  -4.290  -7.550  0.00  0.00    +0.086 C 
BRANCH  17  18
ATOM     18  N   UNL     1      -2.215  -3.292  -8.618  0.00  0.00    -0.306 NA
ATOM     19  C   UNL     1      -3.477  -2.553  -8.476  0.00  0.00    +0.066 C 
ATOM     20  C   UNL     1      -3.566  -1.486  -9.569  0.00  0.00    -0.064 C 
ATOM     21  N   UNL     1      -3.502  -2.130 -10.888  0.00  0.00    +0.379 N 
ATOM     22  C   UNL     1      -2.225  -2.843 -11.024  0.00  0.00    -0.064 C 
ATOM     23  C   UNL     1      -2.125  -3.922  -9.943  0.00  0.00    +0.066 C 
ATOM     24  C   UNL     1      -3.605  -1.107 -11.937  0.00  0.00    -0.096 C 
ATOM     25  H   UNL     1      -4.264  -2.784 -10.980  0.00  0.00    -0.082 HD
ENDBRANCH  17  18
ENDBRANCH  16  17
ENDBRANCH  15  16
ENDBRANCH  13  15
ENDBRANCH   5  13
BRANCH   1  26
ATOM     26  C   UNL     1      -1.385  -0.536   0.015  0.00  0.00    +0.118 C 
BRANCH  26  28
ATOM     27  C   UNL     1       0.071   1.495   0.031  0.00  0.00    +0.009 C 
ATOM     28  C   UNL     1       0.061  -0.035   0.022  0.00  0.00    +0.001 C 
ATOM     29  C   UNL     1       0.775  -0.557   1.271  0.00  0.00    +0.009 C 
ENDBRANCH  26  28
ENDBRANCH   1  26
TORSDOF 7
