REMARK  Name = ZINC39359125
REMARK  3 active torsions:
REMARK  status: ('A' for Active; 'I' for Inactive)
REMARK    1  A    between atoms: C_4  and  C_7
REMARK    2  A    between atoms: C_10  and  O_29
REMARK    3  A    between atoms: C_21  and  C_24
REMARK                            x       y       z     vdW  Elec       q    Type
REMARK                         _______ _______ _______ _____ _____    ______ ____
ROOT
ATOM      1  C   UNL     1       3.711  -0.707  -0.038  0.00  0.00    +0.089 C 
ATOM      2  C   UNL     1       3.789  -1.588  -1.248  0.00  0.00    +0.048 C 
ATOM      3  C   UNL     1       3.168  -1.620  -2.407  0.00  0.00    +0.235 C 
ATOM      4  N   UNL     1       3.536  -2.728  -3.107  0.00  0.00    -0.114 NA
ATOM      5  N   UNL     1       4.386  -3.430  -2.544  0.00  0.00    -0.157 NA
ATOM      6  C   UNL     1       4.757  -2.774  -1.288  0.00  0.00    +0.245 C 
ATOM      7  N   UNL     1       4.398  -3.563  -0.107  0.00  0.00    -0.321 N 
ATOM      8  C   UNL     1       4.134  -2.922   1.078  0.00  0.00    +0.014 C 
ATOM      9  C   UNL     1       3.816  -1.613   1.180  0.00  0.00    +0.023 C 
ATOM     10  C   UNL     1       3.563  -1.015   2.426  0.00  0.00    +0.162 C 
ATOM     11  O   UNL     1       3.267   0.163   2.471  0.00  0.00    -0.292 OA
ATOM     12  C   UNL     1       3.650  -1.799   3.706  0.00  0.00    +0.088 C 
ATOM     13  C   UNL     1       4.659  -2.937   3.516  0.00  0.00    +0.039 C 
ATOM     14  C   UNL     1       4.207  -3.786   2.321  0.00  0.00    +0.060 C 
ATOM     15  H   UNL     1       4.346  -4.530  -0.162  0.00  0.00    +0.148 HD
ENDROOT
BRANCH   1  19
ATOM     16  C   UNL     1      -0.017   1.378   0.010  0.00  0.00    +0.000 A 
ATOM     17  C   UNL     1       1.171   2.086   0.002  0.00  0.00    +0.000 A 
ATOM     18  C   UNL     1       2.377   1.411  -0.013  0.00  0.00    +0.004 A 
ATOM     19  C   UNL     1       2.396   0.029  -0.020  0.00  0.00    -0.035 A 
ATOM     20  C   UNL     1       1.208  -0.679  -0.012  0.00  0.00    +0.004 A 
ATOM     21  C   UNL     1       0.002  -0.004   0.002  0.00  0.00    +0.000 A 
ENDBRANCH   1  19
BRANCH  13  22
ATOM     22  C   UNL     1       4.704  -3.789   4.758  0.00  0.00    -0.006 A 
ATOM     23  C   UNL     1       5.751  -4.047   5.579  0.00  0.00    +0.011 A 
ATOM     24  C   UNL     1       5.558  -4.868   6.674  0.00  0.00    +0.008 A 
ATOM     25  C   UNL     1       4.327  -5.391   6.894  0.00  0.00    +0.045 A 
ATOM     26  S   UNL     1       3.390  -4.716   5.533  0.00  0.00    -0.101 S 
ENDBRANCH  13  22
BRANCH   3  27
ATOM     27  O   UNL     1       2.287  -0.681  -2.844  0.00  0.00    -0.491 OA
ATOM     28  H   UNL     1       1.924  -0.862  -3.721  0.00  0.00    +0.294 HD
ENDBRANCH   3  27
TORSDOF 3
