REMARK  Name = ZINC13217794
REMARK  7 active torsions:
REMARK  status: ('A' for Active; 'I' for Inactive)
REMARK    1  A    between atoms: C_1  and  C_2
REMARK    2  A    between atoms: C_6  and  C_8
REMARK    3  A    between atoms: C_10  and  C_26
REMARK    4  A    between atoms: N_14  and  C_15
REMARK    5  A    between atoms: C_18  and  C_21
REMARK    6  A    between atoms: C_21  and  C_22
REMARK    7  A    between atoms: C_26  and  C_28
REMARK                            x       y       z     vdW  Elec       q    Type
REMARK                         _______ _______ _______ _____ _____    ______ ____
ROOT
ATOM      1  C   UNL     1       0.207  -2.860   2.250  0.00  0.00    +0.150 C 
ATOM      2  C   UNL     1      -1.044  -3.478   2.830  0.00  0.00    +0.080 C 
ATOM      3  C   UNL     1      -0.764  -4.782   3.061  0.00  0.00    +0.250 C 
ATOM      4  C   UNL     1       0.628  -5.059   2.657  0.00  0.00    +0.292 C 
ATOM      5  O   UNL     1       1.177  -6.140   2.740  0.00  0.00    -0.266 OA
ATOM      6  N   UNL     1       1.202  -3.937   2.182  0.00  0.00    -0.253 N 
ATOM      7  O   UNL     1      -1.625  -5.689   3.580  0.00  0.00    -0.282 OA
ENDROOT
BRANCH   1  13
ATOM      8  C   UNL     1      -0.470   1.021  -0.836  0.00  0.00    +0.044 C 
ATOM      9  C   UNL     1      -0.397  -0.467  -0.607  0.00  0.00    -0.050 A 
ATOM     10  C   UNL     1      -0.585  -1.340  -1.663  0.00  0.00    +0.003 A 
ATOM     11  C   UNL     1      -0.517  -2.704  -1.452  0.00  0.00    +0.001 A 
ATOM     12  C   UNL     1      -0.261  -3.196  -0.185  0.00  0.00    +0.006 A 
ATOM     13  C   UNL     1      -0.072  -2.324   0.870  0.00  0.00    -0.022 A 
ATOM     14  C   UNL     1      -0.135  -0.959   0.658  0.00  0.00    +0.009 A 
ENDBRANCH   1  13
BRANCH   6  15
ATOM     15  C   UNL     1       2.512  -3.817   1.709  0.00  0.00    +0.038 A 
ATOM     16  C   UNL     1       2.977  -2.591   1.251  0.00  0.00    +0.024 A 
ATOM     17  C   UNL     1       4.272  -2.477   0.785  0.00  0.00    +0.006 A 
ATOM     18  C   UNL     1       5.105  -3.581   0.772  0.00  0.00    -0.037 A 
ATOM     19  C   UNL     1       4.644  -4.803   1.227  0.00  0.00    +0.006 A 
ATOM     20  C   UNL     1       3.352  -4.923   1.700  0.00  0.00    +0.024 A 
BRANCH  18  21
ATOM     21  C   UNL     1       6.517  -3.452   0.262  0.00  0.00    +0.160 C 
BRANCH  21  22
ATOM     22  C   UNL     1       7.432  -3.089   1.402  0.00  0.00    +0.360 C 
ATOM     23  O   UNL     1       6.980  -2.947   2.526  0.00  0.00    -0.246 OA
ATOM     24  O   UNL     1       8.625  -2.936   1.201  0.00  0.00    -0.246 OA
ENDBRANCH  21  22
ENDBRANCH  18  21
ENDBRANCH   6  15
BRANCH   2  25
ATOM     25  C   UNL     1      -2.317  -2.797   3.092  0.00  0.00    +0.230 C 
ATOM     26  O   UNL     1      -3.315  -3.109   2.467  0.00  0.00    -0.283 OA
BRANCH  25  27
ATOM     27  C   UNL     1      -2.387  -1.741   4.106  0.00  0.00    +0.175 A 
ATOM     28  C   UNL     1      -3.484  -0.954   4.384  0.00  0.00    +0.053 A 
ATOM     29  C   UNL     1      -3.102  -0.087   5.419  0.00  0.00    +0.042 A 
ATOM     30  C   UNL     1      -1.817  -0.373   5.725  0.00  0.00    +0.196 A 
ATOM     31  O   UNL     1      -1.392  -1.371   4.939  0.00  0.00    -0.460 OA
ENDBRANCH  25  27
ENDBRANCH   2  25
TORSDOF 6
