REMARK  Name = ZINC01909867
REMARK  5 active torsions:
REMARK  status: ('A' for Active; 'I' for Inactive)
REMARK    1  A    between atoms: C_6  and  C_7
REMARK    2  A    between atoms: N_11  and  C_15
REMARK    3  A    between atoms: C_15  and  C_17
REMARK    4  A    between atoms: C_15  and  C_20
REMARK    5  A    between atoms: C_17  and  C_18
REMARK                            x       y       z     vdW  Elec       q    Type
REMARK                         _______ _______ _______ _____ _____    ______ ____
ROOT
ATOM      1  C   UNL     1       1.177   3.556   0.010  0.00  0.00    +0.028 C 
ATOM      2  C   UNL     1       2.342   4.243   0.105  0.00  0.00    +0.077 C 
ATOM      3  C   UNL     1       2.572   5.698   0.225  0.00  0.00    +0.259 C 
ATOM      4  O   UNL     1       1.649   6.491   0.252  0.00  0.00    -0.269 OA
ATOM      5  N   UNL     1       3.831   6.094   0.306  0.00  0.00    -0.241 N 
ATOM      6  C   UNL     1       4.851   5.213   0.268  0.00  0.00    +0.121 C 
ATOM      7  S   UNL     1       6.532   5.527   0.350  0.00  0.00    -0.027 S 
ATOM      8  S   UNL     1       4.024   3.638   0.111  0.00  0.00    -0.061 S 
ENDROOT
BRANCH   1  14
ATOM      9  C   UNL     1       2.358   1.400   0.382  0.00  0.00    +0.009 A 
ATOM     10  C   UNL     1       2.356   0.022   0.427  0.00  0.00    +0.020 A 
ATOM     11  C   UNL     1       1.194  -0.682   0.155  0.00  0.00    +0.041 A 
ATOM     12  C   UNL     1       0.026  -0.008  -0.163  0.00  0.00    +0.020 A 
ATOM     13  C   UNL     1       0.013   1.369  -0.213  0.00  0.00    +0.009 A 
ATOM     14  C   UNL     1       1.183   2.087   0.060  0.00  0.00    -0.024 A 
ATOM     15 CL   UNL     1       1.202  -2.417   0.214  0.00  0.00    -0.084 Cl
ENDBRANCH   1  14
BRANCH   5  16
ATOM     16  C   UNL     1       4.125   7.524   0.433  0.00  0.00    +0.206 C 
BRANCH  16  17
ATOM     17  C   UNL     1       4.881   7.769   1.714  0.00  0.00    +0.377 C 
ATOM     18  O   UNL     1       5.147   6.844   2.445  0.00  0.00    -0.244 OA
ATOM     19  O   UNL     1       5.259   9.014   2.042  0.00  0.00    -0.244 OA
ENDBRANCH  16  17
BRANCH  16  20
ATOM     20  C   UNL     1       4.975   7.977  -0.756  0.00  0.00    +0.159 C 
BRANCH  20  21
ATOM     21  C   UNL     1       4.173   7.847  -2.025  0.00  0.00    +0.358 C 
ATOM     22  O   UNL     1       3.039   7.433  -1.983  0.00  0.00    -0.246 OA
ATOM     23  O   UNL     1       4.719   8.190  -3.202  0.00  0.00    -0.246 OA
ENDBRANCH  20  21
ENDBRANCH  16  20
ENDBRANCH   5  16
TORSDOF 5
