REMARK  Name = ZINC04156463
REMARK  11 active torsions:
REMARK  status: ('A' for Active; 'I' for Inactive)
REMARK    1  A    between atoms: C_1  and  C_2
REMARK    2  A    between atoms: C_3  and  C_20
REMARK    3  A    between atoms: C_4  and  C_10
REMARK    4  A    between atoms: C_12  and  O_18
REMARK    5  A    between atoms: C_13  and  O_17
REMARK    6  A    between atoms: O_18  and  C_19
REMARK    7  A    between atoms: C_20  and  O_22
REMARK    8  A    between atoms: O_22  and  C_23
REMARK    9  A    between atoms: C_23  and  C_24
REMARK   10  A    between atoms: C_24  and  S_25
REMARK   11  A    between atoms: S_25  and  C_26
REMARK                            x       y       z     vdW  Elec       q    Type
REMARK                         _______ _______ _______ _____ _____    ______ ____
ROOT
ATOM      1  C   UNL     1       4.090   8.373   0.368  0.00  0.00    +0.061 C 
ATOM      2  C   UNL     1       5.154   7.306   0.318  0.00  0.00    +0.021 C 
ATOM      3  C   UNL     1       4.812   6.018   0.532  0.00  0.00    +0.078 C 
ATOM      4  C   UNL     1       5.913   4.978   0.479  0.00  0.00    +0.144 C 
ATOM      5  N   UNL     1       7.273   5.461   0.185  0.00  0.00    -0.288 N 
ATOM      6  C   UNL     1       7.457   6.782  -0.006  0.00  0.00    +0.304 C 
ATOM      7  O   UNL     1       8.577   7.192  -0.243  0.00  0.00    -0.252 OA
ATOM      8  N   UNL     1       6.447   7.659   0.058  0.00  0.00    -0.273 N 
ATOM      9  H   UNL     1       8.020   4.843   0.134  0.00  0.00    +0.151 HD
ATOM     10  H   UNL     1       6.645   8.597  -0.089  0.00  0.00    +0.156 HD
ENDROOT
BRANCH   4  11
ATOM     11  C   UNL     1       5.945   4.266   1.807  0.00  0.00    -0.018 A 
ATOM     12  C   UNL     1       6.445   4.911   2.923  0.00  0.00    +0.055 A 
ATOM     13  C   UNL     1       6.469   4.260   4.146  0.00  0.00    +0.163 A 
ATOM     14  C   UNL     1       6.001   2.954   4.245  0.00  0.00    +0.173 A 
ATOM     15  C   UNL     1       5.506   2.311   3.122  0.00  0.00    +0.063 A 
ATOM     16  C   UNL     1       5.479   2.969   1.905  0.00  0.00    +0.025 A 
ATOM     17 BR   UNL     1       4.868   0.536   3.251  0.00  0.00    -0.046 Br
BRANCH  14  18
ATOM     18  O   UNL     1       6.027   2.309   5.443  0.00  0.00    -0.503 OA
ATOM     19  H   UNL     1       6.844   1.819   5.607  0.00  0.00    +0.292 HD
ENDBRANCH  14  18
BRANCH  13  20
ATOM     20  O   UNL     1       6.955   4.896   5.246  0.00  0.00    -0.491 OA
ATOM     21  C   UNL     1       7.322   6.268   5.094  0.00  0.00    +0.277 C 
ENDBRANCH  13  20
ENDBRANCH   4  11
BRANCH   3  22
ATOM     22  C   UNL     1       3.473   5.651   0.801  0.00  0.00    +0.339 C 
ATOM     23  O   UNL     1       2.630   6.511   0.978  0.00  0.00    -0.245 OA
BRANCH  22  24
ATOM     24  O   UNL     1       3.130   4.347   0.863  0.00  0.00    -0.460 OA
BRANCH  24  25
ATOM     25  C   UNL     1       1.742   4.049   1.026  0.00  0.00    +0.243 C 
BRANCH  25  26
ATOM     26  C   UNL     1       1.561   2.539   1.194  0.00  0.00    +0.110 C 
BRANCH  26  27
ATOM     27  S   UNL     1      -0.181   2.174   1.544  0.00  0.00    -0.161 S 
ATOM     28  C   UNL     1      -0.226   0.368   1.713  0.00  0.00    +0.084 C 
ENDBRANCH  26  27
ENDBRANCH  25  26
ENDBRANCH  24  25
ENDBRANCH  22  24
ENDBRANCH   3  22
TORSDOF 8
