REMARK  Name = ZINC14018114
REMARK  5 active torsions:
REMARK  status: ('A' for Active; 'I' for Inactive)
REMARK    1  A    between atoms: C_5  and  C_7
REMARK    2  A    between atoms: N_9  and  N_10
REMARK    3  A    between atoms: N_10  and  C_11
REMARK    4  A    between atoms: C_11  and  N_13
REMARK    5  A    between atoms: C_14  and  C_16
REMARK                            x       y       z     vdW  Elec       q    Type
REMARK                         _______ _______ _______ _____ _____    ______ ____
ROOT
ATOM      1  N   UNL     1       3.478   1.933  -0.021  0.00  0.00    -0.245 N 
ATOM      2  H   UNL     1       4.324   1.459  -0.031  0.00  0.00    +0.172 HD
ENDROOT
BRANCH   1   5
ATOM      3  C   UNL     1       4.617   4.023  -0.020  0.00  0.00    +0.261 C 
ATOM      4  O   UNL     1       5.677   3.430  -0.034  0.00  0.00    -0.269 OA
ATOM      5  N   UNL     1       3.459   3.333  -0.013  0.00  0.00    -0.231 N 
ATOM      6  H   UNL     1       2.612   3.807  -0.002  0.00  0.00    +0.173 HD
BRANCH   3  11
ATOM      7  C   UNL     1       3.368   7.565   0.009  0.00  0.00    +0.001 A 
ATOM      8  C   UNL     1       4.559   8.271   0.002  0.00  0.00    +0.001 A 
ATOM      9  C   UNL     1       5.768   7.600  -0.013  0.00  0.00    +0.016 A 
ATOM     10  C   UNL     1       5.794   6.219  -0.020  0.00  0.00    +0.030 A 
ATOM     11  C   UNL     1       4.596   5.501  -0.012  0.00  0.00    +0.052 A 
ATOM     12  C   UNL     1       3.380   6.186  -0.003  0.00  0.00    +0.014 A 
ATOM     13 BR   UNL     1       7.449   5.303  -0.041  0.00  0.00    -0.050 Br
ENDBRANCH   3  11
ENDBRANCH   1   5
BRANCH   1  14
ATOM     14  C   UNL     1       2.320   1.243  -0.013  0.00  0.00    +0.153 C 
ATOM     15  S   UNL     1       2.343  -0.469  -0.023  0.00  0.00    -0.017 S 
BRANCH  14  16
ATOM     16  N   UNL     1       1.143   1.901   0.001  0.00  0.00    -0.263 N 
ATOM     17  C   UNL     1      -0.014   1.211   0.009  0.00  0.00    +0.250 C 
ATOM     18  O   UNL     1       0.002  -0.004   0.002  0.00  0.00    -0.270 OA
ATOM     19  H   UNL     1       1.130   2.871   0.007  0.00  0.00    +0.157 HD
BRANCH  17  20
ATOM     20  C   UNL     1      -1.304   1.932   0.019  0.00  0.00    +0.037 A 
ATOM     21  C   UNL     1      -1.326   3.329   0.032  0.00  0.00    +0.014 A 
ATOM     22  C   UNL     1      -2.532   3.996   0.035  0.00  0.00    +0.021 A 
ATOM     23  C   UNL     1      -3.721   3.284   0.037  0.00  0.00    +0.041 A 
ATOM     24  C   UNL     1      -3.705   1.899   0.030  0.00  0.00    +0.021 A 
ATOM     25  C   UNL     1      -2.505   1.220   0.021  0.00  0.00    +0.014 A 
ATOM     26 CL   UNL     1      -5.236   4.132   0.048  0.00  0.00    -0.084 Cl
ENDBRANCH  17  20
ENDBRANCH  14  16
ENDBRANCH   1  14
TORSDOF 5
