REMARK  Name = ZINC40876941
REMARK  8 active torsions:
REMARK  status: ('A' for Active; 'I' for Inactive)
REMARK    1  A    between atoms: C_1  and  C_2
REMARK    2  A    between atoms: C_2  and  C_3
REMARK    3  A    between atoms: C_2  and  C_4
REMARK    4  A    between atoms: C_6  and  C_9
REMARK    5  A    between atoms: C_12  and  N_16
REMARK    6  A    between atoms: C_20  and  C_23
REMARK    7  A    between atoms: C_28  and  C_31
REMARK    8  A    between atoms: C_28  and  N_34
REMARK                            x       y       z     vdW  Elec       q    Type
REMARK                         _______ _______ _______ _____ _____    ______ ____
ROOT
ATOM      1  N   UNL     1      -7.349  -4.531  -3.206  0.00  0.00    -0.327 N 
ATOM      2  C   UNL     1      -8.336  -3.843  -4.050  0.00  0.00    +0.105 C 
ATOM      3  C   UNL     1      -9.741  -4.188  -3.546  0.00  0.00    +0.020 C 
ATOM      4  C   UNL     1      -9.903  -5.710  -3.501  0.00  0.00    +0.016 C 
ATOM      5  C   UNL     1      -8.881  -6.305  -2.529  0.00  0.00    +0.092 C 
ATOM      6  C   UNL     1      -7.463  -5.984  -3.026  0.00  0.00    +0.118 C 
ENDROOT
BRANCH   5   7
ATOM      7  C   UNL     1      -9.064  -7.799  -2.461  0.00  0.00    +0.220 C 
ATOM      8  O   UNL     1      -9.606  -8.386  -3.373  0.00  0.00    -0.275 OA
ATOM      9  N   UNL     1      -8.624  -8.483  -1.386  0.00  0.00    -0.301 N 
ATOM     10  C   UNL     1      -8.063  -7.776  -0.226  0.00  0.00    +0.107 C 
ATOM     11  C   UNL     1      -6.679  -8.355   0.083  0.00  0.00    +0.016 C 
ATOM     12  C   UNL     1      -6.794  -9.870   0.266  0.00  0.00    +0.015 C 
ATOM     13  C   UNL     1      -7.305 -10.505  -1.030  0.00  0.00    +0.016 C 
ATOM     14  C   UNL     1      -8.701  -9.950  -1.349  0.00  0.00    +0.107 C 
BRANCH  12  15
ATOM     15  N   UNL     1      -5.474 -10.424   0.595  0.00  0.00    +0.389 N 
ATOM     16  C   UNL     1      -4.977  -9.802   1.829  0.00  0.00    -0.077 C 
ATOM     17  C   UNL     1      -3.568 -10.316   2.132  0.00  0.00    -0.019 C 
ATOM     18  C   UNL     1      -3.612 -11.837   2.307  0.00  0.00    -0.004 C 
ATOM     19  C   UNL     1      -4.201 -12.470   1.043  0.00  0.00    -0.019 C 
ATOM     20  C   UNL     1      -5.587 -11.876   0.780  0.00  0.00    -0.077 C 
ATOM     21  H   UNL     1      -4.831 -10.231  -0.159  0.00  0.00    -0.080 HD
ENDBRANCH  12  15
BRANCH  12  22
ATOM     22  C   UNL     1      -7.757 -10.169   1.385  0.00  0.00    +0.200 C 
ATOM     23  O   UNL     1      -8.067  -9.296   2.168  0.00  0.00    -0.278 OA
ATOM     24  N   UNL     1      -8.274 -11.406   1.517  0.00  0.00    -0.330 N 
ATOM     25  H   UNL     1      -7.973 -12.122   0.936  0.00  0.00    +0.145 HD
ATOM     26  H   UNL     1      -8.948 -11.581   2.192  0.00  0.00    +0.145 HD
ENDBRANCH  12  22
ENDBRANCH   5   7
BRANCH   1  30
ATOM     27  C   UNL     1      -4.271  -2.400  -1.374  0.00  0.00    +0.025 A 
ATOM     28  C   UNL     1      -4.089  -2.932  -2.650  0.00  0.00    +0.013 A 
ATOM     29  C   UNL     1      -5.109  -3.637  -3.254  0.00  0.00    +0.027 A 
ATOM     30  C   UNL     1      -6.318  -3.817  -2.592  0.00  0.00    +0.065 A 
ATOM     31  C   UNL     1      -6.502  -3.287  -1.319  0.00  0.00    +0.145 A 
ATOM     32  C   UNL     1      -5.482  -2.585  -0.709  0.00  0.00    +0.052 A 
ATOM     33  F   UNL     1      -7.678  -3.462  -0.677  0.00  0.00    -0.204 F 
BRANCH  27  36
ATOM     34  C   UNL     1      -1.242  -0.704  -0.425  0.00  0.00    +0.230 A 
ATOM     35  N   UNL     1      -1.966  -1.395  -1.259  0.00  0.00    -0.191 NA
ATOM     36  C   UNL     1      -3.175  -1.641  -0.724  0.00  0.00    +0.202 A 
ATOM     37  N   UNL     1      -3.223  -1.099   0.469  0.00  0.00    -0.056 NA
ATOM     38  O   UNL     1      -1.961  -0.485   0.682  0.00  0.00    -0.337 OA
BRANCH  34  40
ATOM     39  C   UNL     1       0.221   1.293  -0.588  0.00  0.00    +0.017 C 
ATOM     40  C   UNL     1       0.170  -0.235  -0.665  0.00  0.00    +0.072 C 
ATOM     41  C   UNL     1       1.093  -0.830   0.400  0.00  0.00    +0.017 C 
ENDBRANCH  34  40
ENDBRANCH  27  36
ENDBRANCH   1  30
TORSDOF 6
