REMARK  Name = ZINC01173710
REMARK  9 active torsions:
REMARK  status: ('A' for Active; 'I' for Inactive)
REMARK    1  A    between atoms: C_1  and  C_2
REMARK    2  A    between atoms: C_2  and  C_3
REMARK    3  A    between atoms: N_5  and  C_6
REMARK    4  A    between atoms: C_10  and  N_12
REMARK    5  A    between atoms: N_12  and  C_13
REMARK    6  A    between atoms: C_13  and  N_15
REMARK    7  A    between atoms: C_16  and  C_18
REMARK    8  A    between atoms: C_23  and  O_24
REMARK    9  A    between atoms: O_24  and  C_25
REMARK                            x       y       z     vdW  Elec       q    Type
REMARK                         _______ _______ _______ _____ _____    ______ ____
ROOT
ATOM      1  C   UNL     1      -1.261   2.034   0.468  0.00  0.00    +0.141 C 
ATOM      2  S   UNL     1      -2.721   1.246   0.892  0.00  0.00    -0.018 S 
ENDROOT
BRANCH   1   3
ATOM      3  N   UNL     1      -0.093   1.364   0.522  0.00  0.00    -0.263 N 
ATOM      4  C   UNL     1      -0.074   0.073   0.910  0.00  0.00    +0.253 C 
ATOM      5  O   UNL     1      -1.110  -0.484   1.216  0.00  0.00    -0.270 OA
ATOM      6  H   UNL     1       0.733   1.809   0.278  0.00  0.00    +0.157 HD
BRANCH   4   7
ATOM      7  C   UNL     1       1.203  -0.662   0.963  0.00  0.00    +0.080 A 
ATOM      8  C   UNL     1       2.396  -0.024   0.612  0.00  0.00    +0.032 A 
ATOM      9  C   UNL     1       3.586  -0.717   0.664  0.00  0.00    +0.019 A 
ATOM     10  C   UNL     1       3.606  -2.045   1.063  0.00  0.00    +0.019 A 
ATOM     11  C   UNL     1       2.434  -2.686   1.412  0.00  0.00    +0.047 A 
ATOM     12  C   UNL     1       1.228  -2.002   1.371  0.00  0.00    +0.132 A 
ATOM     13 BR   UNL     1       5.200   0.147   0.189  0.00  0.00    -0.050 Br
BRANCH  12  14
ATOM     14  O   UNL     1       0.077  -2.630   1.720  0.00  0.00    -0.494 OA
ATOM     15  C   UNL     1       0.180  -3.996   2.126  0.00  0.00    +0.277 C 
ENDBRANCH  12  14
ENDBRANCH   4   7
ENDBRANCH   1   3
BRANCH   1  16
ATOM     16  N   UNL     1      -1.280   3.325   0.080  0.00  0.00    -0.297 N 
ATOM     17  H   UNL     1      -0.449   3.787  -0.108  0.00  0.00    +0.154 HD
BRANCH  16  22
ATOM     18  C   UNL     1      -3.940   5.475  -1.279  0.00  0.00    +0.035 A 
ATOM     19  C   UNL     1      -4.918   5.328  -0.303  0.00  0.00    +0.023 A 
ATOM     20  C   UNL     1      -4.686   4.519   0.792  0.00  0.00    +0.004 A 
ATOM     21  C   UNL     1      -3.481   3.854   0.921  0.00  0.00    +0.023 A 
ATOM     22  C   UNL     1      -2.499   3.998  -0.051  0.00  0.00    +0.034 A 
ATOM     23  C   UNL     1      -2.728   4.815  -1.150  0.00  0.00    +0.046 A 
BRANCH  18  26
ATOM     24  C   UNL     1      -4.890   7.430  -2.249  0.00  0.00    +0.217 C 
ATOM     25  O   UNL     1      -5.372   7.714  -1.173  0.00  0.00    -0.275 OA
ATOM     26  N   UNL     1      -4.176   6.295  -2.389  0.00  0.00    -0.285 N 
ATOM     27  H   UNL     1      -3.827   6.046  -3.259  0.00  0.00    +0.155 HD
BRANCH  24  29
ATOM     28  C   UNL     1      -5.928   9.551  -3.003  0.00  0.00    +0.013 C 
ATOM     29  C   UNL     1      -5.089   8.345  -3.429  0.00  0.00    +0.093 C 
ENDBRANCH  24  29
ENDBRANCH  18  26
ENDBRANCH  16  22
ENDBRANCH   1  16
TORSDOF 7
