REMARK  Name = ZINC20465714
REMARK  7 active torsions:
REMARK  status: ('A' for Active; 'I' for Inactive)
REMARK    1  A    between atoms: C_4  and  N_7
REMARK    2  A    between atoms: N_10  and  C_11
REMARK    3  A    between atoms: C_11  and  C_12
REMARK    4  A    between atoms: C_14  and  N_24
REMARK    5  A    between atoms: C_16  and  O_23
REMARK    6  A    between atoms: C_18  and  C_21
REMARK    7  A    between atoms: C_21  and  O_22
REMARK                            x       y       z     vdW  Elec       q    Type
REMARK                         _______ _______ _______ _____ _____    ______ ____
ROOT
ATOM      1  C   UNL     1      -0.980   3.379   3.008  0.00  0.00    +0.125 C 
ATOM      2  C   UNL     1      -0.384   2.072   3.564  0.00  0.00    -0.006 C 
ATOM      3  C   UNL     1       0.071   1.296   2.304  0.00  0.00    +0.134 C 
ATOM      4  C   UNL     1      -0.779   1.958   1.191  0.00  0.00    +0.171 C 
ATOM      5  O   UNL     1      -0.824   3.349   1.578  0.00  0.00    -0.369 OA
ENDROOT
BRANCH   2   6
ATOM      6  N   UNL     1       0.765   2.357   4.435  0.00  0.00    +0.385 N 
ATOM      7  C   UNL     1       2.028   2.246   3.693  0.00  0.00    -0.078 C 
ATOM      8  C   UNL     1       3.187   2.689   4.588  0.00  0.00    -0.019 C 
ATOM      9  C   UNL     1       3.228   1.804   5.837  0.00  0.00    -0.004 C 
ATOM     10  C   UNL     1       1.885   1.900   6.565  0.00  0.00    -0.019 C 
ATOM     11  C   UNL     1       0.763   1.480   5.613  0.00  0.00    -0.078 C 
ATOM     12  H   UNL     1       0.674   3.394   4.789  0.00  0.00    -0.081 HD
ENDBRANCH   2   6
BRANCH   3  13
ATOM     13  O   UNL     1       1.466   1.488   2.063  0.00  0.00    -0.391 OA
ATOM     14  H   UNL     1       1.947   1.001   1.201  0.00  0.00    +0.210 HD
ENDBRANCH   3  13
BRANCH   1  15
ATOM     15  C   UNL     1      -0.234   4.581   3.592  0.00  0.00    +0.135 C 
BRANCH  15  19
ATOM     16  N   UNL     1      -0.972   8.151   3.117  0.00  0.00    -0.269 N 
ATOM     17  C   UNL     1      -0.384   7.012   3.532  0.00  0.00    +0.304 C 
ATOM     18  O   UNL     1       0.589   7.061   4.260  0.00  0.00    -0.253 OA
ATOM     19  N   UNL     1      -0.873   5.819   3.140  0.00  0.00    -0.297 N 
ATOM     20  H   UNL     1      -1.909   8.109   2.541  0.00  0.00    +0.156 HD
ATOM     21  H   UNL     1      -1.753   5.775   2.481  0.00  0.00    +0.150 HD
BRANCH  16  25
ATOM     22  C   UNL     1       0.757  11.835   4.010  0.00  0.00    +0.000 A 
ATOM     23  C   UNL     1       1.550  10.707   3.912  0.00  0.00    +0.002 A 
ATOM     24  C   UNL     1       0.980   9.484   3.616  0.00  0.00    +0.023 A 
ATOM     25  C   UNL     1      -0.391   9.389   3.417  0.00  0.00    +0.035 A 
ATOM     26  C   UNL     1      -1.184  10.525   3.511  0.00  0.00    +0.023 A 
ATOM     27  C   UNL     1      -0.609  11.744   3.813  0.00  0.00    +0.002 A 
ENDBRANCH  16  25
ENDBRANCH  15  19
ENDBRANCH   1  15
BRANCH   4  28
ATOM     28  C   UNL     1      -0.101   1.800  -0.172  0.00  0.00    +0.190 C 
BRANCH  28  29
ATOM     29  O   UNL     1      -0.935   2.361  -1.187  0.00  0.00    -0.392 OA
ATOM     30  H   UNL     1      -0.611   2.340  -2.238  0.00  0.00    +0.210 HD
ENDBRANCH  28  29
ENDBRANCH   4  28
TORSDOF 7
