REMARK  Name = ZINC39672969
REMARK  7 active torsions:
REMARK  status: ('A' for Active; 'I' for Inactive)
REMARK    1  A    between atoms: C_1  and  C_2
REMARK    2  A    between atoms: C_6  and  C_8
REMARK    3  A    between atoms: C_8  and  C_9
REMARK    4  A    between atoms: C_13  and  C_22
REMARK    5  A    between atoms: N_24  and  C_25
REMARK    6  A    between atoms: C_25  and  C_26
REMARK    7  A    between atoms: C_26  and  N_32
REMARK                            x       y       z     vdW  Elec       q    Type
REMARK                         _______ _______ _______ _____ _____    ______ ____
ROOT
ATOM      1  C   UNL     1       1.298  -3.168   2.538  0.00  0.00    +0.220 C 
ATOM      2  O   UNL     1       2.200  -2.747   1.845  0.00  0.00    -0.275 OA
ATOM      3  N   UNL     1       1.574  -3.766   3.714  0.00  0.00    -0.300 N 
ATOM      4  C   UNL     1       0.617  -4.344   4.686  0.00  0.00    +0.121 C 
ATOM      5  C   UNL     1       1.303  -5.633   5.190  0.00  0.00    +0.100 C 
ATOM      6  C   UNL     1       2.804  -5.397   4.954  0.00  0.00    -0.004 C 
ATOM      7  C   UNL     1       2.905  -4.000   4.324  0.00  0.00    +0.115 C 
ATOM      8  C   UNL     1       3.560  -5.436   6.279  0.00  0.00    -0.010 C 
ATOM      9  C   UNL     1       5.058  -5.256   6.012  0.00  0.00    -0.082 C 
ATOM     10  N   UNL     1       5.530  -6.326   5.124  0.00  0.00    +0.379 N 
ATOM     11  C   UNL     1       4.864  -6.224   3.820  0.00  0.00    -0.082 C 
ATOM     12  C   UNL     1       3.359  -6.444   3.994  0.00  0.00    -0.010 C 
ATOM     13  H   UNL     1       6.528  -6.241   4.999  0.00  0.00    -0.086 HD
ATOM     14  H   UNL     1       5.321  -7.222   5.538  0.00  0.00    -0.086 HD
ENDROOT
BRANCH   5  15
ATOM     15  C   UNL     1       0.827  -6.825   4.401  0.00  0.00    +0.218 C 
ATOM     16  O   UNL     1       0.455  -6.684   3.255  0.00  0.00    -0.275 OA
ATOM     17  N   UNL     1       0.814  -8.048   4.968  0.00  0.00    -0.313 N 
ATOM     18  H   UNL     1       1.111  -8.160   5.885  0.00  0.00    +0.149 HD
BRANCH  17  19
ATOM     19  C   UNL     1       0.350  -9.207   4.201  0.00  0.00    +0.126 C 
BRANCH  19  20
ATOM     20  C   UNL     1       0.312 -10.437   5.109  0.00  0.00    +0.038 C 
ATOM     21  C   UNL     1      -0.045 -11.672   4.279  0.00  0.00    +0.024 C 
ATOM     22  C   UNL     1      -1.417 -11.473   3.632  0.00  0.00    +0.002 C 
ATOM     23  C   UNL     1      -2.471 -11.269   4.723  0.00  0.00    +0.000 C 
ATOM     24  C   UNL     1      -2.113 -10.034   5.553  0.00  0.00    +0.002 C 
ATOM     25  C   UNL     1      -0.741 -10.234   6.200  0.00  0.00    +0.024 C 
BRANCH  20  26
ATOM     26  N   UNL     1       1.629 -10.629   5.730  0.00  0.00    -0.291 NA
ATOM     27  C   UNL     1       2.679 -10.761   4.709  0.00  0.00    +0.113 C 
ATOM     28  C   UNL     1       4.039 -10.898   5.398  0.00  0.00    +0.175 C 
ATOM     29  O   UNL     1       4.006 -12.017   6.288  0.00  0.00    -0.377 OA
ATOM     30  C   UNL     1       2.996 -11.922   7.296  0.00  0.00    +0.175 C 
ATOM     31  C   UNL     1       1.625 -11.794   6.626  0.00  0.00    +0.113 C 
ENDBRANCH  20  26
ENDBRANCH  19  20
ENDBRANCH  17  19
ENDBRANCH   5  15
BRANCH   1  32
ATOM     32  C   UNL     1      -0.131  -3.022   2.084  0.00  0.00    +0.131 C 
BRANCH  32  38
ATOM     33  C   UNL     1      -0.376   1.196  -0.598  0.00  0.00    +0.044 C 
ATOM     34  C   UNL     1      -0.284  -0.307  -0.534  0.00  0.00    -0.050 A 
ATOM     35  C   UNL     1      -0.231  -1.046  -1.702  0.00  0.00    +0.003 A 
ATOM     36  C   UNL     1      -0.146  -2.424  -1.644  0.00  0.00    +0.001 A 
ATOM     37  C   UNL     1      -0.114  -3.064  -0.418  0.00  0.00    +0.004 A 
ATOM     38  C   UNL     1      -0.166  -2.325   0.748  0.00  0.00    -0.038 A 
ATOM     39  C   UNL     1      -0.246  -0.946   0.691  0.00  0.00    +0.007 A 
ENDBRANCH  32  38
ENDBRANCH   1  32
TORSDOF 6
