REMARK  Name = ZINC49185033
REMARK  4 active torsions:
REMARK  status: ('A' for Active; 'I' for Inactive)
REMARK    1  A    between atoms: C_1  and  C_2
REMARK    2  A    between atoms: C_2  and  C_4
REMARK    3  A    between atoms: C_2  and  N_10
REMARK    4  A    between atoms: C_4  and  C_5
REMARK                            x       y       z     vdW  Elec       q    Type
REMARK                         _______ _______ _______ _____ _____    ______ ____
ROOT
ATOM      1  N   UNL     1       0.688  -0.476  -1.203  0.00  0.00    -0.309 N 
ATOM      2  C   UNL     1       0.145  -1.274  -2.198  0.00  0.00    +0.070 A 
ATOM      3  C   UNL     1      -1.100  -1.851  -2.396  0.00  0.00    +0.029 A 
ATOM      4  C   UNL     1      -1.333  -2.614  -3.521  0.00  0.00    +0.017 A 
ATOM      5  C   UNL     1      -0.328  -2.808  -4.459  0.00  0.00    +0.020 A 
ATOM      6  C   UNL     1       0.915  -2.242  -4.278  0.00  0.00    +0.045 A 
ATOM      7  C   UNL     1       1.166  -1.467  -3.144  0.00  0.00    +0.092 A 
ATOM      8  N   UNL     1       2.259  -0.795  -2.695  0.00  0.00    -0.215 NA
ATOM      9  C   UNL     1       1.979  -0.208  -1.558  0.00  0.00    +0.194 A 
ATOM     10  N   UNL     1       2.858   0.562  -0.827  0.00  0.00    -0.329 N 
ATOM     11 BR   UNL     1      -0.668  -3.858  -5.995  0.00  0.00    -0.050 Br
ATOM     12  H   UNL     1       2.572   0.961   0.010  0.00  0.00    +0.145 HD
ATOM     13  H   UNL     1       3.761   0.705  -1.149  0.00  0.00    +0.145 HD
ENDROOT
BRANCH   1  15
ATOM     14  C   UNL     1      -0.019   1.526   0.010  0.00  0.00    +0.031 C 
ATOM     15  C   UNL     1       0.002  -0.004   0.002  0.00  0.00    +0.092 C 
BRANCH  15  16
ATOM     16  C   UNL     1       0.742  -0.511   1.242  0.00  0.00    +0.060 C 
BRANCH  16  17
ATOM     17  C   UNL     1      -0.030  -0.130   2.478  0.00  0.00    -0.038 A 
ATOM     18  C   UNL     1       0.210   1.076   3.111  0.00  0.00    +0.011 A 
ATOM     19  C   UNL     1      -0.502   1.389   4.221  0.00  0.00    +0.045 A 
ATOM     20  S   UNL     1      -1.550  -0.045   4.403  0.00  0.00    -0.105 S 
ATOM     21  C   UNL     1      -0.973  -0.961   2.984  0.00  0.00    +0.049 A 
ENDBRANCH  16  17
ENDBRANCH  15  16
ENDBRANCH   1  15
TORSDOF 3
