REMARK  Name = ZINC13582100
REMARK  4 active torsions:
REMARK  status: ('A' for Active; 'I' for Inactive)
REMARK    1  A    between atoms: C_1  and  C_2
REMARK    2  A    between atoms: C_7  and  N_8
REMARK    3  A    between atoms: N_8  and  S_9
REMARK    4  A    between atoms: S_9  and  C_12
REMARK                            x       y       z     vdW  Elec       q    Type
REMARK                         _______ _______ _______ _____ _____    ______ ____
ROOT
ATOM      1  C   UNL     1      -2.365  -0.211   2.469  0.00  0.00    +0.111 A 
ATOM      2  C   UNL     1      -1.118  -0.220   3.071  0.00  0.00    +0.031 A 
ATOM      3  C   UNL     1      -1.002  -0.027   4.432  0.00  0.00    +0.030 A 
ATOM      4  C   UNL     1      -2.141   0.168   5.207  0.00  0.00    +0.066 A 
ATOM      5  C   UNL     1      -3.398   0.172   4.600  0.00  0.00    +0.068 A 
ATOM      6  C   UNL     1      -3.502  -0.020   3.227  0.00  0.00    +0.056 A 
ATOM      7  N   UNL     1      -4.550   0.364   5.359  0.00  0.00    -0.316 N 
ATOM      8  H   UNL     1      -5.419   0.365   4.928  0.00  0.00    +0.169 HD
ATOM      9  C   UNL     1      -4.458   0.551   6.691  0.00  0.00    +0.314 A 
ATOM     10  O   UNL     1      -5.460   0.719   7.357  0.00  0.00    -0.262 OA
ATOM     11  C   UNL     1      -3.115   0.547   7.339  0.00  0.00    +0.314 A 
ATOM     12  O   UNL     1      -3.011   0.713   8.537  0.00  0.00    -0.262 OA
ATOM     13  N   UNL     1      -2.016   0.358   6.580  0.00  0.00    -0.316 N 
ATOM     14  H   UNL     1      -1.138   0.355   6.992  0.00  0.00    +0.169 HD
ENDROOT
BRANCH   1  15
ATOM     15  S   UNL     1      -2.501  -0.453   0.729  0.00  0.00    +0.072 S 
ATOM     16  O   UNL     1      -3.810  -0.951   0.489  0.00  0.00    -0.150 OA
ATOM     17  O   UNL     1      -1.333  -1.154   0.323  0.00  0.00    -0.150 OA
BRANCH  15  18
ATOM     18  N   UNL     1      -2.426   1.042   0.019  0.00  0.00    -0.216 N 
ATOM     19  H   UNL     1      -3.171   1.363  -0.513  0.00  0.00    +0.174 HD
BRANCH  18  26
ATOM     20  C   UNL     1      -2.782   3.856   0.230  0.00  0.00    +0.046 C 
ATOM     21  C   UNL     1      -1.419   3.217   0.295  0.00  0.00    -0.027 A 
ATOM     22  C   UNL     1      -0.294   4.003   0.455  0.00  0.00    +0.025 A 
ATOM     23  C   UNL     1       0.958   3.418   0.514  0.00  0.00    +0.041 A 
ATOM     24  C   UNL     1       1.088   2.044   0.413  0.00  0.00    +0.022 A 
ATOM     25  C   UNL     1      -0.033   1.253   0.253  0.00  0.00    +0.026 A 
ATOM     26  C   UNL     1      -1.291   1.839   0.187  0.00  0.00    +0.051 A 
ATOM     27 CL   UNL     1       2.369   4.409   0.715  0.00  0.00    -0.084 Cl
ENDBRANCH  18  26
ENDBRANCH  15  18
ENDBRANCH   1  15
TORSDOF 3
