REMARK  Name = ZINC03552524
REMARK  5 active torsions:
REMARK  status: ('A' for Active; 'I' for Inactive)
REMARK    1  A    between atoms: C_3  and  C_6
REMARK    2  A    between atoms: C_6  and  N_7
REMARK    3  A    between atoms: C_11  and  C_13
REMARK    4  A    between atoms: C_13  and  S_14
REMARK    5  A    between atoms: S_14  and  C_15
REMARK                            x       y       z     vdW  Elec       q    Type
REMARK                         _______ _______ _______ _____ _____    ______ ____
ROOT
ATOM      1  S   UNL     1      -1.045   3.885   0.447  0.00  0.00    -0.077 S 
ENDROOT
BRANCH   1   2
ATOM      2  C   UNL     1      -2.692   4.468   0.219  0.00  0.00    +0.191 A 
ATOM      3  N   UNL     1      -3.696   3.599   0.213  0.00  0.00    -0.207 NA
ATOM      4  C   UNL     1      -4.952   3.977   0.047  0.00  0.00    +0.129 A 
ATOM      5  C   UNL     1      -5.245   5.358  -0.132  0.00  0.00    +0.051 A 
ATOM      6  C   UNL     1      -6.546   5.999  -0.333  0.00  0.00    -0.025 A 
ATOM      7  C   UNL     1      -6.552   7.339  -0.478  0.00  0.00    -0.004 A 
ATOM      8  S   UNL     1      -4.851   7.825  -0.359  0.00  0.00    -0.073 S 
ATOM      9  C   UNL     1      -4.132   6.222  -0.114  0.00  0.00    +0.115 A 
ATOM     10  N   UNL     1      -2.906   5.767   0.063  0.00  0.00    -0.214 NA
ATOM     11  C   UNL     1      -7.742   8.224  -0.694  0.00  0.00    +0.043 C 
ATOM     12  C   UNL     1      -8.933   7.344  -1.099  0.00  0.00    +0.005 C 
ATOM     13  C   UNL     1      -9.018   6.159  -0.133  0.00  0.00    +0.005 C 
ATOM     14  C   UNL     1      -7.849   5.205  -0.378  0.00  0.00    +0.037 C 
ATOM     15  N   UNL     1      -5.970   3.040   0.047  0.00  0.00    -0.343 N 
ATOM     16  H   UNL     1      -7.012   3.362  -0.092  0.00  0.00    +0.144 HD
ATOM     17  H   UNL     1      -5.736   1.974   0.186  0.00  0.00    +0.144 HD
ENDBRANCH   1   2
BRANCH   1  18
ATOM     18  C   UNL     1      -1.359   2.110   0.607  0.00  0.00    +0.173 C 
BRANCH  18  23
ATOM     19  N   UNL     1       1.136  -1.943   1.289  0.00  0.00    -0.292 N 
ATOM     20  C   UNL     1       1.125  -0.603   1.143  0.00  0.00    +0.306 C 
ATOM     21  O   UNL     1       2.167   0.020   1.174  0.00  0.00    -0.252 OA
ATOM     22  N   UNL     1      -0.043   0.045   0.962  0.00  0.00    -0.239 N 
ATOM     23  C   UNL     1      -0.054   1.385   0.816  0.00  0.00    +0.231 C 
ATOM     24  O   UNL     1       0.986   2.007   0.847  0.00  0.00    -0.274 OA
ATOM     25  H   UNL     1       0.192  -2.507   1.260  0.00  0.00    +0.151 HD
ATOM     26  H   UNL     1      -0.987  -0.519   0.933  0.00  0.00    +0.159 HD
BRANCH  19  27
ATOM     27  C   UNL     1       2.405  -2.648   1.486  0.00  0.00    +0.180 C 
BRANCH  27  30
ATOM     28  C   UNL     1       1.833  -6.276   1.185  0.00  0.00    +0.041 A 
ATOM     29  C   UNL     1       2.108  -5.014   0.611  0.00  0.00    +0.046 A 
ATOM     30  C   UNL     1       2.143  -4.126   1.621  0.00  0.00    +0.122 A 
ATOM     31  O   UNL     1       1.910  -4.780   2.770  0.00  0.00    -0.466 OA
ATOM     32  C   UNL     1       1.715  -6.084   2.511  0.00  0.00    +0.195 A 
ENDBRANCH  27  30
ENDBRANCH  19  27
ENDBRANCH  18  23
ENDBRANCH   1  18
TORSDOF 5
