REMARK  Name = ZINC05157983
REMARK  8 active torsions:
REMARK  status: ('A' for Active; 'I' for Inactive)
REMARK    1  A    between atoms: C_2  and  C_3
REMARK    2  A    between atoms: C_15  and  O_17
REMARK    3  A    between atoms: O_17  and  C_18
REMARK    4  A    between atoms: C_20  and  O_33
REMARK    5  A    between atoms: C_22  and  O_32
REMARK    6  A    between atoms: C_24  and  O_31
REMARK    7  A    between atoms: C_26  and  C_29
REMARK    8  A    between atoms: C_29  and  O_30
REMARK                            x       y       z     vdW  Elec       q    Type
REMARK                         _______ _______ _______ _____ _____    ______ ____
ROOT
ATOM      1  C   UNL     1      -2.661  -1.882  -3.260  0.00  0.00    +0.286 C 
ATOM      2  C   UNL     1      -3.994  -1.493  -3.903  0.00  0.00    +0.201 C 
ATOM      3  C   UNL     1      -4.093  -2.142  -5.287  0.00  0.00    +0.179 C 
ATOM      4  C   UNL     1      -2.891  -1.706  -6.130  0.00  0.00    +0.177 C 
ATOM      5  C   UNL     1      -1.600  -2.086  -5.401  0.00  0.00    +0.178 C 
ATOM      6  O   UNL     1      -1.586  -1.475  -4.109  0.00  0.00    -0.340 OA
ENDROOT
BRANCH   4   7
ATOM      7  O   UNL     1      -2.935  -2.361  -7.399  0.00  0.00    -0.386 OA
ATOM      8  H   UNL     1      -3.730  -2.168  -7.915  0.00  0.00    +0.210 HD
ENDBRANCH   4   7
BRANCH   3   9
ATOM      9  O   UNL     1      -5.302  -1.727  -5.925  0.00  0.00    -0.386 OA
ATOM     10  H   UNL     1      -6.104  -1.966  -5.441  0.00  0.00    +0.210 HD
ENDBRANCH   3   9
BRANCH   2  11
ATOM     11  O   UNL     1      -5.072  -1.948  -3.083  0.00  0.00    -0.384 OA
ATOM     12  H   UNL     1      -5.069  -1.580  -2.189  0.00  0.00    +0.210 HD
ENDBRANCH   2  11
BRANCH   1  13
ATOM     13  O   UNL     1      -2.537  -1.234  -1.992  0.00  0.00    -0.309 OA
BRANCH  13  24
ATOM     14  C   UNL     1      -1.293  -0.775   0.010  0.00  0.00    +0.088 C 
ATOM     15  C   UNL     1      -1.351  -1.635   1.272  0.00  0.00    +0.045 C 
ATOM     16  C   UNL     1      -0.860  -0.811   2.467  0.00  0.00    +0.050 C 
ATOM     17  C   UNL     1      -0.589  -1.759   3.640  0.00  0.00    +0.233 C 
ATOM     18  O   UNL     1       0.503  -2.616   3.295  0.00  0.00    -0.461 OA
ATOM     19  C   UNL     1       0.433  -3.252   2.109  0.00  0.00    +0.338 C 
ATOM     20  O   UNL     1       1.150  -4.214   1.910  0.00  0.00    -0.245 OA
ATOM     21  C   UNL     1      -0.461  -2.841   1.090  0.00  0.00    +0.075 C 
ATOM     22  C   UNL     1      -0.553  -3.506  -0.086  0.00  0.00    +0.201 C 
ATOM     23  O   UNL     1      -1.448  -3.010  -0.975  0.00  0.00    -0.470 OA
ATOM     24  C   UNL     1      -1.375  -1.619  -1.254  0.00  0.00    +0.316 C 
BRANCH  14  26
ATOM     25  C   UNL     1      -0.016   1.306   0.009  0.00  0.00    +0.004 C 
ATOM     26  C   UNL     1       0.002  -0.004   0.002  0.00  0.00    -0.025 C 
ENDBRANCH  14  26
ENDBRANCH  13  24
ENDBRANCH   1  13
BRANCH   5  27
ATOM     27  C   UNL     1      -0.395  -1.601  -6.208  0.00  0.00    +0.190 C 
BRANCH  27  28
ATOM     28  O   UNL     1       0.809  -2.057  -5.588  0.00  0.00    -0.392 OA
ATOM     29  H   UNL     1       1.615  -1.785  -6.048  0.00  0.00    +0.210 HD
ENDBRANCH  27  28
ENDBRANCH   5  27
TORSDOF 8
