REMARK  Name = ZINC45036680
REMARK  7 active torsions:
REMARK  status: ('A' for Active; 'I' for Inactive)
REMARK    1  A    between atoms: C_1  and  C_2
REMARK    2  A    between atoms: C_4  and  S_23
REMARK    3  A    between atoms: C_6  and  N_9
REMARK    4  A    between atoms: C_7  and  C_8
REMARK    5  A    between atoms: C_10  and  C_12
REMARK    6  A    between atoms: N_20  and  C_21
REMARK    7  A    between atoms: S_23  and  N_26
REMARK                            x       y       z     vdW  Elec       q    Type
REMARK                         _______ _______ _______ _____ _____    ______ ____
ROOT
ATOM      1  N   UNL     1      -0.562  -2.815   2.384  0.00  0.00    -0.280 N 
ATOM      2  C   UNL     1      -0.386  -4.152   2.379  0.00  0.00    +0.266 C 
ATOM      3  O   UNL     1      -0.309  -4.752   1.324  0.00  0.00    -0.268 OA
ATOM      4  H   UNL     1      -0.576  -2.330   3.224  0.00  0.00    +0.155 HD
ENDROOT
BRANCH   2   5
ATOM      5  C   UNL     1      -0.287  -4.883   3.649  0.00  0.00    +0.124 A 
ATOM      6  C   UNL     1      -0.221  -6.236   3.777  0.00  0.00    +0.079 A 
ATOM      7  C   UNL     1      -0.135  -6.534   5.160  0.00  0.00    +0.019 A 
ATOM      8  C   UNL     1      -0.045  -7.731   5.882  0.00  0.00    +0.011 A 
ATOM      9  C   UNL     1       0.025  -7.699   7.244  0.00  0.00    +0.001 A 
ATOM     10  C   UNL     1       0.007  -6.488   7.925  0.00  0.00    +0.002 A 
ATOM     11  C   UNL     1      -0.082  -5.298   7.238  0.00  0.00    +0.026 A 
ATOM     12  C   UNL     1      -0.154  -5.305   5.848  0.00  0.00    +0.051 A 
ATOM     13  N   UNL     1      -0.241  -4.307   4.906  0.00  0.00    -0.338 N 
ATOM     14  C   UNL     1      -0.283  -2.869   5.187  0.00  0.00    +0.149 C 
ATOM     15 CL   UNL     1      -0.238  -7.389   2.480  0.00  0.00    -0.081 Cl
ENDBRANCH   2   5
BRANCH   1  21
ATOM     16  C   UNL     1      -2.352   1.043  -0.081  0.00  0.00    +0.044 C 
ATOM     17  C   UNL     1      -1.587  -0.255  -0.047  0.00  0.00    -0.044 A 
ATOM     18  C   UNL     1      -1.044  -0.767  -1.211  0.00  0.00    +0.032 A 
ATOM     19  C   UNL     1      -0.341  -1.958  -1.185  0.00  0.00    +0.107 A 
ATOM     20  C   UNL     1      -0.179  -2.639   0.006  0.00  0.00    +0.052 A 
ATOM     21  C   UNL     1      -0.723  -2.128   1.177  0.00  0.00    +0.039 A 
ATOM     22  C   UNL     1      -1.424  -0.928   1.147  0.00  0.00    -0.026 A 
ATOM     23  C   UNL     1      -2.010  -0.366   2.416  0.00  0.00    +0.046 C 
BRANCH  19  24
ATOM     24  S   UNL     1       0.349  -2.606  -2.671  0.00  0.00    +0.056 S 
ATOM     25  O   UNL     1       0.492  -4.006  -2.475  0.00  0.00    -0.153 OA
ATOM     26  O   UNL     1      -0.408  -2.060  -3.742  0.00  0.00    -0.153 OA
BRANCH  24  27
ATOM     27  N   UNL     1       1.880  -1.990  -2.810  0.00  0.00    -0.204 NA
ATOM     28  H   UNL     1       2.224  -1.389  -2.131  0.00  0.00    +0.144 HD
ATOM     29  H   UNL     1       2.432  -2.229  -3.570  0.00  0.00    +0.144 HD
ENDBRANCH  24  27
ENDBRANCH  19  24
ENDBRANCH   1  21
TORSDOF 4
