REMARK  Name = ZINC27470715
REMARK  12 active torsions:
REMARK  status: ('A' for Active; 'I' for Inactive)
REMARK    1  A    between atoms: C_1  and  C_2
REMARK    2  A    between atoms: C_4  and  C_38
REMARK    3  A    between atoms: C_6  and  C_37
REMARK    4  A    between atoms: C_9  and  C_12
REMARK    5  A    between atoms: C_12  and  N_13
REMARK    6  A    between atoms: C_14  and  C_15
REMARK    7  A    between atoms: C_18  and  C_21
REMARK    8  A    between atoms: N_22  and  C_23
REMARK    9  A    between atoms: C_23  and  C_24
REMARK   10  A    between atoms: C_26  and  C_36
REMARK   11  A    between atoms: C_28  and  C_35
REMARK   12  A    between atoms: C_31  and  C_34
REMARK                            x       y       z     vdW  Elec       q    Type
REMARK                         _______ _______ _______ _____ _____    ______ ____
ROOT
ATOM      1  C   UNL     1       1.211  -2.952  -8.699  0.00  0.00    -0.009 A 
ATOM      2  C   UNL     1      -0.176  -3.113  -8.673  0.00  0.00    +0.010 A 
ATOM      3  C   UNL     1      -0.999  -2.033  -8.897  0.00  0.00    +0.010 A 
ATOM      4  C   UNL     1      -0.447  -0.774  -9.149  0.00  0.00    -0.009 A 
ATOM      5  C   UNL     1       0.941  -0.612  -9.173  0.00  0.00    +0.010 A 
ATOM      6  C   UNL     1       1.764  -1.692  -8.945  0.00  0.00    +0.010 A 
ENDROOT
BRANCH   1   8
ATOM      7  N   UNL     1       1.583  -5.276  -8.231  0.00  0.00    -0.389 N 
ATOM      8  C   UNL     1       2.094  -4.110  -8.459  0.00  0.00    +0.086 C 
ATOM      9  H   UNL     1       0.620  -5.389  -8.217  0.00  0.00    +0.159 HD
BRANCH   7  10
ATOM     10  C   UNL     1       2.459  -6.426  -7.993  0.00  0.00    +0.119 C 
BRANCH  10  19
ATOM     11  C   UNL     1       2.762  -5.195  -3.159  0.00  0.00    +0.011 C 
ATOM     12  C   UNL     1       2.415  -6.313  -4.144  0.00  0.00    -0.031 C 
ATOM     13  C   UNL     1       0.957  -6.733  -3.946  0.00  0.00    +0.013 C 
ATOM     14  C   UNL     1       0.609  -7.851  -4.931  0.00  0.00    -0.031 C 
ATOM     15  C   UNL     1       1.524  -9.052  -4.682  0.00  0.00    +0.013 C 
ATOM     16  C   UNL     1       2.982  -8.632  -4.881  0.00  0.00    -0.031 C 
ATOM     17  C   UNL     1       3.329  -7.514  -3.896  0.00  0.00    +0.013 C 
ATOM     18  C   UNL     1       3.178  -8.130  -6.313  0.00  0.00    +0.015 C 
ATOM     19  C   UNL     1       2.263  -6.929  -6.561  0.00  0.00    -0.010 C 
ATOM     20  C   UNL     1       2.610  -5.811  -5.576  0.00  0.00    +0.015 C 
ATOM     21  C   UNL     1       0.805  -7.348  -6.363  0.00  0.00    +0.015 C 
ATOM     22  C   UNL     1       3.897  -9.833  -4.632  0.00  0.00    +0.011 C 
ATOM     23  C   UNL     1      -0.849  -8.270  -4.732  0.00  0.00    +0.011 C 
ENDBRANCH  10  19
ENDBRANCH   7  10
ENDBRANCH   1   8
BRANCH   4  24
ATOM     24  C   UNL     1      -1.330   0.385  -9.389  0.00  0.00    +0.086 C 
ATOM     25  N   UNL     1      -2.611   0.220  -9.448  0.00  0.00    -0.389 N 
ATOM     26  H   UNL     1      -3.135   0.719 -10.095  0.00  0.00    +0.159 HD
BRANCH  25  27
ATOM     27  C   UNL     1      -3.271  -0.720  -8.539  0.00  0.00    +0.119 C 
BRANCH  27  28
ATOM     28  C   UNL     1      -4.605  -0.130  -8.076  0.00  0.00    -0.010 C 
ATOM     29  C   UNL     1      -4.352   1.192  -7.348  0.00  0.00    +0.015 C 
ATOM     30  C   UNL     1      -5.685   1.782  -6.884  0.00  0.00    -0.031 C 
ATOM     31  C   UNL     1      -6.375   0.800  -5.935  0.00  0.00    +0.013 C 
ATOM     32  C   UNL     1      -6.628  -0.522  -6.663  0.00  0.00    -0.031 C 
ATOM     33  C   UNL     1      -5.295  -1.112  -7.127  0.00  0.00    +0.015 C 
ATOM     34  C   UNL     1      -7.524  -0.271  -7.878  0.00  0.00    +0.013 C 
ATOM     35  C   UNL     1      -6.835   0.711  -8.827  0.00  0.00    -0.031 C 
ATOM     36  C   UNL     1      -6.582   2.032  -8.098  0.00  0.00    +0.013 C 
ATOM     37  C   UNL     1      -5.501   0.120  -9.290  0.00  0.00    +0.015 C 
ATOM     38  C   UNL     1      -7.731   0.961 -10.041  0.00  0.00    +0.011 C 
ATOM     39  C   UNL     1      -7.318  -1.503  -5.714  0.00  0.00    +0.011 C 
ATOM     40  C   UNL     1      -5.432   3.103  -6.156  0.00  0.00    +0.011 C 
ENDBRANCH  27  28
ENDBRANCH  25  27
ENDBRANCH   4  24
TORSDOF 6
