REMARK  Name = ZINC45725435
REMARK  9 active torsions:
REMARK  status: ('A' for Active; 'I' for Inactive)
REMARK    1  A    between atoms: C_1  and  N_2
REMARK    2  A    between atoms: N_2  and  C_3
REMARK    3  A    between atoms: N_2  and  C_4
REMARK    4  A    between atoms: C_4  and  C_6
REMARK    5  A    between atoms: C_4  and  C_21
REMARK    6  A    between atoms: C_6  and  N_7
REMARK    7  A    between atoms: N_10  and  C_11
REMARK    8  A    between atoms: C_16  and  C_17
REMARK    9  A    between atoms: C_17  and  C_18
REMARK                            x       y       z     vdW  Elec       q    Type
REMARK                         _______ _______ _______ _____ _____    ______ ____
ROOT
ATOM      1  N   UNL     1      -1.776   1.536  -1.159  0.00  0.00    -0.300 N 
ATOM      2  C   UNL     1      -2.280   2.268  -2.172  0.00  0.00    +0.304 C 
ATOM      3  O   UNL     1      -2.983   1.741  -3.012  0.00  0.00    -0.253 OA
ATOM      4  N   UNL     1      -2.004   3.585  -2.254  0.00  0.00    -0.269 N 
ATOM      5  H   UNL     1      -1.214   1.956  -0.489  0.00  0.00    +0.150 HD
ATOM      6  H   UNL     1      -1.392   3.992  -1.622  0.00  0.00    +0.156 HD
ENDROOT
BRANCH   4   7
ATOM      7  C   UNL     1      -2.602   4.364  -3.251  0.00  0.00    +0.038 A 
ATOM      8  C   UNL     1      -3.012   3.777  -4.441  0.00  0.00    +0.023 A 
ATOM      9  C   UNL     1      -3.602   4.548  -5.422  0.00  0.00    +0.002 A 
ATOM     10  C   UNL     1      -3.783   5.905  -5.222  0.00  0.00    +0.000 A 
ATOM     11  C   UNL     1      -3.375   6.492  -4.039  0.00  0.00    +0.006 A 
ATOM     12  C   UNL     1      -2.791   5.725  -3.050  0.00  0.00    -0.017 A 
BRANCH  12  13
ATOM     13  C   UNL     1      -2.352   6.365  -1.759  0.00  0.00    +0.132 C 
BRANCH  13  14
ATOM     14  C   UNL     1      -0.892   6.728  -1.849  0.00  0.00    +0.215 C 
ATOM     15  O   UNL     1      -0.269   6.490  -2.862  0.00  0.00    -0.276 OA
ATOM     16  N   UNL     1      -0.278   7.317  -0.803  0.00  0.00    -0.329 N 
ATOM     17  H   UNL     1      -0.776   7.507   0.007  0.00  0.00    +0.145 HD
ATOM     18  H   UNL     1       0.661   7.551  -0.861  0.00  0.00    +0.145 HD
ENDBRANCH  13  14
ENDBRANCH  12  13
ENDBRANCH   4   7
BRANCH   1  19
ATOM     19  C   UNL     1      -2.075   0.104  -1.070  0.00  0.00    +0.095 C 
BRANCH  19  20
ATOM     20  C   UNL     1      -1.288  -0.510   0.089  0.00  0.00    -0.014 C 
BRANCH  20  21
ATOM     21  C   UNL     1      -1.774   0.073   1.391  0.00  0.00    -0.022 A 
ATOM     22  C   UNL     1      -1.226   1.062   2.139  0.00  0.00    +0.009 A 
ATOM     23  C   UNL     1      -1.853   1.440   3.312  0.00  0.00    +0.008 A 
ATOM     24  C   UNL     1      -2.996   0.811   3.679  0.00  0.00    +0.045 A 
ATOM     25  S   UNL     1      -3.223  -0.352   2.343  0.00  0.00    -0.103 S 
ENDBRANCH  20  21
BRANCH  20  27
ATOM     26  C   UNL     1      -0.920  -2.548  -1.122  0.00  0.00    -0.096 C 
ATOM     27  N   UNL     1      -1.489  -1.966   0.100  0.00  0.00    +0.382 N 
ATOM     28  C   UNL     1      -0.822  -2.543   1.274  0.00  0.00    -0.096 C 
ATOM     29  H   UNL     1      -2.477  -2.168   0.141  0.00  0.00    -0.082 HD
ENDBRANCH  20  27
ENDBRANCH  19  20
ENDBRANCH   1  19
TORSDOF 7
