REMARK  Name = ZINC37083767
REMARK  4 active torsions:
REMARK  status: ('A' for Active; 'I' for Inactive)
REMARK    1  A    between atoms: C_1  and  N_2
REMARK    2  A    between atoms: N_2  and  C_3
REMARK    3  A    between atoms: C_8  and  C_10
REMARK    4  A    between atoms: C_15  and  N_16
REMARK                            x       y       z     vdW  Elec       q    Type
REMARK                         _______ _______ _______ _____ _____    ______ ____
ROOT
ATOM      1  C   UNL     1      -0.053  -0.112  -2.565  0.00  0.00    +0.059 A 
ATOM      2  C   UNL     1       1.066   0.617  -2.976  0.00  0.00    +0.035 A 
ATOM      3  C   UNL     1       0.969   1.483  -4.044  0.00  0.00    +0.042 A 
ATOM      4  C   UNL     1      -0.236   1.636  -4.714  0.00  0.00    +0.022 A 
ATOM      5  C   UNL     1      -1.350   0.924  -4.319  0.00  0.00    +0.025 A 
ATOM      6  C   UNL     1      -1.269   0.042  -3.249  0.00  0.00    +0.037 A 
ATOM      7 CL   UNL     1       2.361   2.386  -4.553  0.00  0.00    -0.084 Cl
ENDROOT
BRANCH   1  10
ATOM      8  C   UNL     1       1.156   0.720  -0.157  0.00  0.00    +0.132 C 
ATOM      9  N   UNL     1       0.671  -0.656  -0.294  0.00  0.00    -0.297 N 
ATOM     10  C   UNL     1       0.043  -1.040  -1.423  0.00  0.00    +0.248 C 
ATOM     11  O   UNL     1      -0.444  -2.151  -1.501  0.00  0.00    -0.270 OA
BRANCH   9  12
ATOM     12  C   UNL     1       0.870  -1.615   0.795  0.00  0.00    +0.076 C 
ATOM     13  C   UNL     1       0.234  -1.077   2.094  0.00  0.00    +0.022 C 
ATOM     14  C   UNL     1       1.212  -1.526   3.209  0.00  0.00    +0.002 C 
ATOM     15  C   UNL     1       2.598  -1.347   2.541  0.00  0.00    +0.002 C 
ATOM     16  C   UNL     1       2.373  -1.786   1.079  0.00  0.00    +0.022 C 
ENDBRANCH   9  12
ENDBRANCH   1  10
BRANCH   6  17
ATOM     17  N   UNL     1      -2.388  -0.681  -2.854  0.00  0.00    -0.357 N 
ATOM     18  H   UNL     1      -2.355  -1.228  -2.054  0.00  0.00    +0.142 HD
ATOM     19  H   UNL     1      -3.203  -0.638  -3.379  0.00  0.00    +0.142 HD
ENDBRANCH   6  17
TORSDOF 3
