REMARK  Name = ZINC50251464
REMARK  5 active torsions:
REMARK  status: ('A' for Active; 'I' for Inactive)
REMARK    1  A    between atoms: C_4  and  CA_7
REMARK    2  A    between atoms: CA_7  and  C_9
REMARK    3  A    between atoms: CA_7  and  N_12
REMARK    4  A    between atoms: C_18  and  C_21
REMARK    5  A    between atoms: C_21  and  N_22
REMARK                            x       y       z     vdW  Elec       q    Type
REMARK                         _______ _______ _______ _____ _____    ______ ____
ROOT
ATOM      1  N   UNL     1       2.890  -1.926  -2.534  0.00  0.00    -0.286 N 
ATOM      2  C   UNL     1       3.848  -2.583  -3.217  0.00  0.00    +0.303 C 
ATOM      3  O   UNL     1       4.697  -1.960  -3.825  0.00  0.00    -0.253 OA
ATOM      4  N   UNL     1       3.867  -3.931  -3.224  0.00  0.00    -0.285 N 
ATOM      5  C   UNL     1       2.902  -4.805  -2.540  0.00  0.00    +0.109 C 
ATOM      6  C   UNL     1       3.303  -6.262  -2.851  0.00  0.00    +0.022 C 
ATOM      7  C   UNL     1       4.133  -6.123  -4.155  0.00  0.00    -0.010 C 
ATOM      8  C   UNL     1       4.853  -4.773  -3.925  0.00  0.00    +0.111 C 
ATOM      9  H   UNL     1       2.213  -2.423  -2.049  0.00  0.00    +0.151 HD
ENDROOT
BRANCH   1  10
ATOM     10  CA  UNL     1       2.870  -0.461  -2.526  0.00  0.00    +0.191 C 
BRANCH  10  14
ATOM     11  C   UNL     1      -0.019   1.526   0.010  0.00  0.00    +0.000 C 
ATOM     12  C   UNL     1       1.417   2.055  -0.000  0.00  0.00    +0.000 C 
ATOM     13  C   UNL     1       2.133   1.562  -1.259  0.00  0.00    +0.006 C 
ATOM     14  C   UNL     1       2.154   0.032  -1.268  0.00  0.00    +0.020 C 
ATOM     15  C   UNL     1       0.718  -0.497  -1.257  0.00  0.00    +0.006 C 
ATOM     16  C   UNL     1       0.002  -0.004   0.002  0.00  0.00    +0.000 C 
ENDBRANCH  10  14
BRANCH  10  17
ATOM     17  C   UNL     1       2.141   0.038  -3.747  0.00  0.00    +0.376 C 
ATOM     18  O   UNL     1       2.167   1.224  -4.030  0.00  0.00    -0.244 OA
ATOM     19  OXT UNL     1       1.525  -0.744  -4.452  0.00  0.00    -0.244 OA
ENDBRANCH  10  17
ENDBRANCH   1  10
BRANCH   7  20
ATOM     20  C   UNL     1       5.139  -7.268  -4.289  0.00  0.00    -0.081 C 
BRANCH  20  21
ATOM     21  N   UNL     1       5.821  -7.171  -5.587  0.00  0.00    +0.378 N 
ATOM     22  H   UNL     1       6.484  -7.926  -5.676  0.00  0.00    -0.090 HD
ATOM     23  H   UNL     1       5.141  -7.232  -6.330  0.00  0.00    -0.090 HD
ATOM     24  H   UNL     1       6.306  -6.289  -5.646  0.00  0.00    -0.090 HD
ENDBRANCH  20  21
ENDBRANCH   7  20
TORSDOF 5
