REMARK  Name = ZINC66595351
REMARK  8 active torsions:
REMARK  status: ('A' for Active; 'I' for Inactive)
REMARK    1  A    between atoms: C_1  and  C_2
REMARK    2  A    between atoms: C_5  and  C_9
REMARK    3  A    between atoms: C_6  and  C_8
REMARK    4  A    between atoms: C_9  and  C_10
REMARK    5  A    between atoms: C_10  and  C_12
REMARK    6  A    between atoms: C_10  and  N_13
REMARK    7  A    between atoms: N_16  and  C_17
REMARK    8  A    between atoms: C_21  and  C_23
REMARK                            x       y       z     vdW  Elec       q    Type
REMARK                         _______ _______ _______ _____ _____    ______ ____
ROOT
ATOM      1  N   UNL     1      -2.179  -4.396   2.220  0.00  0.00    -0.296 N 
ATOM      2  C   UNL     1      -3.508  -4.176   2.248  0.00  0.00    +0.304 C 
ATOM      3  O   UNL     1      -4.212  -4.585   1.344  0.00  0.00    -0.253 OA
ATOM      4  N   UNL     1      -4.058  -3.503   3.278  0.00  0.00    -0.269 N 
ATOM      5  H   UNL     1      -1.618  -4.071   2.941  0.00  0.00    +0.151 HD
ATOM      6  H   UNL     1      -3.490  -3.115   3.962  0.00  0.00    +0.156 HD
ENDROOT
BRANCH   4   7
ATOM      7  C   UNL     1      -5.449  -3.364   3.361  0.00  0.00    +0.036 A 
ATOM      8  C   UNL     1      -6.277  -4.387   2.912  0.00  0.00    +0.025 A 
ATOM      9  C   UNL     1      -7.650  -4.255   2.991  0.00  0.00    +0.022 A 
ATOM     10  C   UNL     1      -8.210  -3.107   3.517  0.00  0.00    +0.053 A 
ATOM     11  C   UNL     1      -7.386  -2.074   3.971  0.00  0.00    +0.057 A 
ATOM     12  C   UNL     1      -5.999  -2.211   3.896  0.00  0.00    +0.037 A 
ATOM     13 CL   UNL     1      -9.936  -2.946   3.612  0.00  0.00    -0.083 Cl
BRANCH  11  14
ATOM     14  C   UNL     1      -7.980  -0.844   4.534  0.00  0.00    +0.243 C 
ATOM     15  O   UNL     1      -9.188  -0.729   4.602  0.00  0.00    -0.270 OA
ATOM     16  N   UNL     1      -7.183   0.151   4.971  0.00  0.00    -0.325 N 
ATOM     17  H   UNL     1      -6.219   0.059   4.917  0.00  0.00    +0.145 HD
ATOM     18  H   UNL     1      -7.573   0.958   5.341  0.00  0.00    +0.145 HD
ENDBRANCH  11  14
ENDBRANCH   4   7
BRANCH   1  19
ATOM     19  C   UNL     1      -1.581  -5.128   1.100  0.00  0.00    +0.076 C 
ATOM     20  C   UNL     1      -1.674  -6.632   1.366  0.00  0.00    +0.028 C 
BRANCH  19  21
ATOM     21  C   UNL     1      -0.113  -4.725   0.954  0.00  0.00    +0.057 C 
BRANCH  21  26
ATOM     22  C   UNL     1       0.223   0.866  -0.466  0.00  0.00    +0.044 C 
ATOM     23  C   UNL     1       0.135  -0.592  -0.095  0.00  0.00    -0.050 A 
ATOM     24  C   UNL     1       0.350  -0.987   1.212  0.00  0.00    +0.003 A 
ATOM     25  C   UNL     1       0.269  -2.325   1.551  0.00  0.00    +0.004 A 
ATOM     26  C   UNL     1      -0.026  -3.267   0.584  0.00  0.00    -0.043 A 
ATOM     27  C   UNL     1      -0.241  -2.872  -0.723  0.00  0.00    -0.047 A 
ATOM     28  C   UNL     1      -0.165  -1.533  -1.062  0.00  0.00    +0.007 A 
ATOM     29  C   UNL     1      -0.563  -3.899  -1.778  0.00  0.00    +0.044 C 
ENDBRANCH  21  26
ENDBRANCH  19  21
ENDBRANCH   1  19
TORSDOF 5
