REMARK  Name = ZINC41757614
REMARK  5 active torsions:
REMARK  status: ('A' for Active; 'I' for Inactive)
REMARK    1  A    between atoms: C_1  and  C_2
REMARK    2  A    between atoms: C_7  and  N_12
REMARK    3  A    between atoms: C_9  and  C_11
REMARK    4  A    between atoms: N_12  and  C_13
REMARK    5  A    between atoms: C_13  and  C_18
REMARK                            x       y       z     vdW  Elec       q    Type
REMARK                         _______ _______ _______ _____ _____    ______ ____
ROOT
ATOM      1  N   UNL     1       0.135  -2.845   0.736  0.00  0.00    +0.392 N 
ATOM      2  H   UNL     1      -0.036  -2.058   1.344  0.00  0.00    -0.084 HD
ATOM      3  H   UNL     1      -0.180  -2.625  -0.197  0.00  0.00    -0.084 HD
ENDROOT
BRANCH   1   9
ATOM      4  C   UNL     1       2.693  -0.038  -1.278  0.00  0.00    +0.008 C 
ATOM      5  C   UNL     1       1.916  -1.318  -0.965  0.00  0.00    -0.013 C 
ATOM      6  C   UNL     1       2.204  -2.365  -2.044  0.00  0.00    +0.003 C 
ATOM      7  C   UNL     1       1.427  -3.645  -1.732  0.00  0.00    -0.001 C 
ATOM      8  C   UNL     1       1.861  -4.186  -0.368  0.00  0.00    -0.015 C 
ATOM      9  C   UNL     1       1.574  -3.140   0.710  0.00  0.00    -0.067 C 
ATOM     10  C   UNL     1       2.351  -1.859   0.398  0.00  0.00    -0.025 C 
ATOM     11  C   UNL     1       2.064  -0.813   1.477  0.00  0.00    +0.006 C 
ENDBRANCH   1   9
BRANCH   1  12
ATOM     12  C   UNL     1      -0.595  -4.018   1.236  0.00  0.00    +0.036 C 
ATOM     13  C   UNL     1      -0.616  -5.122   0.164  0.00  0.00    -0.001 C 
ATOM     14  C   UNL     1      -2.099  -5.382  -0.173  0.00  0.00    -0.001 C 
ATOM     15  C   UNL     1      -2.814  -4.066   0.223  0.00  0.00    -0.001 C 
ATOM     16  C   UNL     1      -2.067  -3.646   1.513  0.00  0.00    -0.001 C 
BRANCH  12  17
ATOM     17  C   UNL     1       0.053  -4.532   2.495  0.00  0.00    +0.345 C 
ATOM     18  O   UNL     1       0.383  -3.753   3.373  0.00  0.00    -0.248 OA
ATOM     19  O   UNL     1       0.248  -5.727   2.636  0.00  0.00    -0.248 OA
ENDBRANCH  12  17
ENDBRANCH   1  12
TORSDOF 3
