REMARK  Name = ZINC10876824
REMARK  6 active torsions:
REMARK  status: ('A' for Active; 'I' for Inactive)
REMARK    1  A    between atoms: C_13  and  C_17
REMARK    2  A    between atoms: C_17  and  O_19
REMARK    3  A    between atoms: O_19  and  C_20
REMARK    4  A    between atoms: C_20  and  C_21
REMARK    5  A    between atoms: N_23  and  C_24
REMARK    6  A    between atoms: C_25  and  C_29
REMARK                            x       y       z     vdW  Elec       q    Type
REMARK                         _______ _______ _______ _____ _____    ______ ____
ROOT
ATOM      1  C   UNL     1       2.442   5.559   0.009  0.00  0.00    +0.340 C 
ATOM      2  O   UNL     1       1.987   6.170  -0.938  0.00  0.00    -0.245 OA
ENDROOT
BRANCH   1  15
ATOM      3  C   UNL     1      -3.647   1.917  -0.866  0.00  0.00    +0.001 A 
ATOM      4  C   UNL     1      -3.665   3.300  -0.861  0.00  0.00    +0.001 A 
ATOM      5  C   UNL     1      -2.495   4.016  -0.679  0.00  0.00    +0.012 A 
ATOM      6  C   UNL     1      -1.288   3.342  -0.517  0.00  0.00    +0.033 A 
ATOM      7  C   UNL     1      -1.268   1.936  -0.528  0.00  0.00    +0.033 A 
ATOM      8  C   UNL     1      -2.456   1.232  -0.701  0.00  0.00    +0.012 A 
ATOM      9  C   UNL     1       0.008   1.213  -0.351  0.00  0.00    +0.195 C 
ATOM     10  O   UNL     1       0.025  -0.002  -0.356  0.00  0.00    -0.287 OA
ATOM     11  C   UNL     1       1.266   1.969  -0.174  0.00  0.00    +0.034 A 
ATOM     12  C   UNL     1       2.475   1.292  -0.011  0.00  0.00    +0.012 A 
ATOM     13  C   UNL     1       3.651   2.001   0.155  0.00  0.00    +0.002 A 
ATOM     14  C   UNL     1       3.645   3.382   0.162  0.00  0.00    +0.016 A 
ATOM     15  C   UNL     1       2.447   4.081   0.001  0.00  0.00    +0.070 A 
ATOM     16  C   UNL     1       1.248   3.372  -0.169  0.00  0.00    +0.047 A 
ATOM     17  C   UNL     1      -0.030   4.098  -0.340  0.00  0.00    +0.195 C 
ATOM     18  O   UNL     1      -0.045   5.312  -0.335  0.00  0.00    -0.287 OA
ENDBRANCH   1  15
BRANCH   1  19
ATOM     19  O   UNL     1       2.942   6.229   1.065  0.00  0.00    -0.452 OA
BRANCH  19  20
ATOM     20  C   UNL     1       2.904   7.679   1.004  0.00  0.00    +0.328 C 
BRANCH  20  21
ATOM     21  C   UNL     1       3.502   8.251   2.264  0.00  0.00    +0.255 C 
ATOM     22  O   UNL     1       3.919   7.508   3.128  0.00  0.00    -0.272 OA
ATOM     23  N   UNL     1       3.573   9.586   2.431  0.00  0.00    -0.277 N 
ATOM     24  H   UNL     1       3.240  10.180   1.740  0.00  0.00    +0.155 HD
BRANCH  23  25
ATOM     25  C   UNL     1       4.123  10.112   3.590  0.00  0.00    +0.084 A 
ATOM     26  C   UNL     1       4.288  11.447   3.939  0.00  0.00    +0.065 A 
ATOM     27  C   UNL     1       4.893  11.712   5.223  0.00  0.00    +0.022 A 
ATOM     28  C   UNL     1       5.253  10.649   5.964  0.00  0.00    +0.048 A 
ATOM     29  S   UNL     1       4.778   9.264   4.950  0.00  0.00    -0.081 S 
BRANCH  26  30
ATOM     30  C   UNL     1       3.865  12.532   3.049  0.00  0.00    +0.244 C 
ATOM     31  O   UNL     1       3.355  12.274   1.974  0.00  0.00    -0.270 OA
ATOM     32  N   UNL     1       4.040  13.816   3.421  0.00  0.00    -0.325 N 
ATOM     33  H   UNL     1       4.447  14.021   4.277  0.00  0.00    +0.145 HD
ATOM     34  H   UNL     1       3.760  14.534   2.832  0.00  0.00    +0.145 HD
ENDBRANCH  26  30
ENDBRANCH  23  25
ENDBRANCH  20  21
ENDBRANCH  19  20
ENDBRANCH   1  19
TORSDOF 6
