REMARK  Name = ZINC17090435
REMARK  6 active torsions:
REMARK  status: ('A' for Active; 'I' for Inactive)
REMARK    1  A    between atoms: C_1  and  C_2
REMARK    2  A    between atoms: C_9  and  N_32
REMARK    3  A    between atoms: C_10  and  C_30
REMARK    4  A    between atoms: C_11  and  C_13
REMARK    5  A    between atoms: N_15  and  C_22
REMARK    6  A    between atoms: C_22  and  C_23
REMARK                            x       y       z     vdW  Elec       q    Type
REMARK                         _______ _______ _______ _____ _____    ______ ____
ROOT
ATOM      1  C   UNL     1      -1.441   5.499  -1.390  0.00  0.00    -0.009 A 
ATOM      2  C   UNL     1      -1.843   4.742  -2.423  0.00  0.00    +0.091 A 
ATOM      3  N   UNL     1      -1.782   5.465  -3.583  0.00  0.00    -0.342 N 
ATOM      4  C   UNL     1      -1.328   6.738  -3.318  0.00  0.00    +0.050 A 
ATOM      5  C   UNL     1      -1.100   6.817  -1.932  0.00  0.00    +0.004 A 
ATOM      6  C   UNL     1      -0.635   8.007  -1.369  0.00  0.00    +0.010 A 
ATOM      7  C   UNL     1      -0.407   9.092  -2.168  0.00  0.00    +0.001 A 
ATOM      8  C   UNL     1      -0.634   9.020  -3.536  0.00  0.00    +0.002 A 
ATOM      9  C   UNL     1      -1.085   7.853  -4.113  0.00  0.00    +0.026 A 
ENDROOT
BRANCH   1  20
ATOM     10  C   UNL     1       1.859   5.077  -0.173  0.00  0.00    +0.068 C 
ATOM     11  C   UNL     1       0.971   3.889   0.097  0.00  0.00    +0.068 A 
ATOM     12  C   UNL     1      -0.414   3.912   0.191  0.00  0.00    +0.049 A 
ATOM     13  C   UNL     1      -0.843   2.637   0.439  0.00  0.00    +0.222 A 
ATOM     14  N   UNL     1       0.242   1.850   0.504  0.00  0.00    -0.246 N 
ATOM     15  H   UNL     1       0.246   0.865   0.678  0.00  0.00    +0.192 HD
ATOM     16  N   UNL     1       1.372   2.654   0.284  0.00  0.00    -0.176 NA
ATOM     17  O   UNL     1      -2.153   2.322   0.594  0.00  0.00    -0.423 OA
ATOM     18  C   UNL     1      -3.025   3.338   0.761  0.00  0.00    +0.200 C 
ATOM     19  C   UNL     1      -2.722   4.635   0.531  0.00  0.00    +0.098 C 
ATOM     20  C   UNL     1      -1.361   5.076   0.054  0.00  0.00    +0.103 C 
BRANCH  18  21
ATOM     21  N   UNL     1      -4.293   3.036   1.190  0.00  0.00    -0.328 N 
ATOM     22  H   UNL     1      -4.943   3.745   1.319  0.00  0.00    +0.145 HD
ATOM     23  H   UNL     1      -4.540   2.114   1.364  0.00  0.00    +0.145 HD
ENDBRANCH  18  21
BRANCH  19  24
ATOM     24  C   UNL     1      -3.732   5.627   0.749  0.00  0.00    +0.101 C 
ATOM     25  N   UNL     1      -4.532   6.414   0.922  0.00  0.00    -0.191 NA
ENDBRANCH  19  24
ENDBRANCH   1  20
BRANCH   3  26
ATOM     26  C   UNL     1      -2.145   4.961  -4.910  0.00  0.00    +0.158 C 
BRANCH  26  27
ATOM     27  C   UNL     1      -3.561   5.364  -5.230  0.00  0.00    -0.009 A 
ATOM     28  C   UNL     1      -3.806   6.524  -5.942  0.00  0.00    +0.007 A 
ATOM     29  C   UNL     1      -5.105   6.894  -6.236  0.00  0.00    +0.000 A 
ATOM     30  C   UNL     1      -6.160   6.104  -5.818  0.00  0.00    +0.001 A 
ATOM     31  C   UNL     1      -5.917   4.944  -5.107  0.00  0.00    +0.020 A 
ATOM     32  C   UNL     1      -4.617   4.571  -4.817  0.00  0.00    +0.046 A 
ATOM     33 CL   UNL     1      -4.310   3.111  -3.930  0.00  0.00    -0.083 Cl
ENDBRANCH  26  27
ENDBRANCH   3  26
TORSDOF 5
