REMARK  Name = ZINC35454184
REMARK  6 active torsions:
REMARK  status: ('A' for Active; 'I' for Inactive)
REMARK    1  A    between atoms: C_1  and  C_2
REMARK    2  A    between atoms: C_4  and  N_20
REMARK    3  A    between atoms: C_7  and  N_8
REMARK    4  A    between atoms: C_9  and  C_11
REMARK    5  A    between atoms: C_11  and  O_12
REMARK    6  A    between atoms: O_12  and  C_13
REMARK                            x       y       z     vdW  Elec       q    Type
REMARK                         _______ _______ _______ _____ _____    ______ ____
ROOT
ATOM      1  N   UNL     1       0.025  -0.010   2.418  0.00  0.00    -0.282 N 
ATOM      2  C   UNL     1      -0.057  -0.688   3.580  0.00  0.00    +0.255 C 
ATOM      3  O   UNL     1      -0.040  -1.901   3.578  0.00  0.00    -0.272 OA
ATOM      4  H   UNL     1       0.078   0.958   2.424  0.00  0.00    +0.155 HD
ENDROOT
BRANCH   1  11
ATOM      5  C   UNL     1      -1.265   1.183   0.182  0.00  0.00    +0.046 C 
ATOM      6  C   UNL     1      -0.585  -0.158   0.085  0.00  0.00    -0.028 A 
ATOM      7  C   UNL     1      -0.572  -0.840  -1.116  0.00  0.00    +0.028 A 
ATOM      8  C   UNL     1       0.055  -2.076  -1.205  0.00  0.00    +0.025 A 
ATOM      9  C   UNL     1       0.669  -2.626  -0.087  0.00  0.00    +0.024 A 
ATOM     10  C   UNL     1       0.656  -1.944   1.113  0.00  0.00    +0.025 A 
ATOM     11  C   UNL     1       0.034  -0.705   1.201  0.00  0.00    +0.037 A 
BRANCH   8  12
ATOM     12  N   UNL     1       0.068  -2.767  -2.422  0.00  0.00    -0.358 N 
ATOM     13  H   UNL     1      -0.361  -2.383  -3.202  0.00  0.00    +0.142 HD
ATOM     14  H   UNL     1       0.506  -3.630  -2.484  0.00  0.00    +0.142 HD
ENDBRANCH   8  12
ENDBRANCH   1  11
BRANCH   2  15
ATOM     15  C   UNL     1      -0.168   0.062   4.883  0.00  0.00    +0.324 C 
BRANCH  15  16
ATOM     16  O   UNL     1      -0.240  -0.870   5.964  0.00  0.00    -0.482 OA
BRANCH  16  17
ATOM     17  C   UNL     1      -0.344  -0.355   7.217  0.00  0.00    +0.134 A 
ATOM     18  C   UNL     1      -0.383   1.020   7.402  0.00  0.00    +0.047 A 
ATOM     19  C   UNL     1      -0.489   1.541   8.677  0.00  0.00    +0.004 A 
ATOM     20  C   UNL     1      -0.556   0.695   9.768  0.00  0.00    +0.001 A 
ATOM     21  C   UNL     1      -0.518  -0.675   9.587  0.00  0.00    +0.018 A 
ATOM     22  C   UNL     1      -0.418  -1.202   8.313  0.00  0.00    +0.055 A 
ATOM     23  I   UNL     1      -0.369  -3.279   8.039  0.00  0.00    -0.040 I 
ENDBRANCH  16  17
ENDBRANCH  15  16
ENDBRANCH   2  15
TORSDOF 5
