REMARK  Name = ZINC62789593
REMARK  4 active torsions:
REMARK  status: ('A' for Active; 'I' for Inactive)
REMARK    1  A    between atoms: C_6  and  O_7
REMARK    2  A    between atoms: O_7  and  C_8
REMARK    3  A    between atoms: C_13  and  C_14
REMARK    4  A    between atoms: N_15  and  O_16
REMARK                            x       y       z     vdW  Elec       q    Type
REMARK                         _______ _______ _______ _____ _____    ______ ____
ROOT
ATOM      1  C   UNL     1      -1.099  -2.090  -0.220  0.00  0.00    +0.140 A 
ATOM      2  C   UNL     1       0.120  -2.751  -0.210  0.00  0.00    +0.067 A 
ATOM      3  C   UNL     1       0.159  -4.132  -0.174  0.00  0.00    +0.044 A 
ATOM      4  C   UNL     1      -1.017  -4.865  -0.147  0.00  0.00    +0.021 A 
ATOM      5  C   UNL     1      -2.237  -4.221  -0.157  0.00  0.00    +0.016 A 
ATOM      6  C   UNL     1      -2.288  -2.828  -0.187  0.00  0.00    +0.060 A 
ATOM      7 CL   UNL     1       1.688  -4.953  -0.162  0.00  0.00    -0.083 Cl
ENDROOT
BRANCH   6   8
ATOM      8  C   UNL     1      -3.593  -2.132  -0.191  0.00  0.00    +0.166 C 
ATOM      9  N   UNL     1      -4.471  -2.402  -1.114  0.00  0.00    -0.071 NA
ATOM     10  N   UNL     1      -3.881  -1.195   0.786  0.00  0.00    -0.340 N 
ATOM     11  H   UNL     1      -3.227  -0.994   1.473  0.00  0.00    +0.144 HD
ATOM     12  H   UNL     1      -4.738  -0.739   0.783  0.00  0.00    +0.144 HD
BRANCH   9  13
ATOM     13  O   UNL     1      -4.129  -3.257  -2.189  0.00  0.00    -0.408 OA
ATOM     14  H   UNL     1      -4.845  -3.398  -2.823  0.00  0.00    +0.328 HD
ENDBRANCH   9  13
ENDBRANCH   6   8
BRANCH   1  15
ATOM     15  O   UNL     1      -1.138  -0.734  -0.255  0.00  0.00    -0.455 OA
BRANCH  15  21
ATOM     16  C   UNL     1       0.552   0.552   0.818  0.00  0.00    +0.047 A 
ATOM     17  C   UNL     1       1.752   1.234   0.753  0.00  0.00    +0.019 A 
ATOM     18  C   UNL     1       2.444   1.304  -0.443  0.00  0.00    +0.018 A 
ATOM     19  C   UNL     1       1.938   0.692  -1.575  0.00  0.00    +0.019 A 
ATOM     20  C   UNL     1       0.739   0.009  -1.514  0.00  0.00    +0.047 A 
ATOM     21  C   UNL     1       0.042  -0.062  -0.317  0.00  0.00    +0.129 A 
ATOM     22 BR   UNL     1       4.086   2.239  -0.529  0.00  0.00    -0.050 Br
ENDBRANCH  15  21
ENDBRANCH   1  15
TORSDOF 4
