REMARK  Name = ZINC52920680
REMARK  6 active torsions:
REMARK  status: ('A' for Active; 'I' for Inactive)
REMARK    1  A    between atoms: C_1  and  C_2
REMARK    2  A    between atoms: N_7  and  C_8
REMARK    3  A    between atoms: C_8  and  C_9
REMARK    4  A    between atoms: C_9  and  C_10
REMARK    5  A    between atoms: N_12  and  C_13
REMARK    6  A    between atoms: C_18  and  C_19
REMARK                            x       y       z     vdW  Elec       q    Type
REMARK                         _______ _______ _______ _____ _____    ______ ____
ROOT
ATOM      1  C   UNL     1      -1.412   0.886   4.255  0.00  0.00    +0.219 C 
ATOM      2  O   UNL     1      -0.361   1.195   4.775  0.00  0.00    -0.275 OA
ATOM      3  N   UNL     1      -2.577   1.181   4.864  0.00  0.00    -0.285 N 
ATOM      4  H   UNL     1      -3.418   1.007   4.413  0.00  0.00    +0.155 HD
ENDROOT
BRANCH   3   5
ATOM      5  C   UNL     1      -2.574   1.736   6.141  0.00  0.00    +0.046 A 
ATOM      6  C   UNL     1      -1.499   1.521   6.994  0.00  0.00    +0.024 A 
ATOM      7  C   UNL     1      -1.498   2.072   8.259  0.00  0.00    +0.002 A 
ATOM      8  C   UNL     1      -2.567   2.843   8.689  0.00  0.00    +0.001 A 
ATOM      9  C   UNL     1      -3.642   3.068   7.857  0.00  0.00    +0.015 A 
ATOM     10  C   UNL     1      -3.654   2.521   6.572  0.00  0.00    +0.058 A 
BRANCH  10  11
ATOM     11  C   UNL     1      -4.800   2.763   5.674  0.00  0.00    +0.243 C 
ATOM     12  O   UNL     1      -4.852   2.210   4.592  0.00  0.00    -0.270 OA
ATOM     13  N   UNL     1      -5.788   3.598   6.052  0.00  0.00    -0.325 N 
ATOM     14  H   UNL     1      -5.746   4.040   6.915  0.00  0.00    +0.145 HD
ATOM     15  H   UNL     1      -6.541   3.757   5.461  0.00  0.00    +0.145 HD
ENDBRANCH  10  11
ENDBRANCH   3   5
BRANCH   1  16
ATOM     16  C   UNL     1      -1.415   0.172   2.928  0.00  0.00    +0.118 C 
BRANCH  16  17
ATOM     17  C   UNL     1       0.026  -0.041   2.459  0.00  0.00    +0.135 C 
BRANCH  17  24
ATOM     18  C   UNL     1      -0.040   1.478  -0.001  0.00  0.00    +0.064 C 
ATOM     19  C   UNL     1      -0.008  -0.028   0.003  0.00  0.00    +0.026 A 
ATOM     20  C   UNL     1      -0.003  -0.728  -1.135  0.00  0.00    +0.071 A 
ATOM     21  S   UNL     1       0.037  -2.406  -0.532  0.00  0.00    -0.035 S 
ATOM     22  C   UNL     1       0.044  -2.083   1.118  0.00  0.00    +0.291 A 
ATOM     23  O   UNL     1       0.069  -2.875   2.043  0.00  0.00    -0.259 OA
ATOM     24  N   UNL     1       0.022  -0.735   1.169  0.00  0.00    -0.306 N 
ENDBRANCH  17  24
ENDBRANCH  16  17
ENDBRANCH   1  16
TORSDOF 5
