REMARK  Name = ZINC01685013
REMARK  3 active torsions:
REMARK  status: ('A' for Active; 'I' for Inactive)
REMARK    1  A    between atoms: C_4  and  N_7
REMARK    2  A    between atoms: N_7  and  C_8
REMARK    3  A    between atoms: C_8  and  C_14
REMARK                            x       y       z     vdW  Elec       q    Type
REMARK                         _______ _______ _______ _____ _____    ______ ____
ROOT
ATOM      1  N   UNL     1      -2.907   3.005  -0.113  0.00  0.00    +0.392 N 
ATOM      2  H   UNL     1      -1.811   3.085  -0.158  0.00  0.00    -0.084 HD
ATOM      3  H   UNL     1      -3.291   3.667   0.677  0.00  0.00    -0.084 HD
ENDROOT
BRANCH   1   7
ATOM      4  C   UNL     1      -3.472   5.117  -3.781  0.00  0.00    -0.000 C 
ATOM      5  C   UNL     1      -4.527   5.276  -2.684  0.00  0.00    -0.002 C 
ATOM      6  C   UNL     1      -3.930   4.863  -1.338  0.00  0.00    -0.016 C 
ATOM      7  C   UNL     1      -3.481   3.401  -1.406  0.00  0.00    -0.070 C 
ATOM      8  C   UNL     1      -2.425   3.243  -2.502  0.00  0.00    -0.016 C 
ATOM      9  C   UNL     1      -3.023   3.656  -3.849  0.00  0.00    -0.002 C 
ENDBRANCH   1   7
BRANCH   1  10
ATOM     10  C   UNL     1      -3.265   1.619   0.219  0.00  0.00    +0.036 C 
ATOM     11  C   UNL     1      -2.608   0.669  -0.783  0.00  0.00    -0.001 C 
ATOM     12  C   UNL     1      -1.089   0.832  -0.720  0.00  0.00    -0.001 C 
ATOM     13  C   UNL     1      -0.598   0.502   0.691  0.00  0.00    -0.000 C 
ATOM     14  C   UNL     1      -1.255   1.453   1.694  0.00  0.00    -0.001 C 
ATOM     15  C   UNL     1      -2.775   1.290   1.631  0.00  0.00    -0.001 C 
BRANCH  10  16
ATOM     16  C   UNL     1      -4.763   1.459   0.157  0.00  0.00    +0.345 C 
ATOM     17  O   UNL     1      -5.243   0.426  -0.246  0.00  0.00    -0.248 OA
ATOM     18  O   UNL     1      -5.562   2.463   0.550  0.00  0.00    -0.248 OA
ENDBRANCH  10  16
ENDBRANCH   1  10
TORSDOF 3
