REMARK  Name = ZINC44531919
REMARK  7 active torsions:
REMARK  status: ('A' for Active; 'I' for Inactive)
REMARK    1  A    between atoms: C_1  and  C_2
REMARK    2  A    between atoms: C_2  and  N_3
REMARK    3  A    between atoms: N_3  and  S_4
REMARK    4  A    between atoms: S_4  and  C_7
REMARK    5  A    between atoms: C_12  and  N_13
REMARK    6  A    between atoms: C_17  and  C_20
REMARK    7  A    between atoms: C_20  and  N_21
REMARK                            x       y       z     vdW  Elec       q    Type
REMARK                         _______ _______ _______ _____ _____    ______ ____
ROOT
ATOM      1  C   UNL     1       1.296  -3.003   0.464  0.00  0.00    +0.126 A 
ATOM      2  C   UNL     1       2.371  -3.825   0.741  0.00  0.00    +0.030 A 
ATOM      3  C   UNL     1       3.093  -4.393  -0.292  0.00  0.00    +0.002 A 
ATOM      4  C   UNL     1       2.743  -4.139  -1.606  0.00  0.00    +0.002 A 
ATOM      5  C   UNL     1       1.670  -3.318  -1.890  0.00  0.00    +0.025 A 
ATOM      6  C   UNL     1       0.938  -2.751  -0.854  0.00  0.00    +0.056 A 
ENDROOT
BRANCH   6   7
ATOM      7  N   UNL     1      -0.151  -1.924  -1.138  0.00  0.00    -0.328 N 
ATOM      8  C   UNL     1       0.038  -0.482  -1.349  0.00  0.00    +0.105 C 
ATOM      9  C   UNL     1      -0.590  -0.095  -2.692  0.00  0.00    +0.019 C 
ATOM     10  C   UNL     1      -2.051  -0.547  -2.717  0.00  0.00    +0.005 C 
ATOM     11  C   UNL     1      -2.118  -2.069  -2.575  0.00  0.00    -0.011 C 
ATOM     12  C   UNL     1      -1.508  -2.481  -1.236  0.00  0.00    +0.106 C 
BRANCH  11  13
ATOM     13  C   UNL     1      -3.578  -2.524  -2.634  0.00  0.00    -0.081 C 
BRANCH  13  14
ATOM     14  N   UNL     1      -4.128  -2.234  -3.965  0.00  0.00    +0.378 N 
ATOM     15  H   UNL     1      -4.077  -1.242  -4.141  0.00  0.00    -0.090 HD
ATOM     16  H   UNL     1      -3.593  -2.727  -4.664  0.00  0.00    -0.090 HD
ATOM     17  H   UNL     1      -5.090  -2.534  -4.004  0.00  0.00    -0.090 HD
ENDBRANCH  13  14
ENDBRANCH  11  13
ENDBRANCH   6   7
BRANCH   1  18
ATOM     18  S   UNL     1       0.376  -2.280   1.782  0.00  0.00    +0.060 S 
ATOM     19  O   UNL     1       0.252  -0.897   1.479  0.00  0.00    -0.153 OA
ATOM     20  O   UNL     1       0.962  -2.746   2.990  0.00  0.00    -0.153 OA
BRANCH  18  21
ATOM     21  N   UNL     1      -1.151  -2.916   1.719  0.00  0.00    -0.190 NA
ATOM     22  H   UNL     1      -1.909  -2.341   1.531  0.00  0.00    +0.148 HD
BRANCH  21  24
ATOM     23  C   UNL     1      -2.841  -4.614   2.211  0.00  0.00    +0.022 C 
ATOM     24  C   UNL     1      -1.358  -4.349   1.948  0.00  0.00    +0.102 C 
ENDBRANCH  21  24
ENDBRANCH  18  21
ENDBRANCH   1  18
TORSDOF 6
