REMARK  Name = ZINC39426633
REMARK  8 active torsions:
REMARK  status: ('A' for Active; 'I' for Inactive)
REMARK    1  A    between atoms: C_1  and  C_2
REMARK    2  A    between atoms: C_2  and  C_4
REMARK    3  A    between atoms: C_2  and  S_16
REMARK    4  A    between atoms: N_6  and  C_7
REMARK    5  A    between atoms: C_12  and  C_13
REMARK    6  A    between atoms: S_16  and  C_17
REMARK    7  A    between atoms: C_18  and  C_30
REMARK    8  A    between atoms: C_21  and  C_23
REMARK                            x       y       z     vdW  Elec       q    Type
REMARK                         _______ _______ _______ _____ _____    ______ ____
ROOT
ATOM      1  C   UNL     1      -0.047   1.558   0.006  0.00  0.00    +0.029 C 
ATOM      2  C   UNL     1      -0.008   0.029  -0.009  0.00  0.00    +0.136 C 
ENDROOT
BRANCH   2   3
ATOM      3  C   UNL     1      -1.415  -0.510   0.004  0.00  0.00    +0.230 C 
ATOM      4  O   UNL     1      -1.935  -0.823   1.055  0.00  0.00    -0.274 OA
ATOM      5  N   UNL     1      -2.096  -0.645  -1.151  0.00  0.00    -0.284 N 
ATOM      6  H   UNL     1      -1.705  -0.335  -1.983  0.00  0.00    +0.155 HD
BRANCH   5   7
ATOM      7  C   UNL     1      -3.360  -1.230  -1.150  0.00  0.00    +0.046 A 
ATOM      8  C   UNL     1      -4.223  -1.025  -0.082  0.00  0.00    +0.024 A 
ATOM      9  C   UNL     1      -5.475  -1.606  -0.083  0.00  0.00    +0.002 A 
ATOM     10  C   UNL     1      -5.881  -2.396  -1.146  0.00  0.00    +0.001 A 
ATOM     11  C   UNL     1      -5.038  -2.610  -2.215  0.00  0.00    +0.015 A 
ATOM     12  C   UNL     1      -3.770  -2.024  -2.231  0.00  0.00    +0.058 A 
BRANCH  12  13
ATOM     13  C   UNL     1      -2.865  -2.245  -3.375  0.00  0.00    +0.243 C 
ATOM     14  O   UNL     1      -1.727  -1.819  -3.341  0.00  0.00    -0.270 OA
ATOM     15  N   UNL     1      -3.300  -2.918  -4.459  0.00  0.00    -0.325 N 
ATOM     16  H   UNL     1      -4.208  -3.257  -4.486  0.00  0.00    +0.145 HD
ATOM     17  H   UNL     1      -2.705  -3.062  -5.211  0.00  0.00    +0.145 HD
ENDBRANCH  12  13
ENDBRANCH   5   7
ENDBRANCH   2   3
BRANCH   2  18
ATOM     18  S   UNL     1       0.882  -0.568   1.455  0.00  0.00    -0.092 S 
BRANCH  18  19
ATOM     19  C   UNL     1       2.528   0.016   1.221  0.00  0.00    +0.116 A 
ATOM     20  C   UNL     1       3.515  -0.272   2.182  0.00  0.00    +0.084 A 
ATOM     21  C   UNL     1       4.818   0.200   1.979  0.00  0.00    +0.023 A 
ATOM     22  C   UNL     1       5.083   0.933   0.839  0.00  0.00    +0.030 A 
ATOM     23  C   UNL     1       4.055   1.180  -0.071  0.00  0.00    +0.072 A 
ATOM     24  N   UNL     1       2.828   0.718   0.141  0.00  0.00    -0.239 NA
BRANCH  23  25
ATOM     25  C   UNL     1       4.337   1.966  -1.295  0.00  0.00    +0.000 A 
ATOM     26  C   UNL     1       5.623   2.449  -1.536  0.00  0.00    +0.011 A 
ATOM     27  C   UNL     1       5.880   3.179  -2.678  0.00  0.00    +0.020 A 
ATOM     28  C   UNL     1       4.864   3.434  -3.583  0.00  0.00    +0.041 A 
ATOM     29  C   UNL     1       3.586   2.957  -3.349  0.00  0.00    +0.020 A 
ATOM     30  C   UNL     1       3.319   2.221  -2.213  0.00  0.00    +0.011 A 
ATOM     31 CL   UNL     1       5.195   4.354  -5.018  0.00  0.00    -0.084 Cl
ENDBRANCH  23  25
BRANCH  20  32
ATOM     32  C   UNL     1       3.192  -1.036   3.350  0.00  0.00    +0.102 C 
ATOM     33  N   UNL     1       2.936  -1.641   4.276  0.00  0.00    -0.191 NA
ENDBRANCH  20  32
ENDBRANCH  18  19
ENDBRANCH   2  18
TORSDOF 7
