REMARK  Name = ZINC39592903
REMARK  3 active torsions:
REMARK  status: ('A' for Active; 'I' for Inactive)
REMARK    1  A    between atoms: C_5  and  C_7
REMARK    2  A    between atoms: C_11  and  C_16
REMARK    3  A    between atoms: C_19  and  C_22
REMARK                            x       y       z     vdW  Elec       q    Type
REMARK                         _______ _______ _______ _____ _____    ______ ____
ROOT
ATOM      1  C   UNL     1       1.229  -2.186  -0.022  0.00  0.00    +0.184 C 
ATOM      2  N   UNL     1      -0.070  -2.748  -0.479  0.00  0.00    -0.263 N 
ATOM      3  N   UNL     1      -0.158  -2.978  -1.820  0.00  0.00    -0.222 N 
ATOM      4  C   UNL     1      -1.161  -3.140  -2.759  0.00  0.00    +0.181 A 
ATOM      5  N   UNL     1      -0.601  -3.386  -3.906  0.00  0.00    -0.129 NA
ATOM      6  N   UNL     1       0.680  -3.380  -3.782  0.00  0.00    -0.121 NA
ATOM      7  C   UNL     1       0.993  -3.120  -2.551  0.00  0.00    +0.211 A 
ATOM      8  S   UNL     1       2.301  -2.843  -1.373  0.00  0.00    -0.056 S 
ATOM      9  H   UNL     1      -0.311  -3.575   0.047  0.00  0.00    +0.168 HD
ENDROOT
BRANCH   1  14
ATOM     10  C   UNL     1      -0.017   1.378   0.010  0.00  0.00    +0.000 A 
ATOM     11  C   UNL     1       1.171   2.086   0.002  0.00  0.00    +0.001 A 
ATOM     12  C   UNL     1       2.377   1.412  -0.013  0.00  0.00    +0.020 A 
ATOM     13  C   UNL     1       2.397   0.029  -0.021  0.00  0.00    +0.047 A 
ATOM     14  C   UNL     1       1.208  -0.679  -0.013  0.00  0.00    +0.003 A 
ATOM     15  C   UNL     1       0.002  -0.004   0.002  0.00  0.00    +0.008 A 
ATOM     16 CL   UNL     1       3.912  -0.818  -0.041  0.00  0.00    -0.083 Cl
ENDBRANCH   1  14
BRANCH   4  17
ATOM     17  C   UNL     1      -2.643  -3.048  -2.498  0.00  0.00    +0.222 C 
ATOM     18  C   UNL     1      -3.282  -4.424  -2.547  0.00  0.00    +0.039 C 
ATOM     19  C   UNL     1      -4.163  -4.335  -3.562  0.00  0.00    +0.091 C 
ATOM     20  N   UNL     1      -4.127  -3.094  -4.114  0.00  0.00    -0.153 NA
ATOM     21  N   UNL     1      -3.318  -2.321  -3.587  0.00  0.00    -0.171 NA
BRANCH  19  22
ATOM     22  C   UNL     1      -5.048  -5.436  -4.014  0.00  0.00    +0.002 A 
ATOM     23  C   UNL     1      -5.009  -6.673  -3.372  0.00  0.00    +0.011 A 
ATOM     24  C   UNL     1      -5.834  -7.694  -3.796  0.00  0.00    +0.020 A 
ATOM     25  C   UNL     1      -6.700  -7.492  -4.857  0.00  0.00    +0.041 A 
ATOM     26  C   UNL     1      -6.743  -6.266  -5.498  0.00  0.00    +0.020 A 
ATOM     27  C   UNL     1      -5.926  -5.236  -5.078  0.00  0.00    +0.011 A 
ATOM     28 CL   UNL     1      -7.735  -8.782  -5.387  0.00  0.00    -0.084 Cl
ENDBRANCH  19  22
ENDBRANCH   4  17
TORSDOF 3
