REMARK  Name = ZINC40648284
REMARK  5 active torsions:
REMARK  status: ('A' for Active; 'I' for Inactive)
REMARK    1  A    between atoms: C_5  and  N_7
REMARK    2  A    between atoms: C_9  and  N_23
REMARK    3  A    between atoms: C_10  and  N_14
REMARK    4  A    between atoms: N_14  and  N_15
REMARK    5  A    between atoms: C_16  and  C_18
REMARK                            x       y       z     vdW  Elec       q    Type
REMARK                         _______ _______ _______ _____ _____    ______ ____
ROOT
ATOM      1  N   UNL     1       1.237  -2.079  -0.021  0.00  0.00    -0.297 N 
ATOM      2  C   UNL     1       0.053  -2.792   0.091  0.00  0.00    +0.159 A 
ATOM      3  C   UNL     1       0.071  -4.180   0.194  0.00  0.00    +0.207 A 
ATOM      4  C   UNL     1      -1.143  -4.849   0.305  0.00  0.00    +0.171 A 
ATOM      5  N   UNL     1      -2.272  -4.142   0.308  0.00  0.00    -0.217 NA
ATOM      6  C   UNL     1      -2.248  -2.829   0.208  0.00  0.00    +0.225 A 
ATOM      7  N   UNL     1      -1.119  -2.159   0.107  0.00  0.00    -0.218 NA
ATOM      8  H   UNL     1       2.089  -2.536   0.065  0.00  0.00    +0.154 HD
ENDROOT
BRANCH   1  13
ATOM      9  C   UNL     1       0.098   1.224  -1.165  0.00  0.00    +0.002 A 
ATOM     10  C   UNL     1       1.138   2.025  -0.731  0.00  0.00    +0.001 A 
ATOM     11  C   UNL     1       2.212   1.467  -0.062  0.00  0.00    +0.017 A 
ATOM     12  C   UNL     1       2.248   0.106   0.175  0.00  0.00    +0.039 A 
ATOM     13  C   UNL     1       1.204  -0.701  -0.259  0.00  0.00    +0.047 A 
ATOM     14  C   UNL     1       0.127  -0.137  -0.931  0.00  0.00    +0.024 A 
ATOM     15 BR   UNL     1       3.717  -0.657   1.090  0.00  0.00    -0.048 Br
ENDBRANCH   1  13
BRANCH   3  16
ATOM     16  N   UNL     1       1.351  -4.925   0.185  0.00  0.00    +0.063 N 
ATOM     17  O   UNL     1       1.925  -5.151   1.224  0.00  0.00    -0.126 OA
ATOM     18  O   UNL     1       1.820  -5.307  -0.861  0.00  0.00    -0.126 OA
ENDBRANCH   3  16
BRANCH   4  19
ATOM     19  N   UNL     1      -1.179  -6.231   0.409  0.00  0.00    -0.246 N 
ATOM     20  H   UNL     1      -0.352  -6.739   0.406  0.00  0.00    +0.172 HD
BRANCH  19  21
ATOM     21  N   UNL     1      -2.408  -6.894   0.521  0.00  0.00    -0.229 N 
ATOM     22  C   UNL     1      -2.442  -8.237   0.623  0.00  0.00    +0.295 C 
ATOM     23  O   UNL     1      -1.405  -8.874   0.618  0.00  0.00    -0.265 OA
ATOM     24  H   UNL     1      -3.234  -6.386   0.524  0.00  0.00    +0.173 HD
BRANCH  22  25
ATOM     25  C   UNL     1      -3.728  -8.931   0.739  0.00  0.00    +0.190 A 
ATOM     26  C   UNL     1      -3.905 -10.281   0.854  0.00  0.00    +0.054 A 
ATOM     27  C   UNL     1      -5.288 -10.501   0.938  0.00  0.00    +0.042 A 
ATOM     28  C   UNL     1      -5.888  -9.292   0.871  0.00  0.00    +0.196 A 
ATOM     29  O   UNL     1      -4.945  -8.348   0.757  0.00  0.00    -0.458 OA
ENDBRANCH  22  25
ENDBRANCH  19  21
ENDBRANCH   4  19
TORSDOF 5
