REMARK  Name = ZINC40150518
REMARK  6 active torsions:
REMARK  status: ('A' for Active; 'I' for Inactive)
REMARK    1  A    between atoms: C_4  and  O_26
REMARK    2  A    between atoms: C_5  and  C_7
REMARK    3  A    between atoms: C_7  and  N_8
REMARK    4  A    between atoms: N_8  and  C_9
REMARK    5  A    between atoms: C_9  and  C_10
REMARK    6  A    between atoms: N_17  and  C_18
REMARK                            x       y       z     vdW  Elec       q    Type
REMARK                         _______ _______ _______ _____ _____    ______ ____
ROOT
ATOM      1  N   UNL     1       1.326  -2.498   1.436  0.00  0.00    -0.274 N 
ATOM      2  C   UNL     1       2.556  -2.604   1.976  0.00  0.00    +0.307 C 
ATOM      3  O   UNL     1       3.526  -2.205   1.361  0.00  0.00    -0.252 OA
ATOM      4  N   UNL     1       2.711  -3.154   3.196  0.00  0.00    -0.269 N 
ATOM      5  H   UNL     1       1.947  -3.536   3.657  0.00  0.00    +0.156 HD
ENDROOT
BRANCH   4   6
ATOM      6  C   UNL     1       3.974  -3.173   3.801  0.00  0.00    +0.036 A 
ATOM      7  C   UNL     1       4.088  -3.030   5.177  0.00  0.00    +0.025 A 
ATOM      8  C   UNL     1       5.335  -3.049   5.771  0.00  0.00    +0.023 A 
ATOM      9  C   UNL     1       6.470  -3.210   4.997  0.00  0.00    +0.059 A 
ATOM     10  C   UNL     1       6.359  -3.353   3.624  0.00  0.00    +0.061 A 
ATOM     11  C   UNL     1       5.113  -3.341   3.025  0.00  0.00    +0.044 A 
ATOM     12 CL   UNL     1       7.785  -3.556   2.654  0.00  0.00    -0.082 Cl
ATOM     13 CL   UNL     1       8.035  -3.233   5.747  0.00  0.00    -0.082 Cl
ENDBRANCH   4   6
BRANCH   1  14
ATOM     14  C   UNL     1       1.144  -1.803   0.158  0.00  0.00    +0.148 C 
BRANCH  14  19
ATOM     15  C   UNL     1       1.917   1.880   0.465  0.00  0.00    +0.001 A 
ATOM     16  C   UNL     1       0.696   2.389   0.867  0.00  0.00    +0.004 A 
ATOM     17  C   UNL     1      -0.382   1.544   1.041  0.00  0.00    +0.046 A 
ATOM     18  C   UNL     1      -0.240   0.183   0.811  0.00  0.00    +0.122 A 
ATOM     19  C   UNL     1       0.986  -0.326   0.408  0.00  0.00    +0.011 A 
ATOM     20  C   UNL     1       2.062   0.524   0.236  0.00  0.00    +0.009 A 
BRANCH  18  21
ATOM     21  O   UNL     1      -1.300  -0.651   0.982  0.00  0.00    -0.506 OA
ATOM     22  H   UNL     1      -1.879  -0.714   0.211  0.00  0.00    +0.292 HD
ENDBRANCH  18  21
ENDBRANCH  14  19
ENDBRANCH   1  14
BRANCH   1  23
ATOM     23  C   UNL     1       0.170  -3.075   2.126  0.00  0.00    +0.183 C 
BRANCH  23  24
ATOM     24  C   UNL     1      -0.028  -4.498   1.669  0.00  0.00    +0.122 A 
ATOM     25  C   UNL     1       0.517  -5.589   2.236  0.00  0.00    +0.046 A 
ATOM     26  C   UNL     1       0.068  -6.705   1.492  0.00  0.00    +0.041 A 
ATOM     27  C   UNL     1      -0.725  -6.228   0.515  0.00  0.00    +0.195 A 
ATOM     28  O   UNL     1      -0.784  -4.891   0.631  0.00  0.00    -0.466 OA
ENDBRANCH  23  24
ENDBRANCH   1  23
TORSDOF 6
