REMARK  Name = ZINC36222489
REMARK  4 active torsions:
REMARK  status: ('A' for Active; 'I' for Inactive)
REMARK    1  A    between atoms: C_1  and  C_2
REMARK    2  A    between atoms: N_8  and  S_9
REMARK    3  A    between atoms: S_9  and  C_12
REMARK    4  A    between atoms: C_15  and  N_18
REMARK                            x       y       z     vdW  Elec       q    Type
REMARK                         _______ _______ _______ _____ _____    ______ ____
ROOT
ATOM      1  S   UNL     1       1.660   0.565   2.077  0.00  0.00    +0.078 S 
ATOM      2  O   UNL     1       0.948   1.794   2.037  0.00  0.00    -0.151 OA
ATOM      3  O   UNL     1       1.951  -0.107   3.295  0.00  0.00    -0.151 OA
ENDROOT
BRANCH   1  10
ATOM      4  C   UNL     1       0.156   1.483  -0.138  0.00  0.00    +0.026 C 
ATOM      5  C   UNL     1       0.102  -0.044  -0.063  0.00  0.00    +0.077 C 
ATOM      6  C   UNL     1      -1.358  -0.502   0.021  0.00  0.00    +0.020 C 
ATOM      7  C   UNL     1      -1.402  -2.016   0.236  0.00  0.00    +0.003 C 
ATOM      8  C   UNL     1      -0.709  -2.366   1.555  0.00  0.00    +0.017 C 
ATOM      9  C   UNL     1       0.758  -1.929   1.489  0.00  0.00    +0.110 C 
ATOM     10  N   UNL     1       0.814  -0.503   1.137  0.00  0.00    -0.172 NA
ENDBRANCH   1  10
BRANCH   1  11
ATOM     11  C   UNL     1       3.205   0.852   1.279  0.00  0.00    +0.194 A 
ATOM     12  C   UNL     1       4.252  -0.027   1.485  0.00  0.00    +0.051 A 
ATOM     13  C   UNL     1       5.463   0.204   0.855  0.00  0.00    +0.028 A 
ATOM     14  C   UNL     1       5.578   1.322   0.032  0.00  0.00    +0.043 A 
ATOM     15  C   UNL     1       4.480   2.158  -0.126  0.00  0.00    +0.135 A 
ATOM     16  N   UNL     1       3.344   1.898   0.489  0.00  0.00    -0.234 NA
BRANCH  14  17
ATOM     17  N   UNL     1       6.779   1.598  -0.626  0.00  0.00    -0.357 N 
ATOM     18  H   UNL     1       7.542   1.009  -0.511  0.00  0.00    +0.142 HD
ATOM     19  H   UNL     1       6.851   2.378  -1.198  0.00  0.00    +0.142 HD
ENDBRANCH  14  17
ENDBRANCH   1  11
TORSDOF 3
