REMARK  Name = ZINC47884398
REMARK  6 active torsions:
REMARK  status: ('A' for Active; 'I' for Inactive)
REMARK    1  A    between atoms: C_3  and  S_8
REMARK    2  A    between atoms: C_6  and  O_7
REMARK    3  A    between atoms: S_8  and  C_9
REMARK    4  A    between atoms: C_9  and  C_10
REMARK    5  A    between atoms: N_12  and  C_13
REMARK    6  A    between atoms: C_14  and  C_22
REMARK                            x       y       z     vdW  Elec       q    Type
REMARK                         _______ _______ _______ _____ _____    ______ ____
ROOT
ATOM      1  C   UNL     1       6.535   1.669  -0.052  0.00  0.00    +0.228 C 
ATOM      2  O   UNL     1       6.635   2.877  -0.047  0.00  0.00    -0.275 OA
ATOM      3  N   UNL     1       7.643   0.901  -0.067  0.00  0.00    -0.279 N 
ATOM      4  H   UNL     1       7.564  -0.066  -0.071  0.00  0.00    +0.155 HD
ENDROOT
BRANCH   3   5
ATOM      5  C   UNL     1       8.897   1.493  -0.076  0.00  0.00    +0.084 A 
ATOM      6  C   UNL     1      10.134   0.869  -0.097  0.00  0.00    +0.068 A 
ATOM      7  C   UNL     1      11.309   1.723  -0.103  0.00  0.00    -0.023 A 
ATOM      8  C   UNL     1      11.031   3.044  -0.086  0.00  0.00    -0.004 A 
ATOM      9  S   UNL     1       9.265   3.132  -0.072  0.00  0.00    -0.077 S 
ATOM     10  C   UNL     1      12.018   4.171  -0.085  0.00  0.00    +0.043 C 
ATOM     11  C   UNL     1      13.399   3.602   0.275  0.00  0.00    +0.005 C 
ATOM     12  C   UNL     1      13.659   2.357  -0.577  0.00  0.00    +0.005 C 
ATOM     13  C   UNL     1      12.744   1.216  -0.126  0.00  0.00    +0.037 C 
BRANCH   6  14
ATOM     14  C   UNL     1      10.252  -0.593  -0.112  0.00  0.00    +0.244 C 
ATOM     15  O   UNL     1      10.289  -1.189  -1.173  0.00  0.00    -0.270 OA
ATOM     16  N   UNL     1      10.320  -1.276   1.048  0.00  0.00    -0.325 N 
ATOM     17  H   UNL     1      10.291  -0.800   1.893  0.00  0.00    +0.145 HD
ATOM     18  H   UNL     1      10.398  -2.242   1.038  0.00  0.00    +0.145 HD
ENDBRANCH   6  14
ENDBRANCH   3   5
BRANCH   1  19
ATOM     19  C   UNL     1       5.173   1.025  -0.042  0.00  0.00    +0.170 C 
BRANCH  19  20
ATOM     20  S   UNL     1       3.896   2.313  -0.023  0.00  0.00    -0.116 S 
BRANCH  20  23
ATOM     21  C   UNL     1      -0.017   1.383   0.010  0.00  0.00    +0.046 A 
ATOM     22  C   UNL     1       1.169   2.090   0.002  0.00  0.00    +0.018 A 
ATOM     23  C   UNL     1       2.382   1.412  -0.013  0.00  0.00    +0.009 A 
ATOM     24  C   UNL     1       2.399   0.023  -0.021  0.00  0.00    +0.018 A 
ATOM     25  C   UNL     1       1.212  -0.682  -0.013  0.00  0.00    +0.046 A 
ATOM     26  C   UNL     1       0.002  -0.004   0.002  0.00  0.00    +0.117 A 
BRANCH  26  27
ATOM     27  O   UNL     1      -1.167  -0.700   0.010  0.00  0.00    -0.507 OA
ATOM     28  H   UNL     1      -1.513  -0.896  -0.871  0.00  0.00    +0.292 HD
ENDBRANCH  26  27
ENDBRANCH  20  23
ENDBRANCH  19  20
ENDBRANCH   1  19
TORSDOF 6
