REMARK  Name = ZINC61855860
REMARK  8 active torsions:
REMARK  status: ('A' for Active; 'I' for Inactive)
REMARK    1  A    between atoms: C_1  and  C_2
REMARK    2  A    between atoms: C_2  and  N_3
REMARK    3  A    between atoms: N_3  and  C_4
REMARK    4  A    between atoms: N_3  and  C_7
REMARK    5  A    between atoms: C_4  and  C_5
REMARK    6  A    between atoms: C_5  and  O_6
REMARK    7  A    between atoms: C_10  and  C_14
REMARK    8  A    between atoms: N_15  and  O_16
REMARK                            x       y       z     vdW  Elec       q    Type
REMARK                         _______ _______ _______ _____ _____    ______ ____
ROOT
ATOM      1  C   UNL     1      -2.014  -0.759   1.224  0.00  0.00    +0.031 A 
ATOM      2  C   UNL     1      -3.318  -1.246   1.232  0.00  0.00    +0.024 A 
ATOM      3  C   UNL     1      -3.956  -1.492   2.428  0.00  0.00    +0.014 A 
ATOM      4  C   UNL     1      -3.293  -1.252   3.633  0.00  0.00    +0.036 A 
ATOM      5  C   UNL     1      -1.984  -0.764   3.623  0.00  0.00    +0.053 A 
ATOM      6  C   UNL     1      -1.349  -0.524   2.422  0.00  0.00    +0.043 A 
ATOM      7 CL   UNL     1      -1.156  -0.465   5.119  0.00  0.00    -0.083 Cl
ENDROOT
BRANCH   4   8
ATOM      8  C   UNL     1      -3.976  -1.515   4.918  0.00  0.00    +0.164 C 
ATOM      9  N   UNL     1      -3.357  -1.292   6.042  0.00  0.00    -0.071 NA
ATOM     10  N   UNL     1      -5.273  -1.999   4.927  0.00  0.00    -0.340 N 
ATOM     11  H   UNL     1      -5.734  -2.166   4.090  0.00  0.00    +0.144 HD
ATOM     12  H   UNL     1      -5.721  -2.171   5.770  0.00  0.00    +0.144 HD
BRANCH   9  13
ATOM     13  O   UNL     1      -4.010  -1.543   7.272  0.00  0.00    -0.408 OA
ATOM     14  H   UNL     1      -3.472  -1.347   8.051  0.00  0.00    +0.328 HD
ENDBRANCH   9  13
ENDBRANCH   4   8
BRANCH   1  15
ATOM     15  N   UNL     1      -1.372  -0.511   0.012  0.00  0.00    -0.328 N 
BRANCH  15  17
ATOM     16  C   UNL     1      -0.019   1.526   0.010  0.00  0.00    +0.024 C 
ATOM     17  C   UNL     1       0.002  -0.004   0.002  0.00  0.00    +0.102 C 
ENDBRANCH  15  17
BRANCH  15  18
ATOM     18  C   UNL     1      -2.072  -0.758  -1.251  0.00  0.00    +0.133 C 
BRANCH  18  19
ATOM     19  C   UNL     1      -1.816  -2.197  -1.703  0.00  0.00    +0.174 C 
BRANCH  19  20
ATOM     20  O   UNL     1      -2.401  -3.102  -0.764  0.00  0.00    -0.393 OA
ATOM     21  H   UNL     1      -2.277  -4.035  -0.988  0.00  0.00    +0.209 HD
ENDBRANCH  19  20
ENDBRANCH  18  19
ENDBRANCH  15  18
ENDBRANCH   1  15
TORSDOF 7
