REMARK  Name = ZINC50390788
REMARK  10 active torsions:
REMARK  status: ('A' for Active; 'I' for Inactive)
REMARK    1  A    between atoms: C_1  and  C_2
REMARK    2  A    between atoms: C_3  and  S_9
REMARK    3  A    between atoms: C_4  and  C_8
REMARK    4  A    between atoms: N_5  and  C_7
REMARK    5  A    between atoms: S_9  and  N_12
REMARK    6  A    between atoms: N_12  and  C_13
REMARK    7  A    between atoms: C_13  and  C_15
REMARK    8  A    between atoms: C_13  and  C_16
REMARK    9  A    between atoms: C_16  and  C_17
REMARK   10  A    between atoms: C_17  and  N_19
REMARK                            x       y       z     vdW  Elec       q    Type
REMARK                         _______ _______ _______ _____ _____    ______ ____
ROOT
ATOM      1  S   UNL     1      -0.009  -0.263  -2.808  0.00  0.00    +0.062 S 
ATOM      2  O   UNL     1      -0.549  -1.324  -3.583  0.00  0.00    -0.153 OA
ATOM      3  O   UNL     1      -0.578   1.039  -2.797  0.00  0.00    -0.153 OA
ENDROOT
BRANCH   1   6
ATOM      4  C   UNL     1      -0.018   1.503   0.010  0.00  0.00    +0.069 C 
ATOM      5  C   UNL     1       0.002  -0.004   0.002  0.00  0.00    +0.086 A 
ATOM      6  C   UNL     1       0.008  -0.818  -1.135  0.00  0.00    +0.148 A 
ATOM      7  C   UNL     1       0.028  -2.107  -0.725  0.00  0.00    +0.062 A 
ATOM      8  N   UNL     1       0.034  -2.109   0.625  0.00  0.00    -0.269 N 
ATOM      9  N   UNL     1       0.023  -0.777   1.058  0.00  0.00    -0.174 NA
ATOM     10  C   UNL     1       0.055  -3.295   1.485  0.00  0.00    +0.172 C 
ATOM     11  C   UNL     1       0.040  -3.323  -1.615  0.00  0.00    +0.067 C 
ENDBRANCH   1   6
BRANCH   1  12
ATOM     12  N   UNL     1       1.569  -0.086  -3.280  0.00  0.00    -0.187 NA
ATOM     13  H   UNL     1       1.914   0.793  -3.500  0.00  0.00    +0.148 HD
BRANCH  12  14
ATOM     14  C   UNL     1       2.443  -1.258  -3.367  0.00  0.00    +0.079 C 
ATOM     15  C   UNL     1       2.453  -1.783  -4.804  0.00  0.00    +0.026 C 
BRANCH  14  16
ATOM     16  C   UNL     1       3.864  -0.866  -2.958  0.00  0.00    +0.078 C 
BRANCH  16  17
ATOM     17  C   UNL     1       3.876  -0.466  -1.505  0.00  0.00    +0.048 C 
ATOM     18  S   UNL     1       2.522  -0.501  -0.655  0.00  0.00    -0.041 S 
BRANCH  17  19
ATOM     19  N   UNL     1       5.028  -0.079  -0.921  0.00  0.00    -0.355 N 
ATOM     20  H   UNL     1       5.849  -0.059  -1.437  0.00  0.00    +0.143 HD
ATOM     21  H   UNL     1       5.035   0.178   0.014  0.00  0.00    +0.143 HD
ENDBRANCH  17  19
ENDBRANCH  16  17
ENDBRANCH  14  16
ENDBRANCH  12  14
ENDBRANCH   1  12
TORSDOF 6
