REMARK  Name = ZINC37244012
REMARK  6 active torsions:
REMARK  status: ('A' for Active; 'I' for Inactive)
REMARK    1  A    between atoms: C_1  and  C_2
REMARK    2  A    between atoms: C_6  and  N_9
REMARK    3  A    between atoms: C_10  and  C_12
REMARK    4  A    between atoms: N_14  and  C_15
REMARK    5  A    between atoms: C_15  and  C_16
REMARK    6  A    between atoms: C_16  and  N_18
REMARK                            x       y       z     vdW  Elec       q    Type
REMARK                         _______ _______ _______ _____ _____    ______ ____
ROOT
ATOM      1  N   UNL     1       0.053  -2.799   2.392  0.00  0.00    -0.275 N 
ATOM      2  C   UNL     1       0.273  -4.128   2.390  0.00  0.00    +0.303 C 
ATOM      3  O   UNL     1       0.548  -4.696   1.353  0.00  0.00    -0.265 OA
ATOM      4  H   UNL     1      -0.096  -2.333   3.230  0.00  0.00    +0.155 HD
ENDROOT
BRANCH   1  10
ATOM      5  C   UNL     1       2.455  -0.202  -1.023  0.00  0.00    +0.045 C 
ATOM      6  C   UNL     1       1.188  -0.821  -0.493  0.00  0.00    -0.030 A 
ATOM      7  C   UNL     1       0.006  -0.688  -1.200  0.00  0.00    +0.006 A 
ATOM      8  C   UNL     1      -1.159  -1.254  -0.718  0.00  0.00    +0.022 A 
ATOM      9  C   UNL     1      -1.148  -1.955   0.474  0.00  0.00    +0.064 A 
ATOM     10  C   UNL     1       0.037  -2.091   1.187  0.00  0.00    +0.071 A 
ATOM     11  C   UNL     1       1.208  -1.524   0.696  0.00  0.00    +0.066 A 
ATOM     12 CL   UNL     1       2.693  -1.696   1.579  0.00  0.00    -0.081 Cl
ATOM     13 CL   UNL     1      -2.612  -2.664   1.079  0.00  0.00    -0.082 Cl
ENDBRANCH   1  10
BRANCH   2  14
ATOM     14  C   UNL     1       0.180  -4.903   3.663  0.00  0.00    +0.300 C 
ATOM     15  O   UNL     1      -0.095  -4.336   4.700  0.00  0.00    -0.265 OA
ATOM     16  N   UNL     1       0.401  -6.233   3.660  0.00  0.00    -0.302 N 
ATOM     17  H   UNL     1       0.620  -6.686   2.832  0.00  0.00    +0.150 HD
BRANCH  16  18
ATOM     18  C   UNL     1       0.309  -6.993   4.910  0.00  0.00    +0.163 C 
BRANCH  18  19
ATOM     19  C   UNL     1       0.597  -8.446   4.635  0.00  0.00    +0.064 C 
ATOM     20  S   UNL     1       0.936  -8.928   3.149  0.00  0.00    -0.039 S 
BRANCH  19  21
ATOM     21  N   UNL     1       0.570  -9.341   5.643  0.00  0.00    -0.354 N 
ATOM     22  H   UNL     1       0.364  -9.049   6.545  0.00  0.00    +0.143 HD
ATOM     23  H   UNL     1       0.756 -10.276   5.467  0.00  0.00    +0.143 HD
ENDBRANCH  19  21
ENDBRANCH  18  19
ENDBRANCH  16  18
ENDBRANCH   2  14
TORSDOF 5
