REMARK  Name = ZINC01320323
REMARK  5 active torsions:
REMARK  status: ('A' for Active; 'I' for Inactive)
REMARK    1  A    between atoms: C_1  and  C_2
REMARK    2  A    between atoms: C_8  and  C_12
REMARK    3  A    between atoms: C_8  and  O_23
REMARK    4  A    between atoms: C_12  and  C_13
REMARK    5  A    between atoms: C_13  and  C_15
REMARK                            x       y       z     vdW  Elec       q    Type
REMARK                         _______ _______ _______ _____ _____    ______ ____
ROOT
ATOM      1  C   UNL     1      -1.292  -0.777   0.010  0.00  0.00    +0.044 C 
ATOM      2  C   UNL     1       0.002  -0.004   0.002  0.00  0.00    -0.050 A 
ATOM      3  C   UNL     1       1.211  -0.676  -0.013  0.00  0.00    +0.005 A 
ATOM      4  C   UNL     1       2.399   0.026  -0.021  0.00  0.00    +0.024 A 
ATOM      5  C   UNL     1       2.388   1.420  -0.014  0.00  0.00    +0.040 A 
ATOM      6  C   UNL     1       1.167   2.083   0.002  0.00  0.00    +0.015 A 
ATOM      7  C   UNL     1      -0.017   1.380   0.010  0.00  0.00    +0.012 A 
ATOM      8  C   UNL     1       1.486   3.560   0.007  0.00  0.00    +0.175 C 
ATOM      9  C   UNL     1       2.999   3.610  -0.008  0.00  0.00    +0.254 C 
ATOM     10  O   UNL     1       3.686   4.610  -0.009  0.00  0.00    -0.272 OA
ATOM     11  N   UNL     1       3.437   2.340  -0.019  0.00  0.00    -0.282 N 
ATOM     12  H   UNL     1       4.374   2.091  -0.029  0.00  0.00    +0.155 HD
ENDROOT
BRANCH   8  13
ATOM     13  O   UNL     1       0.976   4.178   1.190  0.00  0.00    -0.374 OA
ATOM     14  H   UNL     1       1.203   5.114   1.274  0.00  0.00    +0.211 HD
ENDBRANCH   8  13
BRANCH   8  15
ATOM     15  C   UNL     1       0.914   4.238  -1.240  0.00  0.00    +0.129 C 
BRANCH  15  16
ATOM     16  C   UNL     1       1.426   5.654  -1.321  0.00  0.00    +0.168 C 
ATOM     17  O   UNL     1       2.174   6.078  -0.465  0.00  0.00    -0.292 OA
BRANCH  16  18
ATOM     18  C   UNL     1       1.019   6.520  -2.436  0.00  0.00    +0.036 A 
ATOM     19  C   UNL     1       0.156   6.034  -3.425  0.00  0.00    +0.014 A 
ATOM     20  C   UNL     1      -0.222   6.851  -4.468  0.00  0.00    +0.021 A 
ATOM     21  C   UNL     1       0.251   8.153  -4.540  0.00  0.00    +0.042 A 
ATOM     22  C   UNL     1       1.104   8.642  -3.565  0.00  0.00    +0.040 A 
ATOM     23  C   UNL     1       1.488   7.837  -2.512  0.00  0.00    +0.053 A 
ATOM     24 CL   UNL     1       2.553   8.454  -1.287  0.00  0.00    -0.083 Cl
ATOM     25 CL   UNL     1      -0.231   9.175  -5.858  0.00  0.00    -0.083 Cl
ENDBRANCH  16  18
ENDBRANCH  15  16
ENDBRANCH   8  15
TORSDOF 4
