REMARK  Name = ZINC40347581
REMARK  5 active torsions:
REMARK  status: ('A' for Active; 'I' for Inactive)
REMARK    1  A    between atoms: C_4  and  N_19
REMARK    2  A    between atoms: C_6  and  S_7
REMARK    3  A    between atoms: S_7  and  N_10
REMARK    4  A    between atoms: N_10  and  C_11
REMARK    5  A    between atoms: C_11  and  C_12
REMARK                            x       y       z     vdW  Elec       q    Type
REMARK                         _______ _______ _______ _____ _____    ______ ____
ROOT
ATOM      1  S   UNL     1      -1.513  -0.904   0.012  0.00  0.00    +0.058 S 
ATOM      2  O   UNL     1      -1.220  -2.185   0.553  0.00  0.00    -0.153 OA
ATOM      3  O   UNL     1      -2.493  -0.044   0.577  0.00  0.00    -0.153 OA
ENDROOT
BRANCH   1   9
ATOM      4  C   UNL     1      -0.017   1.378   0.010  0.00  0.00    +0.031 A 
ATOM      5  C   UNL     1       1.170   2.089   0.002  0.00  0.00    +0.042 A 
ATOM      6  C   UNL     1       2.379   1.419  -0.013  0.00  0.00    +0.144 A 
ATOM      7  C   UNL     1       2.400   0.028  -0.021  0.00  0.00    +0.062 A 
ATOM      8  C   UNL     1       1.207  -0.681  -0.013  0.00  0.00    +0.054 A 
ATOM      9  C   UNL     1       0.002  -0.004   0.002  0.00  0.00    +0.107 A 
ATOM     10  F   UNL     1       3.537   2.113  -0.022  0.00  0.00    -0.204 F 
BRANCH   7  11
ATOM     11  N   UNL     1       3.620  -0.654  -0.037  0.00  0.00    -0.356 N 
ATOM     12  H   UNL     1       4.454  -0.158  -0.043  0.00  0.00    +0.142 HD
ATOM     13  H   UNL     1       3.634  -1.624  -0.043  0.00  0.00    +0.142 HD
ENDBRANCH   7  11
ENDBRANCH   1   9
BRANCH   1  14
ATOM     14  N   UNL     1      -1.949  -1.146  -1.567  0.00  0.00    -0.190 NA
ATOM     15  H   UNL     1      -2.756  -0.736  -1.916  0.00  0.00    +0.148 HD
BRANCH  14  16
ATOM     16  C   UNL     1      -1.115  -1.979  -2.438  0.00  0.00    +0.111 C 
BRANCH  16  17
ATOM     17  C   UNL     1      -1.903  -2.347  -3.697  0.00  0.00    +0.030 C 
ATOM     18  C   UNL     1      -1.079  -3.316  -4.551  0.00  0.00    +0.009 C 
ATOM     19  C   UNL     1      -1.843  -3.617  -5.844  0.00  0.00    +0.028 C 
ATOM     20  C   UNL     1      -2.133  -2.303  -6.573  0.00  0.00    +0.160 C 
ATOM     21  O   UNL     1      -2.875  -1.436  -5.713  0.00  0.00    -0.379 OA
ATOM     22  C   UNL     1      -2.192  -1.082  -4.509  0.00  0.00    +0.164 C 
ENDBRANCH  16  17
ENDBRANCH  14  16
ENDBRANCH   1  14
TORSDOF 5
