REMARK  Name = ZINC61595905
REMARK  8 active torsions:
REMARK  status: ('A' for Active; 'I' for Inactive)
REMARK    1  A    between atoms: C_1  and  C_2
REMARK    2  A    between atoms: C_2  and  C_3
REMARK    3  A    between atoms: C_3  and  N_4
REMARK    4  A    between atoms: C_10  and  S_11
REMARK    5  A    between atoms: S_11  and  C_12
REMARK    6  A    between atoms: C_17  and  C_18
REMARK    7  A    between atoms: C_18  and  C_20
REMARK    8  A    between atoms: C_18  and  N_21
REMARK                            x       y       z     vdW  Elec       q    Type
REMARK                         _______ _______ _______ _____ _____    ______ ____
ROOT
ATOM      1  C   UNL     1      -2.612  -3.649  -3.134  0.00  0.00    +0.017 A 
ATOM      2  C   UNL     1      -2.178  -4.922  -2.788  0.00  0.00    +0.018 A 
ATOM      3  C   UNL     1      -2.906  -6.029  -3.178  0.00  0.00    +0.039 A 
ATOM      4  C   UNL     1      -4.068  -5.870  -3.915  0.00  0.00    +0.124 A 
ATOM      5  C   UNL     1      -4.503  -4.601  -4.261  0.00  0.00    +0.041 A 
ATOM      6  C   UNL     1      -3.781  -3.491  -3.868  0.00  0.00    -0.046 A 
ATOM      7  F   UNL     1      -4.779  -6.954  -4.296  0.00  0.00    -0.205 F 
ENDROOT
BRANCH   6   8
ATOM      8  C   UNL     1      -4.258  -2.111  -4.240  0.00  0.00    -0.046 C 
ATOM      9  C   UNL     1      -4.970  -1.478  -3.042  0.00  0.00    -0.009 C 
BRANCH   8  10
ATOM     10  N   UNL     1      -5.191  -2.204  -5.371  0.00  0.00    +0.382 N 
ATOM     11  H   UNL     1      -5.981  -2.773  -5.109  0.00  0.00    -0.089 HD
ATOM     12  H   UNL     1      -5.510  -1.280  -5.620  0.00  0.00    -0.089 HD
ATOM     13  H   UNL     1      -4.722  -2.622  -6.160  0.00  0.00    -0.089 HD
ENDBRANCH   8  10
ENDBRANCH   6   8
BRANCH   1  14
ATOM     14  S   UNL     1      -1.685  -2.235  -2.638  0.00  0.00    -0.050 S 
BRANCH  14  21
ATOM     15  N   UNL     1      -0.078  -0.604  -4.246  0.00  0.00    -0.270 N 
ATOM     16  C   UNL     1       0.395  -0.566  -5.508  0.00  0.00    +0.345 A 
ATOM     17  O   UNL     1       1.117   0.293  -5.981  0.00  0.00    -0.245 OA
ATOM     18  N   UNL     1      -0.077  -1.653  -6.152  0.00  0.00    -0.226 N 
ATOM     19  H   UNL     1       0.097  -1.894  -7.076  0.00  0.00    +0.194 HD
ATOM     20  N   UNL     1      -0.864  -2.372  -5.242  0.00  0.00    -0.144 NA
ATOM     21  C   UNL     1      -0.850  -1.735  -4.107  0.00  0.00    +0.197 A 
BRANCH  15  22
ATOM     22  C   UNL     1       0.190   0.386  -3.200  0.00  0.00    +0.129 C 
BRANCH  22  24
ATOM     23  C   UNL     1       1.728   1.019  -1.336  0.00  0.00    +0.005 C 
ATOM     24  C   UNL     1       1.448  -0.015  -2.429  0.00  0.00    +0.018 C 
ENDBRANCH  22  24
ENDBRANCH  15  22
ENDBRANCH  14  21
ENDBRANCH   1  14
TORSDOF 6
