REMARK  Name = ZINC46011876
REMARK  7 active torsions:
REMARK  status: ('A' for Active; 'I' for Inactive)
REMARK    1  A    between atoms: C_1  and  C_2
REMARK    2  A    between atoms: C_3  and  C_7
REMARK    3  A    between atoms: N_9  and  C_10
REMARK    4  A    between atoms: C_12  and  N_17
REMARK    5  A    between atoms: N_20  and  C_21
REMARK    6  A    between atoms: C_21  and  C_22
REMARK    7  A    between atoms: C_21  and  C_23
REMARK                            x       y       z     vdW  Elec       q    Type
REMARK                         _______ _______ _______ _____ _____    ______ ____
ROOT
ATOM      1  C   UNL     1      -4.867  -1.011  -0.066  0.00  0.00    +0.071 A 
ATOM      2  C   UNL     1      -5.252   0.322  -0.071  0.00  0.00    +0.049 A 
ATOM      3  C   UNL     1      -6.567   0.662   0.210  0.00  0.00    +0.037 A 
ATOM      4  C   UNL     1      -7.495  -0.331   0.496  0.00  0.00    +0.026 A 
ATOM      5  C   UNL     1      -7.110  -1.658   0.501  0.00  0.00    +0.042 A 
ATOM      6  C   UNL     1      -5.801  -2.002   0.215  0.00  0.00    +0.145 A 
ATOM      7  F   UNL     1      -5.429  -3.301   0.214  0.00  0.00    -0.204 F 
ENDROOT
BRANCH   3   8
ATOM      8  N   UNL     1      -6.959   2.007   0.207  0.00  0.00    -0.269 N 
ATOM      9  C   UNL     1      -8.199   2.346  -0.198  0.00  0.00    +0.304 C 
ATOM     10  O   UNL     1      -8.945   1.498  -0.648  0.00  0.00    -0.252 OA
ATOM     11  N   UNL     1      -8.611   3.626  -0.104  0.00  0.00    -0.293 N 
ATOM     12  H   UNL     1      -6.338   2.694   0.496  0.00  0.00    +0.156 HD
ATOM     13  H   UNL     1      -8.016   4.303   0.255  0.00  0.00    +0.151 HD
BRANCH  11  14
ATOM     14  C   UNL     1      -9.959   3.995  -0.544  0.00  0.00    +0.102 C 
ATOM     15  C   UNL     1     -10.953   3.745   0.592  0.00  0.00    +0.033 C 
BRANCH  14  16
ATOM     16  C   UNL     1      -9.983   5.454  -0.920  0.00  0.00    -0.027 A 
ATOM     17  C   UNL     1      -9.285   6.375  -0.161  0.00  0.00    +0.008 A 
ATOM     18  C   UNL     1      -9.306   7.713  -0.505  0.00  0.00    +0.038 A 
ATOM     19  C   UNL     1     -10.025   8.132  -1.611  0.00  0.00    +0.123 A 
ATOM     20  C   UNL     1     -10.724   7.209  -2.371  0.00  0.00    +0.038 A 
ATOM     21  C   UNL     1     -10.698   5.870  -2.028  0.00  0.00    +0.008 A 
ATOM     22  F   UNL     1     -10.046   9.440  -1.949  0.00  0.00    -0.205 F 
ENDBRANCH  14  16
ENDBRANCH  11  14
ENDBRANCH   3   8
BRANCH   1  25
ATOM     23  C   UNL     1      -2.537  -0.531   0.005  0.00  0.00    +0.252 C 
ATOM     24  O   UNL     1      -2.787   0.553   0.496  0.00  0.00    -0.270 OA
ATOM     25  N   UNL     1      -3.541  -1.358  -0.349  0.00  0.00    -0.279 N 
ATOM     26  H   UNL     1      -3.344  -2.194  -0.801  0.00  0.00    +0.155 HD
BRANCH  23  29
ATOM     27  C   UNL     1       0.015   1.149   0.717  0.00  0.00    +0.087 C 
ATOM     28  C   UNL     1      -0.015  -0.226   0.102  0.00  0.00    +0.114 A 
ATOM     29  C   UNL     1      -1.137  -0.941  -0.201  0.00  0.00    +0.078 A 
ATOM     30  C   UNL     1      -0.657  -2.207  -0.775  0.00  0.00    +0.054 A 
ATOM     31  C   UNL     1       0.683  -2.132  -0.763  0.00  0.00    +0.196 A 
ATOM     32  O   UNL     1       1.053  -0.951  -0.246  0.00  0.00    -0.467 OA
ENDBRANCH  23  29
ENDBRANCH   1  25
TORSDOF 5
