REMARK  Name = ZINC01248511
REMARK  4 active torsions:
REMARK  status: ('A' for Active; 'I' for Inactive)
REMARK    1  A    between atoms: C_10  and  N_11
REMARK    2  A    between atoms: C_12  and  C_14
REMARK    3  A    between atoms: C_14  and  C_15
REMARK    4  A    between atoms: C_17  and  O_26
REMARK                            x       y       z     vdW  Elec       q    Type
REMARK                         _______ _______ _______ _____ _____    ______ ____
ROOT
ATOM      1  N   UNL     1       4.871   0.098  -0.045  0.00  0.00    -0.285 N 
ATOM      2  C   UNL     1       6.047  -0.555   0.042  0.00  0.00    +0.219 C 
ATOM      3  O   UNL     1       6.068  -1.768   0.036  0.00  0.00    -0.275 OA
ATOM      4  H   UNL     1       4.858   1.065  -0.121  0.00  0.00    +0.155 HD
ENDROOT
BRANCH   1  14
ATOM      5  C   UNL     1       0.203   0.945  -1.767  0.00  0.00    +0.001 A 
ATOM      6  C   UNL     1       1.389   1.676  -1.797  0.00  0.00    +0.001 A 
ATOM      7  C   UNL     1       2.529   1.185  -1.236  0.00  0.00    +0.010 A 
ATOM      8  C   UNL     1       2.511  -0.076  -0.618  0.00  0.00    +0.003 A 
ATOM      9  C   UNL     1       1.306  -0.819  -0.587  0.00  0.00    -0.016 A 
ATOM     10  C   UNL     1       0.149  -0.280  -1.177  0.00  0.00    +0.008 A 
ATOM     11  C   UNL     1       1.286  -2.080   0.032  0.00  0.00    +0.008 A 
ATOM     12  C   UNL     1       2.422  -2.578   0.596  0.00  0.00    +0.002 A 
ATOM     13  C   UNL     1       3.612  -1.857   0.572  0.00  0.00    +0.024 A 
ATOM     14  C   UNL     1       3.672  -0.617  -0.026  0.00  0.00    +0.041 A 
ENDBRANCH   1  14
BRANCH   2  15
ATOM     15  C   UNL     1       7.334   0.221   0.146  0.00  0.00    +0.120 C 
BRANCH  15  16
ATOM     16  C   UNL     1       8.511  -0.753   0.231  0.00  0.00    +0.145 C 
ATOM     17  C   UNL     1       9.788   0.014   0.449  0.00  0.00    +0.202 C 
ATOM     18  N   UNL     1      10.945  -0.399   0.098  0.00  0.00    -0.215 NA
ATOM     19  C   UNL     1      11.261  -1.571  -0.520  0.00  0.00    +0.081 A 
ATOM     20  C   UNL     1      12.564  -2.067  -0.442  0.00  0.00    +0.029 A 
ATOM     21  C   UNL     1      12.893  -3.251  -1.069  0.00  0.00    +0.002 A 
ATOM     22  C   UNL     1      11.942  -3.959  -1.782  0.00  0.00    +0.001 A 
ATOM     23  C   UNL     1      10.646  -3.484  -1.869  0.00  0.00    +0.017 A 
ATOM     24  C   UNL     1      10.304  -2.300  -1.242  0.00  0.00    +0.034 A 
ATOM     25  S   UNL     1       8.649  -1.684  -1.327  0.00  0.00    -0.110 S 
BRANCH  17  26
ATOM     26  O   UNL     1       9.704   1.217   1.054  0.00  0.00    -0.495 OA
ATOM     27  H   UNL     1      10.556   1.661   1.166  0.00  0.00    +0.293 HD
ENDBRANCH  17  26
ENDBRANCH  15  16
ENDBRANCH   2  15
TORSDOF 4
