REMARK  Name = ZINC22758942
REMARK  4 active torsions:
REMARK  status: ('A' for Active; 'I' for Inactive)
REMARK    1  A    between atoms: C_4  and  C_19
REMARK    2  A    between atoms: C_6  and  N_7
REMARK    3  A    between atoms: N_7  and  S_8
REMARK    4  A    between atoms: S_8  and  C_11
REMARK                            x       y       z     vdW  Elec       q    Type
REMARK                         _______ _______ _______ _____ _____    ______ ____
ROOT
ATOM      1  C   UNL     1       2.207   3.418  -2.036  0.00  0.00    +0.027 A 
ATOM      2  C   UNL     1       1.374   4.234  -2.778  0.00  0.00    +0.041 A 
ATOM      3  C   UNL     1       1.905   5.117  -3.698  0.00  0.00    +0.134 A 
ATOM      4  C   UNL     1       3.289   5.191  -3.876  0.00  0.00    +0.056 A 
ATOM      5  C   UNL     1       4.128   4.372  -3.123  0.00  0.00    +0.039 A 
ATOM      6  C   UNL     1       3.585   3.489  -2.202  0.00  0.00    +0.049 A 
ATOM      7  F   UNL     1       1.087   5.909  -4.426  0.00  0.00    -0.205 F 
ENDROOT
BRANCH   4   8
ATOM      8  C   UNL     1       3.861   6.136  -4.860  0.00  0.00    +0.167 A 
ATOM      9  N   UNL     1       3.460   6.316  -6.100  0.00  0.00    -0.129 NA
ATOM     10  N   UNL     1       4.182   7.220  -6.664  0.00  0.00    -0.134 NA
ATOM     11  C   UNL     1       5.073   7.666  -5.823  0.00  0.00    +0.134 A 
ATOM     12  N   UNL     1       4.904   6.992  -4.655  0.00  0.00    -0.311 N 
ATOM     13  C   UNL     1       5.696   7.150  -3.435  0.00  0.00    +0.125 C 
ATOM     14  C   UNL     1       6.246   8.578  -3.369  0.00  0.00    +0.022 C 
ATOM     15  C   UNL     1       7.599   8.642  -4.075  0.00  0.00    +0.002 C 
ATOM     16  C   UNL     1       7.455   8.271  -5.547  0.00  0.00    +0.008 C 
ATOM     17  C   UNL     1       6.100   8.741  -6.069  0.00  0.00    +0.076 C 
ENDBRANCH   4   8
BRANCH   6  18
ATOM     18  N   UNL     1       4.424   2.665  -1.445  0.00  0.00    -0.216 N 
ATOM     19  H   UNL     1       5.011   3.089  -0.617  0.00  0.00    +0.174 HD
BRANCH  18  20
ATOM     20  S   UNL     1       4.534   1.050  -1.795  0.00  0.00    +0.072 S 
ATOM     21  O   UNL     1       3.203   0.556  -1.858  0.00  0.00    -0.150 OA
ATOM     22  O   UNL     1       5.506   0.508  -0.911  0.00  0.00    -0.150 OA
BRANCH  20  23
ATOM     23  C   UNL     1       5.199   0.913  -3.421  0.00  0.00    +0.111 A 
ATOM     24  C   UNL     1       4.352   0.774  -4.504  0.00  0.00    +0.032 A 
ATOM     25  C   UNL     1       4.871   0.667  -5.781  0.00  0.00    +0.043 A 
ATOM     26  C   UNL     1       6.241   0.699  -5.975  0.00  0.00    +0.159 A 
ATOM     27  C   UNL     1       7.091   0.839  -4.888  0.00  0.00    +0.160 A 
ATOM     28  C   UNL     1       6.567   0.946  -3.612  0.00  0.00    +0.070 A 
ATOM     29  F   UNL     1       8.429   0.870  -5.076  0.00  0.00    -0.202 F 
ATOM     30  F   UNL     1       6.750   0.595  -7.222  0.00  0.00    -0.202 F 
ENDBRANCH  20  23
ENDBRANCH  18  20
ENDBRANCH   6  18
TORSDOF 4
