REMARK  Name = ZINC62926111
REMARK  5 active torsions:
REMARK  status: ('A' for Active; 'I' for Inactive)
REMARK    1  A    between atoms: C_1  and  C_2
REMARK    2  A    between atoms: C_2  and  N_3
REMARK    3  A    between atoms: N_3  and  C_4
REMARK    4  A    between atoms: C_15  and  C_17
REMARK    5  A    between atoms: C_15  and  C_18
REMARK                            x       y       z     vdW  Elec       q    Type
REMARK                         _______ _______ _______ _____ _____    ______ ____
ROOT
ATOM      1  N   UNL     1       0.804  -0.586   1.081  0.00  0.00    -0.283 N 
ATOM      2  C   UNL     1       2.148  -0.598   0.991  0.00  0.00    +0.305 C 
ATOM      3  O   UNL     1       2.817  -0.995   1.926  0.00  0.00    -0.252 OA
ATOM      4  N   UNL     1       2.752  -0.169  -0.135  0.00  0.00    -0.284 N 
ATOM      5  C   UNL     1       2.067   0.348  -1.334  0.00  0.00    +0.110 C 
ATOM      6  C   UNL     1       3.116   1.247  -2.034  0.00  0.00    +0.038 C 
ATOM      7  C   UNL     1       4.425   0.453  -1.780  0.00  0.00    +0.086 C 
ATOM      8  C   UNL     1       4.203  -0.132  -0.369  0.00  0.00    +0.127 C 
ATOM      9  C   UNL     1       4.592  -0.662  -2.814  0.00  0.00    +0.024 C 
ENDROOT
BRANCH   1  10
ATOM     10  C   UNL     1       0.153  -0.895   2.357  0.00  0.00    +0.074 C 
ATOM     11  C   UNL     1       0.610   0.106   3.421  0.00  0.00    +0.003 C 
ATOM     12  C   UNL     1      -0.011  -0.271   4.768  0.00  0.00    -0.081 C 
ATOM     13  N   UNL     1       0.418  -1.622   5.149  0.00  0.00    +0.379 N 
ATOM     14  C   UNL     1      -0.079  -2.596   4.170  0.00  0.00    -0.081 C 
ATOM     15  C   UNL     1       0.540  -2.309   2.800  0.00  0.00    +0.003 C 
ATOM     16  H   UNL     1       1.426  -1.658   5.176  0.00  0.00    -0.086 HD
ATOM     17  H   UNL     1       0.050  -1.846   6.061  0.00  0.00    -0.086 HD
ENDBRANCH   1  10
BRANCH   7  18
ATOM     18  C   UNL     1       5.617   1.375  -1.789  0.00  0.00    +0.363 C 
ATOM     19  O   UNL     1       5.466   2.565  -2.007  0.00  0.00    -0.246 OA
ATOM     20  O   UNL     1       6.733   0.930  -1.579  0.00  0.00    -0.246 OA
ENDBRANCH   7  18
BRANCH   1  22
ATOM     21  C   UNL     1      -0.360   1.225  -0.080  0.00  0.00    +0.024 C 
ATOM     22  C   UNL     1      -0.007  -0.264  -0.096  0.00  0.00    +0.106 C 
ENDBRANCH   1  22
TORSDOF 3
