REMARK  Name = ZINC39481021
REMARK  9 active torsions:
REMARK  status: ('A' for Active; 'I' for Inactive)
REMARK    1  A    between atoms: C_1  and  C_2
REMARK    2  A    between atoms: C_5  and  N_25
REMARK    3  A    between atoms: C_6  and  N_8
REMARK    4  A    between atoms: C_12  and  S_15
REMARK    5  A    between atoms: S_15  and  O_18
REMARK    6  A    between atoms: O_18  and  C_19
REMARK    7  A    between atoms: N_25  and  S_26
REMARK    8  A    between atoms: S_26  and  C_29
REMARK    9  A    between atoms: C_34  and  O_35
REMARK                            x       y       z     vdW  Elec       q    Type
REMARK                         _______ _______ _______ _____ _____    ______ ____
ROOT
ATOM      1  C   UNL     1      -0.078   1.625   1.753  0.00  0.00    +0.044 C 
ATOM      2  C   UNL     1       0.078   0.144   1.524  0.00  0.00    -0.049 A 
ATOM      3  C   UNL     1       0.291  -0.337   0.245  0.00  0.00    +0.005 A 
ATOM      4  C   UNL     1       0.435  -1.695   0.028  0.00  0.00    +0.026 A 
ATOM      5  C   UNL     1       0.368  -2.579   1.094  0.00  0.00    +0.069 A 
ATOM      6  C   UNL     1       0.154  -2.094   2.384  0.00  0.00    +0.053 A 
ATOM      7  C   UNL     1       0.015  -0.730   2.594  0.00  0.00    +0.028 A 
ENDROOT
BRANCH   6   8
ATOM      8  N   UNL     1       0.084  -2.981   3.465  0.00  0.00    -0.330 N 
ATOM      9  C   UNL     1       1.292  -3.350   4.220  0.00  0.00    +0.086 C 
ATOM     10  C   UNL     1       1.353  -4.877   4.323  0.00  0.00    -0.061 C 
ATOM     11  N   UNL     1       0.100  -5.378   4.902  0.00  0.00    +0.398 N 
ATOM     12  C   UNL     1      -1.020  -5.087   3.998  0.00  0.00    +0.133 C 
ATOM     13  C   UNL     1      -1.199  -3.566   3.882  0.00  0.00    +0.115 C 
ATOM     14  H   UNL     1       0.169  -6.375   5.040  0.00  0.00    -0.083 HD
ATOM     15  H   UNL     1      -0.062  -4.929   5.791  0.00  0.00    -0.083 HD
BRANCH  12  16
ATOM     16  S   UNL     1      -2.539  -5.825   4.660  0.00  0.00    +0.109 S 
ATOM     17  O   UNL     1      -2.738  -5.412   6.005  0.00  0.00    -0.138 OA
ATOM     18  O   UNL     1      -3.589  -5.721   3.708  0.00  0.00    -0.138 OA
BRANCH  16  19
ATOM     19  O   UNL     1      -2.243  -7.315   4.751  0.00  0.00    -0.347 OA
BRANCH  19  20
ATOM     20  C   UNL     1      -2.259  -7.956   3.553  0.00  0.00    +0.156 A 
ATOM     21  C   UNL     1      -3.426  -8.554   3.100  0.00  0.00    +0.048 A 
ATOM     22  C   UNL     1      -3.440  -9.204   1.882  0.00  0.00    +0.004 A 
ATOM     23  C   UNL     1      -2.292  -9.261   1.114  0.00  0.00    +0.000 A 
ATOM     24  C   UNL     1      -1.127  -8.666   1.563  0.00  0.00    +0.004 A 
ATOM     25  C   UNL     1      -1.110  -8.009   2.778  0.00  0.00    +0.048 A 
ENDBRANCH  19  20
ENDBRANCH  16  19
ENDBRANCH  12  16
ENDBRANCH   6   8
BRANCH   5  26
ATOM     26  N   UNL     1       0.514  -3.954   0.876  0.00  0.00    -0.214 N 
ATOM     27  H   UNL     1       0.002  -4.586   1.405  0.00  0.00    +0.174 HD
BRANCH  26  28
ATOM     28  S   UNL     1       1.560  -4.502  -0.284  0.00  0.00    +0.076 S 
ATOM     29  O   UNL     1       2.771  -3.779  -0.114  0.00  0.00    -0.150 OA
ATOM     30  O   UNL     1       1.508  -5.922  -0.240  0.00  0.00    -0.150 OA
BRANCH  28  31
ATOM     31  C   UNL     1       0.902  -4.023  -1.847  0.00  0.00    +0.150 A 
ATOM     32  C   UNL     1       1.602  -3.144  -2.651  0.00  0.00    +0.032 A 
ATOM     33  C   UNL     1       1.087  -2.767  -3.877  0.00  0.00    +0.002 A 
ATOM     34  C   UNL     1      -0.130  -3.268  -4.302  0.00  0.00    +0.004 A 
ATOM     35  C   UNL     1      -0.834  -4.147  -3.502  0.00  0.00    +0.047 A 
ATOM     36  C   UNL     1      -0.316  -4.531  -2.273  0.00  0.00    +0.143 A 
BRANCH  36  37
ATOM     37  O   UNL     1      -1.003  -5.400  -1.486  0.00  0.00    -0.505 OA
ATOM     38  H   UNL     1      -1.674  -4.981  -0.930  0.00  0.00    +0.292 HD
ENDBRANCH  36  37
ENDBRANCH  28  31
ENDBRANCH  26  28
ENDBRANCH   5  26
TORSDOF 8
