REMARK  Name = ZINC20714496
REMARK  2 active torsions:
REMARK  status: ('A' for Active; 'I' for Inactive)
REMARK    1  A    between atoms: C_2  and  C_3
REMARK    2  A    between atoms: C_3  and  N_4
REMARK                            x       y       z     vdW  Elec       q    Type
REMARK                         _______ _______ _______ _____ _____    ______ ____
ROOT
ATOM      1  N   UNL     1       1.357   1.975  -0.000  0.00  0.00    -0.259 N 
ATOM      2  C   UNL     1       2.095   2.231   1.141  0.00  0.00    +0.042 A 
ATOM      3  C   UNL     1       1.735   2.081   2.482  0.00  0.00    +0.024 A 
ATOM      4  C   UNL     1       2.684   2.417   3.434  0.00  0.00    +0.002 A 
ATOM      5  C   UNL     1       3.936   2.883   3.087  0.00  0.00    +0.000 A 
ATOM      6  C   UNL     1       4.307   3.038   1.755  0.00  0.00    +0.007 A 
ATOM      7  C   UNL     1       3.369   2.705   0.802  0.00  0.00    -0.006 A 
ATOM      8  C   UNL     1       3.415   2.742  -0.692  0.00  0.00    +0.112 C 
ATOM      9  C   UNL     1       2.054   2.242  -1.125  0.00  0.00    +0.236 C 
ATOM     10  O   UNL     1       1.663   2.108  -2.265  0.00  0.00    -0.274 OA
ATOM     11  C   UNL     1       4.506   1.821  -1.235  0.00  0.00    +0.122 C 
ATOM     12  C   UNL     1       5.857   2.476  -1.162  0.00  0.00    +0.220 C 
ATOM     13  O   UNL     1       6.824   1.798  -0.884  0.00  0.00    -0.275 OA
ATOM     14  N   UNL     1       6.029   3.794  -1.396  0.00  0.00    -0.270 N 
ATOM     15  C   UNL     1       4.897   4.600  -1.518  0.00  0.00    +0.125 A 
ATOM     16  C   UNL     1       3.646   4.139  -1.198  0.00  0.00    +0.032 A 
ATOM     17  C   UNL     1       2.742   5.165  -1.428  0.00  0.00    +0.141 A 
ATOM     18  N   UNL     1       3.410   6.210  -1.858  0.00  0.00    -0.180 NA
ATOM     19  N   UNL     1       4.772   5.875  -1.912  0.00  0.00    -0.264 N 
ATOM     20  H   UNL     1       5.495   6.462  -2.185  0.00  0.00    +0.190 HD
ATOM     21  H   UNL     1       6.919   4.172  -1.478  0.00  0.00    +0.156 HD
ENDROOT
BRANCH   1  22
ATOM     22  C   UNL     1      -0.018   1.468   0.010  0.00  0.00    +0.202 C 
BRANCH  22  24
ATOM     23  C   UNL     1       0.018  -1.178  -0.004  0.00  0.00    +0.005 C 
ATOM     24  C   UNL     1       0.002  -0.004   0.002  0.00  0.00    -0.086 C 
ENDBRANCH  22  24
ENDBRANCH   1  22
TORSDOF 2
