REMARK  Name = ZINC55311866
REMARK  6 active torsions:
REMARK  status: ('A' for Active; 'I' for Inactive)
REMARK    1  A    between atoms: C_1  and  C_2
REMARK    2  A    between atoms: C_7  and  N_8
REMARK    3  A    between atoms: N_8  and  S_9
REMARK    4  A    between atoms: S_9  and  C_12
REMARK    5  A    between atoms: C_14  and  C_18
REMARK    6  A    between atoms: C_16  and  C_17
REMARK                            x       y       z     vdW  Elec       q    Type
REMARK                         _______ _______ _______ _____ _____    ______ ____
ROOT
ATOM      1  S   UNL     1       0.050  -0.854   3.843  0.00  0.00    +0.095 S 
ATOM      2  O   UNL     1      -1.185  -1.552   3.926  0.00  0.00    -0.148 OA
ATOM      3  O   UNL     1       1.305  -1.518   3.903  0.00  0.00    -0.148 OA
ENDROOT
BRANCH   1   4
ATOM      4  C   UNL     1       0.046   0.334   5.145  0.00  0.00    +0.152 A 
ATOM      5  C   UNL     1      -0.968   0.524   6.094  0.00  0.00    +0.086 A 
ATOM      6  C   UNL     1      -0.550   1.552   6.913  0.00  0.00    +0.218 A 
ATOM      7  O   UNL     1       0.660   1.961   6.477  0.00  0.00    -0.451 OA
ATOM      8  C   UNL     1       1.023   1.228   5.418  0.00  0.00    +0.130 A 
ATOM      9  C   UNL     1       2.312   1.377   4.652  0.00  0.00    +0.088 C 
BRANCH   6  10
ATOM     10  C   UNL     1      -1.287   2.100   8.050  0.00  0.00    +0.421 C 
ATOM     11  O   UNL     1      -2.382   1.641   8.348  0.00  0.00    -0.237 OA
ATOM     12  O   UNL     1      -0.808   3.018   8.704  0.00  0.00    -0.237 OA
ENDBRANCH   6  10
ENDBRANCH   1   4
BRANCH   1  13
ATOM     13  N   UNL     1       0.025  -0.016   2.415  0.00  0.00    -0.097 NA
BRANCH  13  20
ATOM     14  C   UNL     1      -0.018   1.503   0.010  0.00  0.00    +0.046 C 
ATOM     15  C   UNL     1       0.002  -0.004   0.002  0.00  0.00    -0.025 A 
ATOM     16  C   UNL     1       0.006  -0.689  -1.198  0.00  0.00    +0.019 A 
ATOM     17  C   UNL     1       0.024  -2.072  -1.206  0.00  0.00    +0.014 A 
ATOM     18  C   UNL     1       0.039  -2.774  -0.014  0.00  0.00    +0.016 A 
ATOM     19  C   UNL     1       0.035  -2.095   1.189  0.00  0.00    +0.028 A 
ATOM     20  C   UNL     1       0.023  -0.706   1.200  0.00  0.00    +0.077 A 
ATOM     21  I   UNL     1       0.030  -3.106  -3.028  0.00  0.00    -0.044 I 
ENDBRANCH  13  20
ENDBRANCH   1  13
TORSDOF 4
