REMARK  Name = ZINC35649998
REMARK  6 active torsions:
REMARK  status: ('A' for Active; 'I' for Inactive)
REMARK    1  A    between atoms: C_1  and  C_2
REMARK    2  A    between atoms: C_7  and  C_20
REMARK    3  A    between atoms: N_12  and  C_16
REMARK    4  A    between atoms: C_16  and  C_17
REMARK    5  A    between atoms: C_17  and  C_18
REMARK    6  A    between atoms: C_18  and  O_19
REMARK                            x       y       z     vdW  Elec       q    Type
REMARK                         _______ _______ _______ _____ _____    ______ ____
ROOT
ATOM      1  C   UNL     1      -0.019   1.526   0.010  0.00  0.00    +0.010 C 
ATOM      2  C   UNL     1       0.002  -0.004   0.002  0.00  0.00    +0.019 C 
ATOM      3  C   UNL     1       0.718  -0.498  -1.258  0.00  0.00    +0.006 C 
ATOM      4  C   UNL     1       0.756  -2.027  -1.255  0.00  0.00    +0.001 C 
ATOM      5  C   UNL     1       1.516  -2.519  -0.021  0.00  0.00    +0.006 C 
ATOM      6  C   UNL     1       0.803  -2.032   1.243  0.00  0.00    +0.019 C 
ATOM      7  C   UNL     1       0.739  -0.509   1.238  0.00  0.00    +0.118 C 
ATOM      8  C   UNL     1       0.069  -0.004   2.495  0.00  0.00    +0.247 C 
ATOM      9  O   UNL     1      -1.064  -0.228   2.863  0.00  0.00    -0.273 OA
ATOM     10  N   UNL     1       0.998   0.746   3.122  0.00  0.00    -0.224 N 
ATOM     11  C   UNL     1       2.148   0.781   2.437  0.00  0.00    +0.309 C 
ATOM     12  O   UNL     1       3.133   1.393   2.801  0.00  0.00    -0.252 OA
ATOM     13  N   UNL     1       2.091   0.063   1.300  0.00  0.00    -0.284 N 
ATOM     14  C   UNL     1      -0.617  -2.602   1.279  0.00  0.00    +0.010 C 
ATOM     15  H   UNL     1       2.801  -0.054   0.650  0.00  0.00    +0.151 HD
ENDROOT
BRANCH  10  16
ATOM     16  C   UNL     1       0.777   1.438   4.394  0.00  0.00    +0.120 C 
BRANCH  16  17
ATOM     17  C   UNL     1       1.160   0.512   5.551  0.00  0.00    +0.047 C 
BRANCH  17  18
ATOM     18  C   UNL     1       0.928   1.234   6.880  0.00  0.00    +0.157 C 
BRANCH  18  19
ATOM     19  O   UNL     1       1.286   0.370   7.960  0.00  0.00    -0.395 OA
ATOM     20  H   UNL     1       1.164   0.764   8.835  0.00  0.00    +0.209 HD
ENDBRANCH  18  19
ENDBRANCH  17  18
ENDBRANCH  16  17
ENDBRANCH  10  16
TORSDOF 4
