REMARK  Name = ZINC61887323
REMARK  7 active torsions:
REMARK  status: ('A' for Active; 'I' for Inactive)
REMARK    1  A    between atoms: C_1  and  C_2
REMARK    2  A    between atoms: C_3  and  S_9
REMARK    3  A    between atoms: C_4  and  C_8
REMARK    4  A    between atoms: S_9  and  N_12
REMARK    5  A    between atoms: N_12  and  C_13
REMARK    6  A    between atoms: C_18  and  C_20
REMARK    7  A    between atoms: C_20  and  N_22
REMARK                            x       y       z     vdW  Elec       q    Type
REMARK                         _______ _______ _______ _____ _____    ______ ____
ROOT
ATOM      1  N   UNL     1       1.569  -0.072  -3.243  0.00  0.00    -0.186 NA
ATOM      2  H   UNL     1       1.914   0.806  -3.466  0.00  0.00    +0.148 HD
ENDROOT
BRANCH   1   3
ATOM      3  C   UNL     1       2.444  -1.245  -3.324  0.00  0.00    +0.086 C 
ATOM      4  C   UNL     1       2.505  -1.758  -4.777  0.00  0.00    +0.021 C 
ATOM      5  C   UNL     1       3.782  -1.102  -5.359  0.00  0.00    +0.002 C 
ATOM      6  C   UNL     1       4.766  -1.151  -4.163  0.00  0.00    +0.011 C 
ATOM      7  C   UNL     1       3.881  -0.859  -2.932  0.00  0.00    +0.059 C 
BRANCH   7   8
ATOM      8  C   UNL     1       4.337  -1.688  -1.759  0.00  0.00    +0.051 C 
ATOM      9  S   UNL     1       3.459  -2.932  -1.271  0.00  0.00    -0.040 S 
BRANCH   8  10
ATOM     10  N   UNL     1       5.484  -1.381  -1.122  0.00  0.00    -0.355 N 
ATOM     11  H   UNL     1       6.016  -0.626  -1.419  0.00  0.00    +0.143 HD
ATOM     12  H   UNL     1       5.777  -1.914  -0.367  0.00  0.00    +0.143 HD
ENDBRANCH   8  10
ENDBRANCH   7   8
ENDBRANCH   1   3
BRANCH   1  13
ATOM     13  S   UNL     1      -0.008  -0.247  -2.770  0.00  0.00    +0.062 S 
ATOM     14  O   UNL     1      -0.548  -1.312  -3.541  0.00  0.00    -0.153 OA
ATOM     15  O   UNL     1      -0.578   1.055  -2.765  0.00  0.00    -0.153 OA
BRANCH  13  18
ATOM     16  C   UNL     1      -0.018   1.503   0.010  0.00  0.00    +0.067 C 
ATOM     17  C   UNL     1       0.002  -0.004   0.002  0.00  0.00    +0.060 A 
ATOM     18  C   UNL     1       0.008  -0.796  -1.095  0.00  0.00    +0.148 A 
ATOM     19  C   UNL     1       0.028  -2.127  -0.666  0.00  0.00    +0.086 A 
ATOM     20  N   UNL     1       0.035  -2.134   0.643  0.00  0.00    -0.177 NA
ATOM     21  N   UNL     1       0.024  -0.805   1.088  0.00  0.00    -0.280 N 
ATOM     22  H   UNL     1       0.029  -0.513   2.013  0.00  0.00    +0.189 HD
ATOM     23  C   UNL     1       0.040  -3.343  -1.556  0.00  0.00    +0.069 C 
ENDBRANCH  13  18
ENDBRANCH   1  13
TORSDOF 5
