REMARK  Name = ZINC49563278
REMARK  4 active torsions:
REMARK  status: ('A' for Active; 'I' for Inactive)
REMARK    1  A    between atoms: C_1  and  O_2
REMARK    2  A    between atoms: O_2  and  C_3
REMARK    3  A    between atoms: C_8  and  N_9
REMARK    4  A    between atoms: N_9  and  C_10
REMARK                            x       y       z     vdW  Elec       q    Type
REMARK                         _______ _______ _______ _____ _____    ______ ____
ROOT
ATOM      1  C   UNL     1       0.158  -4.240   0.147  0.00  0.00    +0.190 C 
ATOM      2  C   UNL     1      -0.002  -4.835  -1.233  0.00  0.00    +0.004 A 
ATOM      3  C   UNL     1       0.737  -4.727  -2.390  0.00  0.00    +0.008 A 
ATOM      4  C   UNL     1       0.338  -5.404  -3.529  0.00  0.00    +0.002 A 
ATOM      5  C   UNL     1      -0.802  -6.187  -3.501  0.00  0.00    +0.022 A 
ATOM      6  C   UNL     1      -1.545  -6.296  -2.342  0.00  0.00    +0.062 A 
ATOM      7  C   UNL     1      -1.148  -5.617  -1.190  0.00  0.00    +0.057 A 
ATOM      8  N   UNL     1      -1.719  -5.569   0.082  0.00  0.00    -0.282 N 
ATOM      9  C   UNL     1      -1.018  -4.788   0.926  0.00  0.00    +0.242 C 
ATOM     10  O   UNL     1      -1.279  -4.564   2.090  0.00  0.00    -0.273 OA
ATOM     11 CL   UNL     1      -2.974  -7.282  -2.319  0.00  0.00    -0.082 Cl
ATOM     12  H   UNL     1      -2.527  -6.044   0.331  0.00  0.00    +0.155 HD
ENDROOT
BRANCH   1  13
ATOM     13  N   UNL     1       0.098  -2.778   0.086  0.00  0.00    -0.326 N 
ATOM     14  H   UNL     1      -0.348  -2.341  -0.657  0.00  0.00    +0.147 HD
BRANCH  13  20
ATOM     15  C   UNL     1       0.626  -0.619   1.042  0.00  0.00    +0.141 A 
ATOM     16  C   UNL     1       1.202   0.136   2.051  0.00  0.00    +0.048 A 
ATOM     17  C   UNL     1       1.837  -0.490   3.108  0.00  0.00    +0.019 A 
ATOM     18  C   UNL     1       1.899  -1.871   3.162  0.00  0.00    +0.020 A 
ATOM     19  C   UNL     1       1.327  -2.631   2.159  0.00  0.00    +0.042 A 
ATOM     20  C   UNL     1       0.683  -2.010   1.099  0.00  0.00    +0.071 A 
ATOM     21 BR   UNL     1       2.770  -2.719   4.610  0.00  0.00    -0.050 Br
BRANCH  15  23
ATOM     22  C   UNL     1      -0.017   1.425   0.010  0.00  0.00    +0.277 C 
ATOM     23  O   UNL     1       0.002  -0.004   0.002  0.00  0.00    -0.493 OA
ENDBRANCH  15  23
ENDBRANCH  13  20
ENDBRANCH   1  13
TORSDOF 3
