REMARK  Name = ZINC37063574
REMARK  5 active torsions:
REMARK  status: ('A' for Active; 'I' for Inactive)
REMARK    1  A    between atoms: C_1  and  C_2
REMARK    2  A    between atoms: C_4  and  N_7
REMARK    3  A    between atoms: N_7  and  S_8
REMARK    4  A    between atoms: S_8  and  C_11
REMARK    5  A    between atoms: C_14  and  N_18
REMARK                            x       y       z     vdW  Elec       q    Type
REMARK                         _______ _______ _______ _____ _____    ______ ____
ROOT
ATOM      1  C   UNL     1       0.073  -5.897  -2.216  0.00  0.00    +0.147 A 
ATOM      2  C   UNL     1      -1.122  -6.361  -2.736  0.00  0.00    +0.071 A 
ATOM      3  C   UNL     1      -1.118  -7.265  -3.782  0.00  0.00    +0.044 A 
ATOM      4  C   UNL     1       0.088  -7.708  -4.311  0.00  0.00    +0.027 A 
ATOM      5  C   UNL     1       1.286  -7.240  -3.788  0.00  0.00    +0.044 A 
ATOM      6  C   UNL     1       1.276  -6.332  -2.745  0.00  0.00    +0.071 A 
ATOM      7 CL   UNL     1       2.773  -5.742  -2.095  0.00  0.00    -0.081 Cl
ATOM      8 CL   UNL     1      -2.628  -5.808  -2.075  0.00  0.00    -0.081 Cl
ENDROOT
BRANCH   1   9
ATOM      9  S   UNL     1       0.064  -4.745  -0.884  0.00  0.00    +0.097 S 
ATOM     10  O   UNL     1       1.315  -4.879  -0.223  0.00  0.00    -0.148 OA
ATOM     11  O   UNL     1      -1.175  -4.913  -0.210  0.00  0.00    -0.148 OA
BRANCH   9  12
ATOM     12  N   UNL     1       0.040  -3.228  -1.548  0.00  0.00    -0.057 NA
BRANCH  12  16
ATOM     13  C   UNL     1      -0.018   1.503   0.010  0.00  0.00    +0.069 C 
ATOM     14  C   UNL     1       0.002  -0.004   0.002  0.00  0.00    +0.083 A 
ATOM     15  C   UNL     1       0.008  -0.819  -1.138  0.00  0.00    +0.095 A 
ATOM     16  C   UNL     1       0.028  -2.115  -0.728  0.00  0.00    +0.259 A 
ATOM     17  O   UNL     1       0.035  -2.121   0.616  0.00  0.00    -0.336 OA
ATOM     18  N   UNL     1       0.023  -0.774   1.055  0.00  0.00    -0.081 NA
ENDBRANCH  12  16
ENDBRANCH   9  12
ENDBRANCH   1   9
BRANCH   4  19
ATOM     19  N   UNL     1       0.095  -8.621  -5.368  0.00  0.00    -0.358 N 
ATOM     20  H   UNL     1      -0.742  -8.948  -5.732  0.00  0.00    +0.142 HD
ATOM     21  H   UNL     1       0.938  -8.930  -5.737  0.00  0.00    +0.142 HD
ENDBRANCH   4  19
TORSDOF 4
