REMARK  Name = ZINC67450555
REMARK  9 active torsions:
REMARK  status: ('A' for Active; 'I' for Inactive)
REMARK    1  A    between atoms: C_1  and  N_2
REMARK    2  A    between atoms: C_4  and  C_11
REMARK    3  A    between atoms: N_7  and  C_10
REMARK    4  A    between atoms: C_11  and  N_12
REMARK    5  A    between atoms: N_12  and  C_13
REMARK    6  A    between atoms: C_13  and  C_14
REMARK    7  A    between atoms: C_14  and  N_15
REMARK    8  A    between atoms: N_15  and  S_16
REMARK    9  A    between atoms: S_16  and  C_19
REMARK                            x       y       z     vdW  Elec       q    Type
REMARK                         _______ _______ _______ _____ _____    ______ ____
ROOT
ATOM      1  N   UNL     1      -2.811  -3.178  -1.381  0.00  0.00    +0.383 N 
ATOM      2  H   UNL     1      -2.930  -2.334  -1.922  0.00  0.00    -0.085 HD
ATOM      3  H   UNL     1      -2.079  -3.739  -1.791  0.00  0.00    -0.085 HD
ENDROOT
BRANCH   1   4
ATOM      4  C   UNL     1      -2.448  -2.829  -0.002  0.00  0.00    -0.040 C 
BRANCH   4   8
ATOM      5  C   UNL     1      -0.018   1.461   0.010  0.00  0.00    +0.153 C 
ATOM      6  N   UNL     1       0.002  -0.004   0.002  0.00  0.00    -0.303 N 
ATOM      7  C   UNL     1      -1.177  -0.698   0.004  0.00  0.00    +0.097 A 
ATOM      8  C   UNL     1      -1.159  -2.048  -0.004  0.00  0.00    +0.016 A 
ATOM      9  C   UNL     1       0.087  -2.720  -0.014  0.00  0.00    +0.258 A 
ATOM     10  O   UNL     1       0.129  -3.937  -0.022  0.00  0.00    -0.267 OA
ATOM     11  N   UNL     1       1.227  -2.000  -0.016  0.00  0.00    -0.264 N 
ATOM     12  C   UNL     1       1.180  -0.654  -0.013  0.00  0.00    +0.331 A 
ATOM     13  O   UNL     1       2.216  -0.018  -0.019  0.00  0.00    -0.246 OA
ATOM     14  C   UNL     1       2.522  -2.684  -0.026  0.00  0.00    +0.157 C 
ENDBRANCH   4   8
ENDBRANCH   1   4
BRANCH   1  15
ATOM     15  C   UNL     1      -4.067  -3.940  -1.379  0.00  0.00    -0.065 C 
BRANCH  15  16
ATOM     16  C   UNL     1      -4.446  -4.303  -2.816  0.00  0.00    +0.087 C 
BRANCH  16  17
ATOM     17  N   UNL     1      -5.699  -5.063  -2.814  0.00  0.00    -0.192 NA
ATOM     18  H   UNL     1      -6.033  -5.444  -1.987  0.00  0.00    +0.148 HD
BRANCH  17  19
ATOM     19  S   UNL     1      -6.543  -5.271  -4.223  0.00  0.00    +0.058 S 
ATOM     20  O   UNL     1      -7.680  -6.061  -3.902  0.00  0.00    -0.153 OA
ATOM     21  O   UNL     1      -6.652  -3.988  -4.825  0.00  0.00    -0.153 OA
BRANCH  19  22
ATOM     22  C   UNL     1      -5.539  -6.245  -5.294  0.00  0.00    +0.107 A 
ATOM     23  C   UNL     1      -4.646  -5.631  -6.153  0.00  0.00    +0.028 A 
ATOM     24  C   UNL     1      -3.858  -6.395  -6.993  0.00  0.00    +0.003 A 
ATOM     25  C   UNL     1      -3.962  -7.774  -6.975  0.00  0.00    +0.020 A 
ATOM     26  C   UNL     1      -4.854  -8.389  -6.115  0.00  0.00    +0.043 A 
ATOM     27  C   UNL     1      -5.639  -7.624  -5.270  0.00  0.00    +0.048 A 
ATOM     28 CL   UNL     1      -4.985 -10.119  -6.092  0.00  0.00    -0.083 Cl
ENDBRANCH  19  22
ENDBRANCH  17  19
ENDBRANCH  16  17
ENDBRANCH  15  16
ENDBRANCH   1  15
TORSDOF 7
