REMARK  Name = ZINC52904001
REMARK  4 active torsions:
REMARK  status: ('A' for Active; 'I' for Inactive)
REMARK    1  A    between atoms: C_1  and  C_2
REMARK    2  A    between atoms: N_5  and  C_9
REMARK    3  A    between atoms: C_14  and  C_15
REMARK    4  A    between atoms: N_16  and  O_17
REMARK                            x       y       z     vdW  Elec       q    Type
REMARK                         _______ _______ _______ _____ _____    ______ ____
ROOT
ATOM      1  C   UNL     1      -2.091  -2.845  -0.654  0.00  0.00    +0.042 A 
ATOM      2  C   UNL     1      -1.487  -3.335  -1.804  0.00  0.00    +0.024 A 
ATOM      3  C   UNL     1      -2.184  -4.178  -2.647  0.00  0.00    +0.003 A 
ATOM      4  C   UNL     1      -3.488  -4.542  -2.353  0.00  0.00    +0.021 A 
ATOM      5  C   UNL     1      -4.104  -4.064  -1.213  0.00  0.00    +0.053 A 
ATOM      6  C   UNL     1      -3.408  -3.215  -0.350  0.00  0.00    +0.057 A 
ATOM      7 CL   UNL     1      -5.738  -4.523  -0.851  0.00  0.00    -0.083 Cl
ENDROOT
BRANCH   1  11
ATOM      8  C   UNL     1      -0.019   1.526   0.010  0.00  0.00    +0.039 C 
ATOM      9  C   UNL     1       0.002  -0.004   0.002  0.00  0.00    +0.132 C 
ATOM     10  C   UNL     1      -1.436  -0.536   0.015  0.00  0.00    +0.136 C 
ATOM     11  N   UNL     1      -1.389  -1.995   0.196  0.00  0.00    -0.325 N 
ATOM     12  C   UNL     1      -0.578  -2.530   1.302  0.00  0.00    +0.133 C 
ATOM     13  C   UNL     1       0.818  -1.901   1.226  0.00  0.00    +0.179 C 
ATOM     14  O   UNL     1       0.691  -0.479   1.161  0.00  0.00    -0.374 OA
ENDBRANCH   1  11
BRANCH   6  15
ATOM     15  C   UNL     1      -4.059  -2.704   0.875  0.00  0.00    +0.166 C 
ATOM     16  N   UNL     1      -4.729  -1.589   0.839  0.00  0.00    -0.071 NA
ATOM     17  N   UNL     1      -3.957  -3.413   2.060  0.00  0.00    -0.340 N 
ATOM     18  H   UNL     1      -3.458  -4.244   2.087  0.00  0.00    +0.144 HD
ATOM     19  H   UNL     1      -4.385  -3.078   2.864  0.00  0.00    +0.144 HD
BRANCH  16  20
ATOM     20  O   UNL     1      -5.353  -1.099   2.012  0.00  0.00    -0.408 OA
ATOM     21  H   UNL     1      -5.827  -0.266   1.887  0.00  0.00    +0.328 HD
ENDBRANCH  16  20
ENDBRANCH   6  15
TORSDOF 3
