REMARK  Name = ZINC40166602
REMARK  4 active torsions:
REMARK  status: ('A' for Active; 'I' for Inactive)
REMARK    1  A    between atoms: C_3  and  O_8
REMARK    2  A    between atoms: C_6  and  N_7
REMARK    3  A    between atoms: O_8  and  C_9
REMARK    4  A    between atoms: C_12  and  N_15
REMARK                            x       y       z     vdW  Elec       q    Type
REMARK                         _______ _______ _______ _____ _____    ______ ____
ROOT
ATOM      1  C   UNL     1       4.759   1.492  -0.002  0.00  0.00    +0.129 A 
ATOM      2  C   UNL     1       4.851   0.137  -0.286  0.00  0.00    +0.048 A 
ATOM      3  C   UNL     1       6.081  -0.491  -0.267  0.00  0.00    +0.027 A 
ATOM      4  C   UNL     1       7.226   0.234   0.037  0.00  0.00    +0.036 A 
ATOM      5  C   UNL     1       7.133   1.590   0.321  0.00  0.00    +0.027 A 
ATOM      6  C   UNL     1       5.904   2.218   0.296  0.00  0.00    +0.048 A 
ENDROOT
BRANCH   4   7
ATOM      7  N   UNL     1       8.473  -0.403   0.057  0.00  0.00    -0.276 N 
ATOM      8  C   UNL     1       8.918  -1.428   0.973  0.00  0.00    +0.123 C 
ATOM      9  C   UNL     1       8.466  -1.471   2.430  0.00  0.00    +0.190 C 
ATOM     10  S   UNL     1       9.857  -2.482   3.128  0.00  0.00    -0.027 S 
ATOM     11  O   UNL     1       9.507  -3.858   3.069  0.00  0.00    -0.174 OA
ATOM     12  O   UNL     1      10.268  -1.916   4.364  0.00  0.00    -0.174 OA
ATOM     13  C   UNL     1      11.145  -2.130   1.842  0.00  0.00    +0.190 C 
ATOM     14  C   UNL     1      10.433  -1.061   1.045  0.00  0.00    +0.115 C 
ATOM     15  N   UNL     1      10.694  -0.730  -0.324  0.00  0.00    -0.320 N 
ATOM     16  C   UNL     1       9.525  -0.189  -0.790  0.00  0.00    +0.138 C 
ATOM     17  S   UNL     1       9.395   0.665  -2.268  0.00  0.00    -0.018 S 
ATOM     18  H   UNL     1      11.520  -0.863  -0.817  0.00  0.00    +0.148 HD
ENDBRANCH   4   7
BRANCH   1  19
ATOM     19  O   UNL     1       3.549   2.110  -0.021  0.00  0.00    -0.456 OA
BRANCH  19  22
ATOM     20  C   UNL     1       2.571   1.510   3.433  0.00  0.00    +0.026 A 
ATOM     21  C   UNL     1       3.312   1.503   2.268  0.00  0.00    +0.048 A 
ATOM     22  C   UNL     1       2.818   2.117   1.126  0.00  0.00    +0.129 A 
ATOM     23  C   UNL     1       1.578   2.739   1.154  0.00  0.00    +0.048 A 
ATOM     24  C   UNL     1       0.836   2.748   2.318  0.00  0.00    +0.026 A 
ATOM     25  C   UNL     1       1.330   2.132   3.461  0.00  0.00    +0.025 A 
BRANCH  25  26
ATOM     26  N   UNL     1       0.578   2.140   4.641  0.00  0.00    -0.358 N 
ATOM     27  H   UNL     1       0.923   1.710   5.439  0.00  0.00    +0.142 HD
ATOM     28  H   UNL     1      -0.289   2.574   4.661  0.00  0.00    +0.142 HD
ENDBRANCH  25  26
ENDBRANCH  19  22
ENDBRANCH   1  19
TORSDOF 4
