REMARK  Name = ZINC44863812
REMARK  5 active torsions:
REMARK  status: ('A' for Active; 'I' for Inactive)
REMARK    1  A    between atoms: C_1  and  C_2
REMARK    2  A    between atoms: C_2  and  C_4
REMARK    3  A    between atoms: C_2  and  C_8
REMARK    4  A    between atoms: N_5  and  O_6
REMARK    5  A    between atoms: C_13  and  C_16
REMARK                            x       y       z     vdW  Elec       q    Type
REMARK                         _______ _______ _______ _____ _____    ______ ____
ROOT
ATOM      1  C   UNL     1      -1.384  -0.584   0.118  0.00  0.00    +0.226 C 
ATOM      2  O   UNL     1      -1.690  -1.231   1.098  0.00  0.00    -0.275 OA
ATOM      3  N   UNL     1      -2.284  -0.381  -0.864  0.00  0.00    -0.301 N 
ATOM      4  C   UNL     1      -1.896   0.303  -2.105  0.00  0.00    +0.108 C 
ATOM      5  C   UNL     1      -2.280  -0.581  -3.296  0.00  0.00    +0.032 C 
ATOM      6  C   UNL     1      -3.768  -0.929  -3.209  0.00  0.00    +0.078 C 
ATOM      7  C   UNL     1      -4.036  -1.711  -1.921  0.00  0.00    +0.032 C 
ATOM      8  C   UNL     1      -3.670  -0.846  -0.717  0.00  0.00    +0.108 C 
ENDROOT
BRANCH   6   9
ATOM      9  C   UNL     1      -4.157  -1.770  -4.397  0.00  0.00    +0.214 C 
ATOM     10  O   UNL     1      -3.326  -2.062  -5.231  0.00  0.00    -0.276 OA
ATOM     11  N   UNL     1      -5.428  -2.198  -4.533  0.00  0.00    -0.329 N 
ATOM     12  H   UNL     1      -6.092  -1.965  -3.866  0.00  0.00    +0.145 HD
ATOM     13  H   UNL     1      -5.678  -2.740  -5.298  0.00  0.00    +0.145 HD
ENDBRANCH   6   9
BRANCH   1  15
ATOM     14  C   UNL     1      -0.018   1.462   0.426  0.00  0.00    +0.025 C 
ATOM     15  C   UNL     1       0.003  -0.007   0.000  0.00  0.00    +0.138 C 
BRANCH  15  16
ATOM     16  C   UNL     1       0.944  -0.775   0.892  0.00  0.00    +0.143 C 
ATOM     17  N   UNL     1       1.201  -0.345   2.083  0.00  0.00    -0.076 NA
ATOM     18  N   UNL     1       1.531  -1.935   0.438  0.00  0.00    -0.343 N 
ATOM     19  H   UNL     1       1.339  -2.258  -0.456  0.00  0.00    +0.144 HD
ATOM     20  H   UNL     1       2.137  -2.429   1.012  0.00  0.00    +0.144 HD
BRANCH  17  21
ATOM     21  O   UNL     1       2.085  -1.067   2.921  0.00  0.00    -0.408 OA
ATOM     22  H   UNL     1       2.214  -0.668   3.793  0.00  0.00    +0.328 HD
ENDBRANCH  17  21
ENDBRANCH  15  16
ENDBRANCH   1  15
TORSDOF 4
