REMARK  Name = ZINC06863855
REMARK  3 active torsions:
REMARK  status: ('A' for Active; 'I' for Inactive)
REMARK    1  A    between atoms: C_5  and  N_7
REMARK    2  A    between atoms: C_8  and  N_15
REMARK    3  A    between atoms: C_9  and  C_12
REMARK                            x       y       z     vdW  Elec       q    Type
REMARK                         _______ _______ _______ _____ _____    ______ ____
ROOT
ATOM      1  N   UNL     1       1.183   3.510  -0.201  0.00  0.00    -0.197 N 
ATOM      2  C   UNL     1       2.241   4.313   0.099  0.00  0.00    +0.153 A 
ATOM      3  C   UNL     1       1.722   5.588   0.284  0.00  0.00    +0.188 A 
ATOM      4  N   UNL     1       0.391   5.529   0.095  0.00  0.00    -0.122 NA
ATOM      5  N   UNL     1       0.043   4.325  -0.197  0.00  0.00    -0.058 NA
ENDROOT
BRANCH   1  10
ATOM      6  C   UNL     1       2.202   0.273  -1.623  0.00  0.00    +0.002 A 
ATOM      7  C   UNL     1       1.311  -0.581  -0.998  0.00  0.00    +0.002 A 
ATOM      8  C   UNL     1       0.377  -0.081  -0.110  0.00  0.00    +0.022 A 
ATOM      9  C   UNL     1       0.332   1.275   0.157  0.00  0.00    +0.066 A 
ATOM     10  C   UNL     1       1.226   2.134  -0.469  0.00  0.00    +0.087 A 
ATOM     11  C   UNL     1       2.162   1.628  -1.361  0.00  0.00    +0.029 A 
ATOM     12 CL   UNL     1      -0.841   1.902   1.273  0.00  0.00    -0.081 Cl
ENDBRANCH   1  10
BRANCH   3  13
ATOM     13  C   UNL     1       2.492   6.791   0.625  0.00  0.00    +0.265 C 
ATOM     14  O   UNL     1       3.698   6.721   0.770  0.00  0.00    -0.269 OA
ATOM     15  N   UNL     1       1.863   7.973   0.776  0.00  0.00    -0.324 N 
ATOM     16  H   UNL     1       0.901   8.030   0.660  0.00  0.00    +0.145 HD
ATOM     17  H   UNL     1       2.371   8.768   1.002  0.00  0.00    +0.145 HD
ENDBRANCH   3  13
BRANCH   2  18
ATOM     18  N   UNL     1       3.564   3.935   0.199  0.00  0.00    -0.341 N 
ATOM     19  H   UNL     1       3.807   2.998   0.138  0.00  0.00    +0.144 HD
ATOM     20  H   UNL     1       4.252   4.607   0.330  0.00  0.00    +0.144 HD
ENDBRANCH   2  18
TORSDOF 3
