REMARK  Name = ZINC64411408
REMARK  5 active torsions:
REMARK  status: ('A' for Active; 'I' for Inactive)
REMARK    1  A    between atoms: C_1  and  C_2
REMARK    2  A    between atoms: N_11  and  C_12
REMARK    3  A    between atoms: C_12  and  C_13
REMARK    4  A    between atoms: C_19  and  C_21
REMARK    5  A    between atoms: C_24  and  C_27
REMARK                            x       y       z     vdW  Elec       q    Type
REMARK                         _______ _______ _______ _____ _____    ______ ____
ROOT
ATOM      1  C   UNL     1       2.064   0.932   2.796  0.00  0.00    +0.009 C 
ATOM      2  C   UNL     1       1.532   2.187   2.100  0.00  0.00    +0.024 C 
ATOM      3  C   UNL     1       1.472   3.338   3.109  0.00  0.00    +0.108 C 
ATOM      4  N   UNL     1       2.799   3.503   3.718  0.00  0.00    -0.299 N 
ATOM      5  C   UNL     1       3.442   2.335   4.336  0.00  0.00    +0.108 C 
ATOM      6  C   UNL     1       3.480   1.195   3.313  0.00  0.00    +0.024 C 
ATOM      7  C   UNL     1       3.414   4.702   3.711  0.00  0.00    +0.246 C 
ATOM      8  O   UNL     1       2.872   5.658   3.197  0.00  0.00    -0.273 OA
ENDROOT
BRANCH   7   9
ATOM      9  C   UNL     1       4.774   4.855   4.340  0.00  0.00    +0.238 C 
ATOM     10  C   UNL     1       4.652   5.043   5.842  0.00  0.00    +0.040 C 
ATOM     11  C   UNL     1       5.186   6.261   6.059  0.00  0.00    +0.092 C 
ATOM     12  N   UNL     1       5.605   6.810   4.889  0.00  0.00    -0.153 NA
ATOM     13  N   UNL     1       5.417   6.101   3.893  0.00  0.00    -0.170 NA
BRANCH  11  14
ATOM     14  C   UNL     1       5.301   6.910   7.388  0.00  0.00    +0.002 A 
ATOM     15  C   UNL     1       4.844   6.253   8.529  0.00  0.00    +0.013 A 
ATOM     16  C   UNL     1       4.953   6.861   9.762  0.00  0.00    +0.039 A 
ATOM     17  C   UNL     1       5.517   8.122   9.868  0.00  0.00    +0.123 A 
ATOM     18  C   UNL     1       5.973   8.779   8.737  0.00  0.00    +0.039 A 
ATOM     19  C   UNL     1       5.873   8.176   7.500  0.00  0.00    +0.013 A 
ATOM     20  F   UNL     1       5.622   8.714  11.079  0.00  0.00    -0.205 F 
ENDBRANCH  11  14
ENDBRANCH   7   9
BRANCH   1  21
ATOM     21  C   UNL     1       2.094  -0.229   1.800  0.00  0.00    +0.110 C 
BRANCH  21  31
ATOM     22  C   UNL     1       0.391  -2.863   2.221  0.00  0.00    +0.049 C 
ATOM     23  C   UNL     1      -0.196  -1.453   2.127  0.00  0.00    +0.155 C 
ATOM     24  N   UNL     1      -1.435  -1.472   1.340  0.00  0.00    -0.325 N 
ATOM     25  C   UNL     1      -1.235  -0.644   0.227  0.00  0.00    +0.050 A 
ATOM     26  C   UNL     1      -2.087  -0.320  -0.822  0.00  0.00    +0.025 A 
ATOM     27  C   UNL     1      -1.663   0.532  -1.823  0.00  0.00    +0.002 A 
ATOM     28  C   UNL     1      -0.388   1.066  -1.786  0.00  0.00    +0.002 A 
ATOM     29  C   UNL     1       0.466   0.750  -0.748  0.00  0.00    +0.025 A 
ATOM     30  C   UNL     1       0.048  -0.107   0.264  0.00  0.00    +0.052 A 
ATOM     31  N   UNL     1       0.724  -0.568   1.404  0.00  0.00    -0.310 N 
ATOM     32  H   UNL     1      -2.243  -1.966   1.551  0.00  0.00    +0.148 HD
ENDBRANCH  21  31
ENDBRANCH   1  21
TORSDOF 4
