REMARK  Name = ZINC37063955
REMARK  6 active torsions:
REMARK  status: ('A' for Active; 'I' for Inactive)
REMARK    1  A    between atoms: C_1  and  C_2
REMARK    2  A    between atoms: C_5  and  S_9
REMARK    3  A    between atoms: C_6  and  N_8
REMARK    4  A    between atoms: S_9  and  N_12
REMARK    5  A    between atoms: N_12  and  C_13
REMARK    6  A    between atoms: C_18  and  C_19
REMARK                            x       y       z     vdW  Elec       q    Type
REMARK                         _______ _______ _______ _____ _____    ______ ____
ROOT
ATOM      1  S   UNL     1      -0.060  -4.603  -0.093  0.00  0.00    +0.074 S 
ATOM      2  O   UNL     1      -0.983  -5.159   0.834  0.00  0.00    -0.150 OA
ATOM      3  O   UNL     1      -0.083  -4.924  -1.477  0.00  0.00    -0.150 OA
ENDROOT
BRANCH   1   8
ATOM      4  C   UNL     1      -0.627   1.397   0.291  0.00  0.00    +0.044 C 
ATOM      5  C   UNL     1      -0.484  -0.101   0.200  0.00  0.00    -0.049 A 
ATOM      6  C   UNL     1      -0.527  -0.725  -1.034  0.00  0.00    +0.005 A 
ATOM      7  C   UNL     1      -0.398  -2.098  -1.123  0.00  0.00    +0.031 A 
ATOM      8  C   UNL     1      -0.225  -2.852   0.021  0.00  0.00    +0.129 A 
ATOM      9  C   UNL     1      -0.181  -2.229   1.262  0.00  0.00    +0.052 A 
ATOM     10  C   UNL     1      -0.306  -0.848   1.347  0.00  0.00    +0.028 A 
BRANCH   9  11
ATOM     11  N   UNL     1      -0.006  -2.989   2.421  0.00  0.00    -0.356 N 
ATOM     12  H   UNL     1       0.179  -3.939   2.355  0.00  0.00    +0.142 HD
ATOM     13  H   UNL     1      -0.069  -2.567   3.292  0.00  0.00    +0.142 HD
ENDBRANCH   9  11
ENDBRANCH   1   8
BRANCH   1  14
ATOM     14  N   UNL     1       1.453  -4.989   0.458  0.00  0.00    -0.216 N 
ATOM     15  H   UNL     1       1.557  -5.483   1.286  0.00  0.00    +0.174 HD
BRANCH  14  16
ATOM     16  C   UNL     1       2.581  -4.605  -0.272  0.00  0.00    +0.051 A 
ATOM     17  C   UNL     1       2.591  -3.394  -0.953  0.00  0.00    +0.026 A 
ATOM     18  C   UNL     1       3.707  -3.017  -1.673  0.00  0.00    +0.022 A 
ATOM     19  C   UNL     1       4.816  -3.844  -1.717  0.00  0.00    +0.041 A 
ATOM     20  C   UNL     1       4.809  -5.050  -1.040  0.00  0.00    +0.025 A 
ATOM     21  C   UNL     1       3.697  -5.431  -0.314  0.00  0.00    -0.027 A 
ATOM     22  C   UNL     1       3.694  -6.742   0.428  0.00  0.00    +0.046 C 
ATOM     23 CL   UNL     1       6.217  -3.366  -2.623  0.00  0.00    -0.084 Cl
ENDBRANCH  14  16
ENDBRANCH   1  14
TORSDOF 4
