REMARK  Name = ZINC50038113
REMARK  7 active torsions:
REMARK  status: ('A' for Active; 'I' for Inactive)
REMARK    1  A    between atoms: C_6  and  C_7
REMARK    2  A    between atoms: C_7  and  C_8
REMARK    3  A    between atoms: C_10  and  C_13
REMARK    4  A    between atoms: C_13  and  C_15
REMARK    5  A    between atoms: C_13  and  N_18
REMARK    6  A    between atoms: C_15  and  C_16
REMARK    7  A    between atoms: C_16  and  O_17
REMARK                            x       y       z     vdW  Elec       q    Type
REMARK                         _______ _______ _______ _____ _____    ______ ____
ROOT
ATOM      1  C   UNL     1      -1.739  -1.024  -1.407  0.00  0.00    +0.176 A 
ATOM      2  N   UNL     1      -2.521  -0.215  -2.130  0.00  0.00    -0.197 NA
ATOM      3  C   UNL     1      -2.716  -0.723  -3.316  0.00  0.00    +0.213 A 
ATOM      4  O   UNL     1      -2.057  -1.886  -3.387  0.00  0.00    -0.340 OA
ATOM      5  N   UNL     1      -1.420  -2.059  -2.130  0.00  0.00    -0.061 NA
ENDROOT
BRANCH   1   6
ATOM      6  C   UNL     1      -1.293  -0.775   0.011  0.00  0.00    +0.115 C 
BRANCH   6  12
ATOM      7  C   UNL     1      -0.017   1.378   0.010  0.00  0.00    +0.005 A 
ATOM      8  C   UNL     1       1.171   2.086   0.002  0.00  0.00    +0.022 A 
ATOM      9  C   UNL     1       2.378   1.412  -0.013  0.00  0.00    +0.059 A 
ATOM     10  C   UNL     1       2.397   0.027  -0.021  0.00  0.00    +0.060 A 
ATOM     11  C   UNL     1       1.208  -0.680  -0.013  0.00  0.00    +0.025 A 
ATOM     12  C   UNL     1       0.002  -0.004   0.002  0.00  0.00    -0.038 A 
ATOM     13 CL   UNL     1       3.912  -0.821  -0.040  0.00  0.00    -0.082 Cl
ATOM     14 CL   UNL     1       3.869   2.301  -0.023  0.00  0.00    -0.082 Cl
ENDBRANCH   6  12
ENDBRANCH   1   6
BRANCH   3  15
ATOM     15  C   UNL     1      -3.542  -0.106  -4.415  0.00  0.00    +0.018 C 
BRANCH  15  16
ATOM     16  N   UNL     1      -2.810  -0.197  -5.686  0.00  0.00    +0.386 N 
ATOM     17  H   UNL     1      -2.631  -1.165  -5.903  0.00  0.00    -0.089 HD
ATOM     18  H   UNL     1      -3.363   0.216  -6.422  0.00  0.00    -0.089 HD
ATOM     19  H   UNL     1      -1.934   0.298  -5.606  0.00  0.00    -0.089 HD
ENDBRANCH  15  16
BRANCH  15  20
ATOM     20  C   UNL     1      -4.870  -0.856  -4.537  0.00  0.00    +0.021 C 
BRANCH  20  21
ATOM     21  C   UNL     1      -5.759  -0.155  -5.566  0.00  0.00    +0.154 C 
BRANCH  21  22
ATOM     22  O   UNL     1      -6.999  -0.855  -5.680  0.00  0.00    -0.395 OA
ATOM     23  H   UNL     1      -7.614  -0.466  -6.317  0.00  0.00    +0.209 HD
ENDBRANCH  21  22
ENDBRANCH  20  21
ENDBRANCH  15  20
ENDBRANCH   3  15
TORSDOF 7
