REMARK  Name = ZINC37035158
REMARK  6 active torsions:
REMARK  status: ('A' for Active; 'I' for Inactive)
REMARK    1  A    between atoms: C_1  and  C_2
REMARK    2  A    between atoms: C_7  and  C_10
REMARK    3  A    between atoms: C_11  and  C_13
REMARK    4  A    between atoms: C_13  and  S_14
REMARK    5  A    between atoms: S_14  and  C_15
REMARK    6  A    between atoms: C_20  and  N_21
REMARK                            x       y       z     vdW  Elec       q    Type
REMARK                         _______ _______ _______ _____ _____    ______ ____
ROOT
ATOM      1  C   UNL     1       4.228   0.867  -2.031  0.00  0.00    +0.170 C 
ENDROOT
BRANCH   1  10
ATOM      2  C   UNL     1      -0.019   1.526   0.010  0.00  0.00    +0.039 C 
ATOM      3  C   UNL     1       0.002  -0.004   0.002  0.00  0.00    +0.133 C 
ATOM      4  C   UNL     1       0.722  -0.499  -1.258  0.00  0.00    +0.139 C 
ATOM      5  N   UNL     1       2.143  -0.135  -1.154  0.00  0.00    -0.296 N 
ATOM      6  C   UNL     1       2.860  -0.488   0.082  0.00  0.00    +0.139 C 
ATOM      7  C   UNL     1       2.036   0.007   1.277  0.00  0.00    +0.133 C 
ATOM      8  O   UNL     1       0.695  -0.479   1.159  0.00  0.00    -0.371 OA
ATOM      9  C   UNL     1       2.656  -0.513   2.575  0.00  0.00    +0.039 C 
ATOM     10  C   UNL     1       2.771   0.504  -2.161  0.00  0.00    +0.226 C 
ATOM     11  O   UNL     1       2.164   0.786  -3.172  0.00  0.00    -0.275 OA
ENDBRANCH   1  10
BRANCH   1  12
ATOM     12  S   UNL     1       4.778   1.710  -3.540  0.00  0.00    -0.114 S 
BRANCH  12  13
ATOM     13  C   UNL     1       6.477   2.064  -3.235  0.00  0.00    +0.029 A 
ATOM     14  C   UNL     1       7.063   1.684  -2.037  0.00  0.00    +0.016 A 
ATOM     15  C   UNL     1       8.396   1.963  -1.800  0.00  0.00    +0.001 A 
ATOM     16  C   UNL     1       9.149   2.620  -2.755  0.00  0.00    +0.002 A 
ATOM     17  C   UNL     1       8.573   3.004  -3.953  0.00  0.00    +0.024 A 
ATOM     18  C   UNL     1       7.239   2.723  -4.201  0.00  0.00    +0.038 A 
BRANCH  18  19
ATOM     19  N   UNL     1       6.655   3.104  -5.415  0.00  0.00    -0.357 N 
ATOM     20  H   UNL     1       5.720   2.911  -5.586  0.00  0.00    +0.142 HD
ATOM     21  H   UNL     1       7.186   3.562  -6.086  0.00  0.00    +0.142 HD
ENDBRANCH  18  19
ENDBRANCH  12  13
ENDBRANCH   1  12
TORSDOF 4
