REMARK  Name = ZINC39545270
REMARK  2 active torsions:
REMARK  status: ('A' for Active; 'I' for Inactive)
REMARK    1  A    between atoms: C_4  and  N_7
REMARK    2  A    between atoms: C_8  and  C_10
REMARK                            x       y       z     vdW  Elec       q    Type
REMARK                         _______ _______ _______ _____ _____    ______ ____
ROOT
ATOM      1  C   UNL     1       4.962  -2.721   0.153  0.00  0.00    +0.152 C 
ATOM      2  C   UNL     1       5.792  -2.504  -1.127  0.00  0.00    +0.100 C 
ATOM      3  C   UNL     1       5.997  -3.898  -1.675  0.00  0.00    +0.137 C 
ATOM      4  C   UNL     1       5.404  -4.764  -0.892  0.00  0.00    +0.107 C 
ATOM      5  N   UNL     1       5.405  -6.167  -1.054  0.00  0.00    -0.302 N 
ATOM      6  C   UNL     1       5.462  -6.899   0.144  0.00  0.00    +0.037 A 
ATOM      7  C   UNL     1       5.583  -8.281   0.102  0.00  0.00    +0.023 A 
ATOM      8  C   UNL     1       5.631  -9.002   1.280  0.00  0.00    +0.002 A 
ATOM      9  C   UNL     1       5.556  -8.342   2.493  0.00  0.00    +0.000 A 
ATOM     10  C   UNL     1       5.439  -6.966   2.534  0.00  0.00    +0.007 A 
ATOM     11  C   UNL     1       5.397  -6.234   1.359  0.00  0.00    -0.010 A 
ATOM     12  C   UNL     1       5.295  -4.733   1.438  0.00  0.00    +0.124 C 
ATOM     13  N   UNL     1       4.746  -4.176   0.201  0.00  0.00    -0.368 NA
ATOM     14  F   UNL     1       6.684  -4.203  -2.797  0.00  0.00    -0.207 F 
ATOM     15  H   UNL     1       5.369  -6.593  -1.925  0.00  0.00    +0.153 HD
ATOM     16  H   UNL     1       3.758  -4.375   0.151  0.00  0.00    +0.129 HD
ENDROOT
BRANCH   1  18
ATOM     17  N   UNL     1       3.622  -0.651  -0.037  0.00  0.00    -0.181 N 
ATOM     18  C   UNL     1       3.645  -1.995   0.057  0.00  0.00    +0.253 C 
ATOM     19  O   UNL     1       2.606  -2.620   0.064  0.00  0.00    -0.272 OA
ATOM     20 CL   UNL     1       5.086   0.222  -0.173  0.00  0.00    +0.009 Cl
BRANCH  17  24
ATOM     21  C   UNL     1      -0.017   1.379   0.003  0.00  0.00    +0.000 A 
ATOM     22  C   UNL     1       0.257   0.434   0.975  0.00  0.00    +0.002 A 
ATOM     23  C   UNL     1       1.462  -0.241   0.964  0.00  0.00    +0.025 A 
ATOM     24  C   UNL     1       2.400   0.031  -0.024  0.00  0.00    +0.053 A 
ATOM     25  C   UNL     1       2.121   0.980  -0.999  0.00  0.00    +0.025 A 
ATOM     26  C   UNL     1       0.915   1.651  -0.982  0.00  0.00    +0.002 A 
ENDBRANCH  17  24
ENDBRANCH   1  18
TORSDOF 2
