REMARK  Name = ZINC52015491
REMARK  7 active torsions:
REMARK  status: ('A' for Active; 'I' for Inactive)
REMARK    1  A    between atoms: C_3  and  S_11
REMARK    2  A    between atoms: C_6  and  C_7
REMARK    3  A    between atoms: C_8  and  C_9
REMARK    4  A    between atoms: C_9  and  O_10
REMARK    5  A    between atoms: S_11  and  N_14
REMARK    6  A    between atoms: N_14  and  C_15
REMARK    7  A    between atoms: C_21  and  O_23
REMARK                            x       y       z     vdW  Elec       q    Type
REMARK                         _______ _______ _______ _____ _____    ______ ____
ROOT
ATOM      1  S   UNL     1       3.889   2.324  -0.023  0.00  0.00    +0.059 S 
ATOM      2  O   UNL     1       4.872   1.467  -0.588  0.00  0.00    -0.153 OA
ATOM      3  O   UNL     1       3.592   3.604  -0.565  0.00  0.00    -0.153 OA
ENDROOT
BRANCH   1   6
ATOM      4  C   UNL     1      -0.017   1.391   0.010  0.00  0.00    +0.019 A 
ATOM      5  C   UNL     1       1.170   2.094   0.002  0.00  0.00    +0.030 A 
ATOM      6  C   UNL     1       2.378   1.419  -0.013  0.00  0.00    +0.105 A 
ATOM      7  C   UNL     1       2.403   0.036  -0.021  0.00  0.00    +0.030 A 
ATOM      8  C   UNL     1       1.223  -0.679  -0.014  0.00  0.00    +0.019 A 
ATOM      9  C   UNL     1       0.002  -0.004   0.002  0.00  0.00    +0.025 A 
BRANCH   9  10
ATOM     10  C   UNL     1      -1.226  -0.740   0.010  0.00  0.00    -0.064 C 
ATOM     11  C   UNL     1      -2.233  -1.343   0.017  0.00  0.00    -0.069 C 
BRANCH  11  12
ATOM     12  C   UNL     1      -3.496  -2.100   0.025  0.00  0.00    +0.244 C 
BRANCH  12  13
ATOM     13  O   UNL     1      -3.213  -3.500   0.015  0.00  0.00    -0.383 OA
ATOM     14  H   UNL     1      -4.000  -4.061   0.020  0.00  0.00    +0.211 HD
ENDBRANCH  12  13
ENDBRANCH  11  12
ENDBRANCH   9  10
ENDBRANCH   1   6
BRANCH   1  15
ATOM     15  N   UNL     1       4.325   2.568   1.556  0.00  0.00    -0.184 NA
ATOM     16  H   UNL     1       4.351   3.467   1.919  0.00  0.00    +0.148 HD
BRANCH  15  17
ATOM     17  C   UNL     1       4.670   1.425   2.405  0.00  0.00    +0.105 C 
ATOM     18  C   UNL     1       6.187   1.226   2.399  0.00  0.00    +0.023 C 
ATOM     19  C   UNL     1       6.548   0.032   3.286  0.00  0.00    +0.002 C 
ATOM     20  C   UNL     1       6.074   0.298   4.716  0.00  0.00    +0.003 C 
ATOM     21  C   UNL     1       4.557   0.498   4.722  0.00  0.00    +0.033 C 
ATOM     22  C   UNL     1       4.196   1.691   3.835  0.00  0.00    +0.133 C 
BRANCH  22  23
ATOM     23  O   UNL     1       4.833   2.868   4.337  0.00  0.00    -0.390 OA
ATOM     24  H   UNL     1       4.579   3.097   5.242  0.00  0.00    +0.210 HD
ENDBRANCH  22  23
ENDBRANCH  15  17
ENDBRANCH   1  15
TORSDOF 7
