REMARK  Name = ZINC19866508
REMARK  4 active torsions:
REMARK  status: ('A' for Active; 'I' for Inactive)
REMARK    1  A    between atoms: C_4  and  N_7
REMARK    2  A    between atoms: C_8  and  S_12
REMARK    3  A    between atoms: S_12  and  C_13
REMARK    4  A    between atoms: C_16  and  C_19
REMARK                            x       y       z     vdW  Elec       q    Type
REMARK                         _______ _______ _______ _____ _____    ______ ____
ROOT
ATOM      1  C   UNL     1       0.005  -0.004   0.006  0.00  0.00    +0.016 A 
ATOM      2  C   UNL     1      -0.106  -0.697  -1.196  0.00  0.00    +0.016 A 
ATOM      3  C   UNL     1      -0.079  -2.073  -1.203  0.00  0.00    +0.012 A 
ATOM      4  C   UNL     1       0.048  -2.775  -0.003  0.00  0.00    +0.012 A 
ATOM      5  C   UNL     1       0.153  -2.077   1.203  0.00  0.00    +0.012 A 
ATOM      6  C   UNL     1       0.132  -0.701   1.204  0.00  0.00    +0.016 A 
ENDROOT
BRANCH   4   7
ATOM      7  C   UNL     1       0.071  -4.253  -0.007  0.00  0.00    +0.094 C 
ATOM      8  N   UNL     1       0.190  -4.907   1.114  0.00  0.00    -0.387 N 
ATOM      9  N   UNL     1      -0.033  -4.940  -1.198  0.00  0.00    -0.345 N 
ATOM     10  H   UNL     1       0.207  -6.006   1.111  0.00  0.00    +0.157 HD
ATOM     11  H   UNL     1      -0.016  -6.040  -1.201  0.00  0.00    +0.144 HD
ATOM     12  H   UNL     1      -0.134  -4.389  -2.144  0.00  0.00    +0.144 HD
ATOM     13  H   UNL     1       0.273  -4.358   2.064  0.00  0.00    +0.157 HD
ENDBRANCH   4   7
BRANCH   1  14
ATOM     14  S   UNL     1      -0.022   1.758   0.012  0.00  0.00    -0.048 S 
BRANCH  14  16
ATOM     15  N   UNL     1       2.297   3.309   0.086  0.00  0.00    -0.187 N 
ATOM     16  C   UNL     1       1.708   2.090  -0.009  0.00  0.00    +0.219 A 
ATOM     17  N   UNL     1       2.674   1.203  -0.112  0.00  0.00    -0.101 NA
ATOM     18  N   UNL     1       3.820   1.782  -0.098  0.00  0.00    -0.022 NA
ATOM     19  N   UNL     1       3.678   3.058   0.022  0.00  0.00    -0.038 NA
BRANCH  15  23
ATOM     20  C   UNL     1       0.412   7.007   0.477  0.00  0.00    +0.000 A 
ATOM     21  C   UNL     1       1.619   6.777   1.112  0.00  0.00    +0.002 A 
ATOM     22  C   UNL     1       2.246   5.553   0.984  0.00  0.00    +0.028 A 
ATOM     23  C   UNL     1       1.663   4.553   0.217  0.00  0.00    +0.070 A 
ATOM     24  C   UNL     1       0.454   4.789  -0.423  0.00  0.00    +0.028 A 
ATOM     25  C   UNL     1      -0.171   6.013  -0.287  0.00  0.00    +0.002 A 
ENDBRANCH  15  23
ENDBRANCH  14  16
ENDBRANCH   1  14
TORSDOF 4
