REMARK  Name = ZINC08790884
REMARK  7 active torsions:
REMARK  status: ('A' for Active; 'I' for Inactive)
REMARK    1  A    between atoms: C_8  and  C_11
REMARK    2  A    between atoms: N_13  and  C_14
REMARK    3  A    between atoms: C_14  and  C_16
REMARK    4  A    between atoms: C_14  and  C_27
REMARK    5  A    between atoms: C_16  and  C_17
REMARK    6  A    between atoms: N_29  and  C_30
REMARK    7  A    between atoms: C_30  and  C_31
REMARK                            x       y       z     vdW  Elec       q    Type
REMARK                         _______ _______ _______ _____ _____    ______ ____
ROOT
ATOM      1  C   UNL     1      -1.290   1.681   0.017  0.00  0.00    +0.163 C 
ENDROOT
BRANCH   1   4
ATOM      2  C   UNL     1       1.147   1.655   0.000  0.00  0.00    +0.200 C 
ATOM      3  O   UNL     1       1.130   2.868   0.007  0.00  0.00    -0.278 OA
ATOM      4  N   UNL     1      -0.011   0.966   0.007  0.00  0.00    -0.305 N 
ATOM      5  H   UNL     1       0.002  -0.004   0.002  0.00  0.00    +0.149 HD
BRANCH   2  13
ATOM      6  C   UNL     1       5.910  -1.316   2.596  0.00  0.00    +0.000 A 
ATOM      7  C   UNL     1       6.814  -1.032   1.590  0.00  0.00    +0.000 A 
ATOM      8  C   UNL     1       6.424  -0.264   0.512  0.00  0.00    +0.002 A 
ATOM      9  C   UNL     1       5.128   0.226   0.432  0.00  0.00    -0.061 A 
ATOM     10  C   UNL     1       4.228  -0.054   1.438  0.00  0.00    -0.047 A 
ATOM     11  C   UNL     1       4.621  -0.828   2.519  0.00  0.00    +0.004 A 
ATOM     12  C   UNL     1       2.814   0.465   1.400  0.00  0.00    +0.028 C 
ATOM     13  C   UNL     1       2.462   0.920  -0.017  0.00  0.00    +0.021 C 
ATOM     14  C   UNL     1       4.749   1.057  -0.766  0.00  0.00    -0.045 C 
ATOM     15  N   UNL     1       3.524   1.823  -0.497  0.00  0.00    +0.389 N 
ATOM     16  H   UNL     1       3.717   2.533   0.220  0.00  0.00    -0.084 HD
ATOM     17  H   UNL     1       3.215   2.284  -1.360  0.00  0.00    -0.084 HD
ENDBRANCH   2  13
ENDBRANCH   1   4
BRANCH   1  18
ATOM     18  C   UNL     1      -2.354   0.799   0.618  0.00  0.00    +0.234 C 
ATOM     19  O   UNL     1      -2.072  -0.317   1.000  0.00  0.00    -0.274 OA
ATOM     20  N   UNL     1      -3.619   1.251   0.731  0.00  0.00    -0.307 N 
ATOM     21  H   UNL     1      -3.844   2.143   0.425  0.00  0.00    +0.149 HD
BRANCH  20  22
ATOM     22  C   UNL     1      -4.653   0.393   1.315  0.00  0.00    +0.178 C 
BRANCH  22  23
ATOM     23  C   UNL     1      -5.968   1.129   1.325  0.00  0.00    +0.122 A 
ATOM     24  C   UNL     1      -6.885   1.116   0.340  0.00  0.00    +0.046 A 
ATOM     25  C   UNL     1      -7.955   1.936   0.766  0.00  0.00    +0.041 A 
ATOM     26  C   UNL     1      -7.629   2.401   1.985  0.00  0.00    +0.195 A 
ATOM     27  O   UNL     1      -6.427   1.904   2.321  0.00  0.00    -0.466 OA
ENDBRANCH  22  23
ENDBRANCH  20  22
ENDBRANCH   1  18
BRANCH   1  28
ATOM     28  C   UNL     1      -1.680   2.047  -1.416  0.00  0.00    +0.069 C 
BRANCH  28  29
ATOM     29  C   UNL     1      -0.680   3.027  -1.974  0.00  0.00    -0.020 A 
ATOM     30  C   UNL     1      -0.793   4.364  -1.986  0.00  0.00    +0.087 A 
ATOM     31  N   UNL     1       0.311   4.921  -2.572  0.00  0.00    -0.360 N 
ATOM     32  H   UNL     1       0.459   5.872  -2.692  0.00  0.00    +0.165 HD
ATOM     33  C   UNL     1       1.180   3.929  -2.970  0.00  0.00    +0.047 A 
ATOM     34  C   UNL     1       0.597   2.699  -2.613  0.00  0.00    +0.003 A 
ATOM     35  C   UNL     1       1.262   1.505  -2.897  0.00  0.00    +0.010 A 
ATOM     36  C   UNL     1       2.477   1.537  -3.521  0.00  0.00    +0.001 A 
ATOM     37  C   UNL     1       3.056   2.747  -3.876  0.00  0.00    +0.002 A 
ATOM     38  C   UNL     1       2.417   3.938  -3.605  0.00  0.00    +0.026 A 
ENDBRANCH  28  29
ENDBRANCH   1  28
TORSDOF 7
