REMARK  Name = ZINC53146457
REMARK  2 active torsions:
REMARK  status: ('A' for Active; 'I' for Inactive)
REMARK    1  A    between atoms: C_4  and  C_8
REMARK    2  A    between atoms: C_14  and  N_17
REMARK                            x       y       z     vdW  Elec       q    Type
REMARK                         _______ _______ _______ _____ _____    ______ ____
ROOT
ATOM      1  C   UNL     1       3.695  -0.685  -0.037  0.00  0.00    +0.170 A 
ATOM      2  N   UNL     1       4.892  -0.140  -0.133  0.00  0.00    -0.128 NA
ATOM      3  N   UNL     1       5.798  -1.054  -0.117  0.00  0.00    -0.129 NA
ATOM      4  C   UNL     1       5.228  -2.246  -0.009  0.00  0.00    +0.161 A 
ATOM      5  N   UNL     1       3.872  -2.039   0.050  0.00  0.00    -0.281 N 
ATOM      6  C   UNL     1       3.014  -3.094   0.169  0.00  0.00    +0.117 A 
ATOM      7  C   UNL     1       3.490  -4.362   0.234  0.00  0.00    +0.041 A 
ATOM      8  C   UNL     1       4.878  -4.602   0.179  0.00  0.00    +0.028 A 
ATOM      9  C   UNL     1       5.738  -3.556   0.052  0.00  0.00    +0.050 A 
ENDROOT
BRANCH   1  13
ATOM     10  C   UNL     1      -0.017   1.381   0.011  0.00  0.00    +0.017 A 
ATOM     11  C   UNL     1       1.025   1.818   0.809  0.00  0.00    +0.022 A 
ATOM     12  C   UNL     1       2.234   1.152   0.799  0.00  0.00    +0.052 A 
ATOM     13  C   UNL     1       2.404   0.033  -0.021  0.00  0.00    +0.039 A 
ATOM     14  C   UNL     1       1.349  -0.403  -0.824  0.00  0.00    +0.028 A 
ATOM     15  C   UNL     1       0.145   0.273  -0.804  0.00  0.00    +0.019 A 
ATOM     16 BR   UNL     1      -1.285  -0.317  -1.891  0.00  0.00    -0.050 Br
ATOM     17 CL   UNL     1       3.540   1.703   1.801  0.00  0.00    -0.083 Cl
ENDBRANCH   1  13
BRANCH   7  18
ATOM     18  N   UNL     1       2.600  -5.437   0.357  0.00  0.00    -0.357 N 
ATOM     19  H   UNL     1       1.645  -5.273   0.395  0.00  0.00    +0.142 HD
ATOM     20  H   UNL     1       2.939  -6.344   0.404  0.00  0.00    +0.142 HD
ENDBRANCH   7  18
TORSDOF 2
