REMARK  Name = ZINC19385327
REMARK  9 active torsions:
REMARK  status: ('A' for Active; 'I' for Inactive)
REMARK    1  A    between atoms: C_1  and  C_2
REMARK    2  A    between atoms: C_2  and  C_3
REMARK    3  A    between atoms: C_6  and  C_9
REMARK    4  A    between atoms: C_9  and  C_11
REMARK    5  A    between atoms: C_9  and  N_22
REMARK    6  A    between atoms: C_11  and  N_12
REMARK    7  A    between atoms: C_15  and  C_19
REMARK    8  A    between atoms: C_15  and  C_20
REMARK    9  A    between atoms: C_20  and  C_21
REMARK                            x       y       z     vdW  Elec       q    Type
REMARK                         _______ _______ _______ _____ _____    ______ ____
ROOT
ATOM      1  C   UNL     1      -2.951   1.165   1.463  0.00  0.00    -0.026 C 
ENDROOT
BRANCH   1   5
ATOM      2  C   UNL     1      -6.739  -0.810   1.470  0.00  0.00    -0.048 A 
ATOM      3  C   UNL     1      -6.673   0.559   1.651  0.00  0.00    +0.004 A 
ATOM      4  C   UNL     1      -5.447   1.198   1.649  0.00  0.00    +0.002 A 
ATOM      5  C   UNL     1      -4.287   0.469   1.466  0.00  0.00    -0.060 A 
ATOM      6  C   UNL     1      -4.354  -0.900   1.280  0.00  0.00    +0.002 A 
ATOM      7  C   UNL     1      -5.579  -1.540   1.287  0.00  0.00    +0.004 A 
BRANCH   2   9
ATOM      8  C   UNL     1      -8.631  -1.549   0.048  0.00  0.00    +0.009 C 
ATOM      9  C   UNL     1      -8.075  -1.507   1.473  0.00  0.00    +0.032 C 
ENDBRANCH   2   9
ENDBRANCH   1   5
BRANCH   1  10
ATOM     10  N   UNL     1      -1.968   0.343   2.181  0.00  0.00    +0.384 N 
ATOM     11  H   UNL     1      -0.993   0.852   2.179  0.00  0.00    -0.089 HD
ATOM     12  H   UNL     1      -1.874  -0.633   1.683  0.00  0.00    -0.089 HD
ATOM     13  H   UNL     1      -2.303   0.195   3.218  0.00  0.00    -0.089 HD
ENDBRANCH   1  10
BRANCH   1  14
ATOM     14  C   UNL     1      -2.487   1.371   0.020  0.00  0.00    +0.106 C 
BRANCH  14  15
ATOM     15  N   UNL     1      -1.137   1.940   0.018  0.00  0.00    -0.226 N 
ATOM     16  C   UNL     1      -0.871   3.261   0.028  0.00  0.00    +0.246 C 
ATOM     17  O   UNL     1      -1.675   4.169   0.041  0.00  0.00    -0.273 OA
ATOM     18  C   UNL     1       0.640   3.376   0.014  0.00  0.00    +0.109 C 
ATOM     19  N   UNL     1       1.094   1.974   0.002  0.00  0.00    -0.285 N 
ATOM     20  C   UNL     1      -0.014   1.211   0.009  0.00  0.00    +0.309 C 
ATOM     21  O   UNL     1       0.002  -0.004   0.002  0.00  0.00    -0.252 OA
ATOM     22  C   UNL     1       1.113   4.105  -1.245  0.00  0.00    +0.041 C 
ATOM     23  H   UNL     1       2.169   1.744  -0.009  0.00  0.00    +0.151 HD
BRANCH  18  24
ATOM     24  C   UNL     1       1.140   4.093   1.270  0.00  0.00    +0.031 C 
ATOM     25  C   UNL     1       2.670   4.098   1.279  0.00  0.00    +0.006 C 
ENDBRANCH  18  24
ENDBRANCH  14  15
ENDBRANCH   1  14
TORSDOF 6
