REMARK  Name = ZINC64491130
REMARK  5 active torsions:
REMARK  status: ('A' for Active; 'I' for Inactive)
REMARK    1  A    between atoms: C_1  and  C_2
REMARK    2  A    between atoms: C_19  and  C_20
REMARK    3  A    between atoms: N_22  and  C_23
REMARK    4  A    between atoms: C_23  and  C_24
REMARK    5  A    between atoms: C_24  and  C_25
REMARK                            x       y       z     vdW  Elec       q    Type
REMARK                         _______ _______ _______ _____ _____    ______ ____
ROOT
ATOM      1  C   UNL     1      -0.019   1.526   0.010  0.00  0.00    +0.009 C 
ATOM      2  C   UNL     1       0.002  -0.004   0.002  0.00  0.00    +0.003 C 
ATOM      3  C   UNL     1      -1.433  -0.534   0.015  0.00  0.00    +0.006 C 
ATOM      4  C   UNL     1      -1.414  -2.064  -0.027  0.00  0.00    +0.019 C 
ATOM      5  C   UNL     1      -0.692  -2.596   1.215  0.00  0.00    +0.107 C 
ATOM      6  N   UNL     1       0.639  -1.977   1.288  0.00  0.00    -0.308 N 
ATOM      7  C   UNL     1       0.742  -0.512   1.244  0.00  0.00    +0.110 C 
ATOM      8  C   UNL     1       1.774  -2.759   1.398  0.00  0.00    +0.177 C 
ATOM      9  N   UNL     1       3.015  -2.368   1.479  0.00  0.00    -0.154 NA
ATOM     10  N   UNL     1       4.070  -3.237   1.640  0.00  0.00    -0.186 N 
ATOM     11  C   UNL     1       3.710  -4.677   1.498  0.00  0.00    +0.251 C 
ATOM     12  S   UNL     1       1.881  -4.541   1.469  0.00  0.00    -0.045 S 
ATOM     13  N   UNL     1       4.167  -5.342   2.720  0.00  0.00    -0.283 N 
ATOM     14  C   UNL     1       5.309  -4.915   3.301  0.00  0.00    +0.241 C 
ATOM     15  O   UNL     1       5.760  -5.531   4.250  0.00  0.00    -0.271 OA
ATOM     16  C   UNL     1       5.994  -3.770   2.833  0.00  0.00    +0.097 C 
ATOM     17  C   UNL     1       5.370  -2.905   1.984  0.00  0.00    +0.121 C 
ATOM     18  H   UNL     1       3.659  -6.073   3.105  0.00  0.00    +0.152 HD
ENDROOT
BRANCH  17  19
ATOM     19  C   UNL     1       6.053  -1.705   1.445  0.00  0.00    +0.260 C 
ATOM     20  O   UNL     1       5.471  -0.970   0.672  0.00  0.00    -0.269 OA
ATOM     21  N   UNL     1       7.320  -1.429   1.813  0.00  0.00    -0.310 N 
ATOM     22  H   UNL     1       7.784  -2.015   2.431  0.00  0.00    +0.149 HD
BRANCH  21  23
ATOM     23  C   UNL     1       7.995  -0.243   1.281  0.00  0.00    +0.109 C 
BRANCH  23  24
ATOM     24  C   UNL     1       9.412  -0.163   1.853  0.00  0.00    +0.052 C 
BRANCH  24  25
ATOM     25  C   UNL     1      10.107   1.057   1.306  0.00  0.00    -0.040 C 
ATOM     26  C   UNL     1      10.196   2.273   1.891  0.00  0.00    -0.001 A 
ATOM     27  C   UNL     1       9.691   2.804   3.163  0.00  0.00    +0.010 A 
ATOM     28  C   UNL     1       9.945   4.093   3.483  0.00  0.00    +0.001 A 
ATOM     29  C   UNL     1      10.677   4.933   2.632  0.00  0.00    +0.002 A 
ATOM     30  C   UNL     1      11.173   4.518   1.447  0.00  0.00    +0.026 A 
ATOM     31  C   UNL     1      10.966   3.180   1.010  0.00  0.00    +0.043 A 
ATOM     32  N   UNL     1      11.338   2.550  -0.077  0.00  0.00    -0.380 N 
ATOM     33  C   UNL     1      10.851   1.168  -0.006  0.00  0.00    +0.144 C 
ATOM     34  H   UNL     1      11.853   2.932  -0.805  0.00  0.00    +0.160 HD
ENDBRANCH  24  25
ENDBRANCH  23  24
ENDBRANCH  21  23
ENDBRANCH  17  19
TORSDOF 4
