REMARK  Name = ZINC55122941
REMARK  5 active torsions:
REMARK  status: ('A' for Active; 'I' for Inactive)
REMARK    1  A    between atoms: C_3  and  C_10
REMARK    2  A    between atoms: C_6  and  N_9
REMARK    3  A    between atoms: C_10  and  C_11
REMARK    4  A    between atoms: N_13  and  C_14
REMARK    5  A    between atoms: C_17  and  O_20
REMARK                            x       y       z     vdW  Elec       q    Type
REMARK                         _______ _______ _______ _____ _____    ______ ____
ROOT
ATOM      1  C   UNL     1       3.575   3.579   1.360  0.00  0.00    +0.214 C 
ATOM      2  O   UNL     1       2.518   4.168   1.454  0.00  0.00    -0.276 OA
ATOM      3  N   UNL     1       4.733   4.268   1.374  0.00  0.00    -0.312 N 
ATOM      4  H   UNL     1       5.578   3.797   1.300  0.00  0.00    +0.149 HD
ENDROOT
BRANCH   3   5
ATOM      5  C   UNL     1       4.716   5.727   1.503  0.00  0.00    +0.073 C 
ATOM      6  C   UNL     1       4.528   6.359   0.122  0.00  0.00    +0.025 C 
ATOM      7  C   UNL     1       4.510   7.883   0.256  0.00  0.00    +0.033 C 
ATOM      8  C   UNL     1       5.835   8.357   0.857  0.00  0.00    +0.115 C 
ATOM      9  C   UNL     1       6.023   7.726   2.238  0.00  0.00    +0.033 C 
ATOM     10  C   UNL     1       6.041   6.202   2.104  0.00  0.00    +0.025 C 
BRANCH   8  11
ATOM     11  O   UNL     1       5.818   9.780   0.982  0.00  0.00    -0.392 OA
ATOM     12  H   UNL     1       6.628  10.152   1.358  0.00  0.00    +0.210 HD
ENDBRANCH   8  11
ENDBRANCH   3   5
BRANCH   1  13
ATOM     13  C   UNL     1       3.592   2.078   1.228  0.00  0.00    +0.099 C 
BRANCH  13  16
ATOM     14  C   UNL     1      -0.019   1.526   0.010  0.00  0.00    -0.001 C 
ATOM     15  C   UNL     1       1.417   2.055  -0.000  0.00  0.00    +0.004 C 
ATOM     16  C   UNL     1       2.157   1.548   1.239  0.00  0.00    -0.004 C 
ATOM     17  C   UNL     1       2.178   0.019   1.231  0.00  0.00    -0.012 C 
ATOM     18  C   UNL     1       0.742  -0.511   1.242  0.00  0.00    -0.075 C 
ATOM     19  C   UNL     1       0.002  -0.004   0.002  0.00  0.00    -0.016 C 
BRANCH  18  20
ATOM     20  N   UNL     1       0.762  -1.980   1.234  0.00  0.00    +0.380 N 
ATOM     21  H   UNL     1       1.250  -2.314   2.051  0.00  0.00    -0.090 HD
ATOM     22  H   UNL     1      -0.185  -2.329   1.241  0.00  0.00    -0.090 HD
ATOM     23  H   UNL     1       1.234  -2.305   0.403  0.00  0.00    -0.090 HD
ENDBRANCH  18  20
ENDBRANCH  13  16
ENDBRANCH   1  13
TORSDOF 5
