REMARK  Name = ZINC38032976
REMARK  4 active torsions:
REMARK  status: ('A' for Active; 'I' for Inactive)
REMARK    1  A    between atoms: C_5  and  N_7
REMARK    2  A    between atoms: N_10  and  C_12
REMARK    3  A    between atoms: C_15  and  S_18
REMARK    4  A    between atoms: S_18  and  N_21
REMARK                            x       y       z     vdW  Elec       q    Type
REMARK                         _______ _______ _______ _____ _____    ______ ____
ROOT
ATOM      1  C   UNL     1      -0.017   1.335   0.029  0.00  0.00    +0.002 A 
ATOM      2  C   UNL     1       1.165   2.049   0.024  0.00  0.00    +0.005 A 
ATOM      3  C   UNL     1       2.388   1.392   0.001  0.00  0.00    -0.025 A 
ATOM      4  C   UNL     1       2.428   0.016  -0.012  0.00  0.00    -0.021 A 
ATOM      5  C   UNL     1       1.233  -0.705  -0.014  0.00  0.00    +0.028 A 
ATOM      6  C   UNL     1       0.014  -0.045   0.007  0.00  0.00    +0.023 A 
ATOM      7  C   UNL     1       3.715  -0.764  -0.006  0.00  0.00    +0.056 C 
ATOM      8  C   UNL     1       4.880   0.103  -0.482  0.00  0.00    +0.110 C 
ATOM      9  N   UNL     1       4.809   1.388   0.233  0.00  0.00    -0.325 N 
ATOM     10  C   UNL     1       3.638   2.235  -0.018  0.00  0.00    +0.140 C 
ENDROOT
BRANCH   9  11
ATOM     11  C   UNL     1       5.817   1.784   1.114  0.00  0.00    +0.030 A 
ATOM     12  C   UNL     1       6.856   0.915   1.421  0.00  0.00    +0.025 A 
ATOM     13  C   UNL     1       7.852   1.310   2.292  0.00  0.00    +0.030 A 
ATOM     14  C   UNL     1       7.815   2.571   2.860  0.00  0.00    +0.105 A 
ATOM     15  C   UNL     1       6.782   3.439   2.558  0.00  0.00    +0.030 A 
ATOM     16  C   UNL     1       5.786   3.052   1.682  0.00  0.00    +0.025 A 
BRANCH  14  17
ATOM     17  S   UNL     1       9.086   3.071   3.973  0.00  0.00    +0.056 S 
ATOM     18  O   UNL     1       8.532   4.093   4.790  0.00  0.00    -0.153 OA
ATOM     19  O   UNL     1       9.643   1.881   4.514  0.00  0.00    -0.153 OA
BRANCH  17  20
ATOM     20  N   UNL     1      10.277   3.782   3.068  0.00  0.00    -0.204 NA
ATOM     21  H   UNL     1      10.826   4.483   3.453  0.00  0.00    +0.144 HD
ATOM     22  H   UNL     1      10.425   3.498   2.152  0.00  0.00    +0.144 HD
ENDBRANCH  17  20
ENDBRANCH  14  17
ENDBRANCH   9  11
BRANCH   5  23
ATOM     23  N   UNL     1       1.265  -2.101  -0.039  0.00  0.00    -0.358 N 
ATOM     24  H   UNL     1       2.116  -2.567  -0.054  0.00  0.00    +0.142 HD
ATOM     25  H   UNL     1       0.437  -2.606  -0.041  0.00  0.00    +0.142 HD
ENDBRANCH   5  23
TORSDOF 4
