REMARK  Name = ZINC05976799
REMARK  5 active torsions:
REMARK  status: ('A' for Active; 'I' for Inactive)
REMARK    1  A    between atoms: C_1  and  C_2
REMARK    2  A    between atoms: C_2  and  C_3
REMARK    3  A    between atoms: C_2  and  C_4
REMARK    4  A    between atoms: C_2  and  C_5
REMARK    5  A    between atoms: C_8  and  C_11
REMARK                            x       y       z     vdW  Elec       q    Type
REMARK                         _______ _______ _______ _____ _____    ______ ____
ROOT
ATOM      1  C   UNL     1       2.490   1.048  -0.016  0.00  0.00    +0.217 C 
ATOM      2  C   UNL     1       4.436   2.424  -0.534  0.00  0.00    +0.159 C 
ATOM      3  N   UNL     1       4.776   2.589   0.796  0.00  0.00    -0.259 N 
ATOM      4  C   UNL     1       4.138   1.764   1.712  0.00  0.00    +0.205 A 
ATOM      5  N   UNL     1       3.044   1.013   1.338  0.00  0.00    -0.287 N 
ATOM      6  C   UNL     1       2.648   0.305   2.435  0.00  0.00    +0.072 A 
ATOM      7  C   UNL     1       1.621  -0.605   2.654  0.00  0.00    +0.028 A 
ATOM      8  C   UNL     1       1.513  -1.142   3.927  0.00  0.00    +0.002 A 
ATOM      9  C   UNL     1       2.382  -0.793   4.947  0.00  0.00    +0.002 A 
ATOM     10  C   UNL     1       3.412   0.110   4.755  0.00  0.00    +0.030 A 
ATOM     11  C   UNL     1       3.541   0.664   3.477  0.00  0.00    +0.091 A 
ATOM     12  N   UNL     1       4.417   1.554   2.967  0.00  0.00    -0.214 NA
ATOM     13  N   UNL     1       5.217   3.026  -1.492  0.00  0.00    -0.332 N 
ATOM     14  H   UNL     1       5.429   3.249   1.075  0.00  0.00    +0.158 HD
ATOM     15  H   UNL     1       5.988   3.553  -1.229  0.00  0.00    +0.145 HD
ATOM     16  H   UNL     1       4.997   2.924  -2.431  0.00  0.00    +0.145 HD
ATOM     17  N   UNL     1       3.401   1.723  -1.018  0.00  0.00    -0.337 N 
ATOM     18  H   UNL     1       3.233   1.648  -2.028  0.00  0.00    +0.164 HD
ENDROOT
BRANCH   1  22
ATOM     19  C   UNL     1      -1.238   3.133   0.029  0.00  0.00    -0.042 A 
ATOM     20  C   UNL     1      -1.219   1.751   0.017  0.00  0.00    +0.004 A 
ATOM     21  C   UNL     1      -0.013   1.076   0.008  0.00  0.00    +0.008 A 
ATOM     22  C   UNL     1       1.175   1.783   0.000  0.00  0.00    -0.005 A 
ATOM     23  C   UNL     1       1.156   3.165   0.008  0.00  0.00    +0.008 A 
ATOM     24  C   UNL     1      -0.050   3.840   0.022  0.00  0.00    +0.004 A 
BRANCH  19  26
ATOM     25  C   UNL     1      -2.657   4.753  -1.200  0.00  0.00    +0.015 C 
ATOM     26  C   UNL     1      -2.553   3.869   0.044  0.00  0.00    -0.013 C 
ATOM     27  C   UNL     1      -3.702   2.858   0.049  0.00  0.00    +0.015 C 
ATOM     28  C   UNL     1      -2.635   4.740   1.298  0.00  0.00    +0.015 C 
ENDBRANCH  19  26
ENDBRANCH   1  22
TORSDOF 2
