REMARK  Name = ZINC54433426
REMARK  2 active torsions:
REMARK  status: ('A' for Active; 'I' for Inactive)
REMARK    1  A    between atoms: N_9  and  C_10
REMARK    2  A    between atoms: C_10  and  C_11
REMARK                            x       y       z     vdW  Elec       q    Type
REMARK                         _______ _______ _______ _____ _____    ______ ____
ROOT
ATOM      1  C   UNL     1      -0.016   1.361   0.009  0.00  0.00    +0.001 A 
ATOM      2  C   UNL     1       1.170   2.085   0.002  0.00  0.00    +0.002 A 
ATOM      3  C   UNL     1       2.378   1.448  -0.013  0.00  0.00    +0.028 A 
ATOM      4  C   UNL     1       2.427   0.055  -0.021  0.00  0.00    +0.071 A 
ATOM      5  C   UNL     1       1.226  -0.679  -0.013  0.00  0.00    +0.041 A 
ATOM      6  C   UNL     1       0.002  -0.004   0.002  0.00  0.00    +0.013 A 
ATOM      7  C   UNL     1       1.609  -2.092  -0.025  0.00  0.00    +0.146 A 
ATOM      8  N   UNL     1       2.914  -2.149  -0.038  0.00  0.00    -0.155 NA
ATOM      9  N   UNL     1       3.450  -0.857  -0.036  0.00  0.00    -0.257 N 
ATOM     10  N   UNL     1       0.735  -3.183  -0.022  0.00  0.00    -0.341 N 
ATOM     11  H   UNL     1      -0.224  -3.037  -0.011  0.00  0.00    +0.144 HD
ATOM     12  H   UNL     1       1.088  -4.087  -0.030  0.00  0.00    +0.144 HD
ENDROOT
BRANCH   9  13
ATOM     13  C   UNL     1       4.878  -0.531  -0.048  0.00  0.00    +0.187 C 
BRANCH  13  14
ATOM     14  C   UNL     1       5.382  -0.427   1.368  0.00  0.00    +0.025 A 
ATOM     15  C   UNL     1       5.907  -1.393   2.161  0.00  0.00    +0.030 A 
ATOM     16  C   UNL     1       6.308  -1.064   3.443  0.00  0.00    +0.023 A 
ATOM     17  C   UNL     1       6.164   0.214   3.869  0.00  0.00    +0.046 A 
ATOM     18  S   UNL     1       5.450   1.003   2.435  0.00  0.00    -0.099 S 
ATOM     19 BR   UNL     1       6.088  -3.164   1.524  0.00  0.00    -0.049 Br
ENDBRANCH  13  14
ENDBRANCH   9  13
TORSDOF 2
