REMARK  Name = ZINC13567689
REMARK  5 active torsions:
REMARK  status: ('A' for Active; 'I' for Inactive)
REMARK    1  A    between atoms: C_1  and  C_2
REMARK    2  A    between atoms: C_3  and  N_9
REMARK    3  A    between atoms: N_24  and  C_27
REMARK    4  A    between atoms: C_28  and  C_31
REMARK    5  A    between atoms: C_29  and  N_30
REMARK                            x       y       z     vdW  Elec       q    Type
REMARK                         _______ _______ _______ _____ _____    ______ ____
ROOT
ATOM      1  N   UNL     1      -1.018  -0.665   0.615  0.00  0.00    -0.260 N 
ATOM      2  C   UNL     1       0.090  -0.040   0.106  0.00  0.00    +0.025 C 
ATOM      3  C   UNL     1       1.072  -0.755  -0.485  0.00  0.00    +0.037 C 
ATOM      4  C   UNL     1       2.213  -0.124  -1.008  0.00  0.00    +0.162 C 
ATOM      5  O   UNL     1       3.072  -0.795  -1.547  0.00  0.00    -0.292 OA
ATOM      6  C   UNL     1       2.393   1.366  -0.914  0.00  0.00    +0.080 C 
ATOM      7  C   UNL     1       1.652   1.879   0.325  0.00  0.00    +0.014 C 
ATOM      8  C   UNL     1       0.183   1.462   0.220  0.00  0.00    +0.052 C 
ATOM      9  C   UNL     1       0.970  -2.254  -0.600  0.00  0.00    +0.141 C 
ATOM     10  C   UNL     1       1.904  -2.921   0.363  0.00  0.00    -0.001 A 
ATOM     11  C   UNL     1       1.958  -2.902   1.740  0.00  0.00    +0.007 A 
ATOM     12  C   UNL     1       2.969  -3.645   2.341  0.00  0.00    +0.000 A 
ATOM     13  C   UNL     1       3.874  -4.367   1.590  0.00  0.00    +0.002 A 
ATOM     14  C   UNL     1       3.826  -4.389   0.205  0.00  0.00    +0.024 A 
ATOM     15  C   UNL     1       2.816  -3.648  -0.411  0.00  0.00    +0.041 A 
ATOM     16  N   UNL     1       2.535  -3.492  -1.756  0.00  0.00    -0.273 N 
ATOM     17  C   UNL     1       1.469  -2.692  -1.963  0.00  0.00    +0.240 C 
ATOM     18  O   UNL     1       0.998  -2.382  -3.036  0.00  0.00    -0.274 OA
ATOM     19  C   UNL     1       3.305  -4.123  -2.831  0.00  0.00    +0.138 C 
ATOM     20  C   UNL     1      -0.437  -2.729  -0.395  0.00  0.00    +0.089 C 
ATOM     21  C   UNL     1      -1.364  -1.931   0.198  0.00  0.00    +0.108 C 
ENDROOT
BRANCH   1  24
ATOM     22  C   UNL     1      -3.230   0.875  -0.302  0.00  0.00    +0.047 C 
ATOM     23  C   UNL     1      -2.896   0.752   1.163  0.00  0.00    -0.010 A 
ATOM     24  C   UNL     1      -1.807  -0.009   1.567  0.00  0.00    +0.044 A 
ATOM     25  C   UNL     1      -1.506  -0.124   2.918  0.00  0.00    +0.024 A 
ATOM     26  C   UNL     1      -2.284   0.529   3.855  0.00  0.00    +0.003 A 
ATOM     27  C   UNL     1      -3.367   1.287   3.451  0.00  0.00    +0.020 A 
ATOM     28  C   UNL     1      -3.673   1.399   2.106  0.00  0.00    +0.046 A 
ATOM     29 CL   UNL     1      -5.034   2.351   1.603  0.00  0.00    -0.083 Cl
ENDBRANCH   1  24
BRANCH  21  30
ATOM     30  N   UNL     1      -2.646  -2.389   0.384  0.00  0.00    -0.345 N 
ATOM     31  H   UNL     1      -2.890  -3.281   0.091  0.00  0.00    +0.144 HD
ATOM     32  H   UNL     1      -3.308  -1.820   0.808  0.00  0.00    +0.144 HD
ENDBRANCH  21  30
BRANCH  20  33
ATOM     33  C   UNL     1      -0.810  -4.040  -0.831  0.00  0.00    +0.100 C 
ATOM     34  N   UNL     1      -1.107  -5.081  -1.177  0.00  0.00    -0.191 NA
ENDBRANCH  20  33
TORSDOF 3
