REMARK  Name = ZINC40304629
REMARK  8 active torsions:
REMARK  status: ('A' for Active; 'I' for Inactive)
REMARK    1  A    between atoms: C_1  and  C_2
REMARK    2  A    between atoms: C_2  and  N_3
REMARK    3  A    between atoms: C_4  and  C_6
REMARK    4  A    between atoms: C_6  and  C_8
REMARK    5  A    between atoms: C_6  and  N_9
REMARK    6  A    between atoms: C_10  and  C_12
REMARK    7  A    between atoms: C_14  and  N_18
REMARK    8  A    between atoms: C_15  and  C_17
REMARK                            x       y       z     vdW  Elec       q    Type
REMARK                         _______ _______ _______ _____ _____    ______ ____
ROOT
ATOM      1  N   UNL     1      -2.994  -3.826   0.010  0.00  0.00    -0.300 N 
ATOM      2  C   UNL     1      -4.038  -4.517   0.510  0.00  0.00    +0.251 C 
ATOM      3  O   UNL     1      -4.997  -3.924   0.968  0.00  0.00    -0.270 OA
ATOM      4  H   UNL     1      -2.230  -4.299  -0.355  0.00  0.00    +0.150 HD
ENDROOT
BRANCH   2   5
ATOM      5  C   UNL     1      -4.019  -5.982   0.502  0.00  0.00    +0.076 A 
ATOM      6  C   UNL     1      -4.981  -6.871   0.956  0.00  0.00    +0.043 A 
ATOM      7  C   UNL     1      -4.732  -8.218   0.840  0.00  0.00    +0.035 A 
ATOM      8  C   UNL     1      -3.555  -8.632   0.286  0.00  0.00    +0.008 A 
ATOM      9  S   UNL     1      -2.752  -7.086  -0.103  0.00  0.00    -0.087 S 
ATOM     10  C   UNL     1      -3.062 -10.037   0.054  0.00  0.00    +0.053 C 
BRANCH   7  11
ATOM     11  N   UNL     1      -5.679  -9.158   1.288  0.00  0.00    -0.357 N 
ATOM     12  H   UNL     1      -6.513  -8.857   1.681  0.00  0.00    +0.142 HD
ATOM     13  H   UNL     1      -5.497 -10.107   1.204  0.00  0.00    +0.142 HD
ENDBRANCH   7  11
ENDBRANCH   2   5
BRANCH   1  14
ATOM     14  C   UNL     1      -3.014  -2.361   0.018  0.00  0.00    +0.156 C 
ATOM     15  C   UNL     1      -3.754  -1.854  -1.221  0.00  0.00    +0.038 C 
BRANCH  14  17
ATOM     16  N   UNL     1      -1.372  -0.511   0.012  0.00  0.00    -0.314 N 
ATOM     17  C   UNL     1      -1.601  -1.839   0.007  0.00  0.00    +0.233 C 
ATOM     18  O   UNL     1      -0.668  -2.615  -0.006  0.00  0.00    -0.274 OA
ATOM     19  H   UNL     1      -2.118   0.109   0.023  0.00  0.00    +0.149 HD
BRANCH  16  21
ATOM     20  C   UNL     1      -0.019   1.526   0.010  0.00  0.00    +0.024 C 
ATOM     21  C   UNL     1       0.002  -0.004   0.002  0.00  0.00    +0.101 C 
ENDBRANCH  16  21
ENDBRANCH  14  17
ENDBRANCH   1  14
TORSDOF 5
