REMARK  Name = ZINC33455356
REMARK  10 active torsions:
REMARK  status: ('A' for Active; 'I' for Inactive)
REMARK    1  A    between atoms: C_1  and  C_2
REMARK    2  A    between atoms: C_2  and  C_4
REMARK    3  A    between atoms: C_2  and  N_16
REMARK    4  A    between atoms: N_6  and  CA_7
REMARK    5  A    between atoms: CA_7  and  CB_9
REMARK    6  A    between atoms: CA_7  and  C_13
REMARK    7  A    between atoms: CB_9  and  CG_10
REMARK    8  A    between atoms: CG_10  and  CD1_11
REMARK    9  A    between atoms: CG_10  and  CD2_12
REMARK   10  A    between atoms: C_19  and  C_22
REMARK                            x       y       z     vdW  Elec       q    Type
REMARK                         _______ _______ _______ _____ _____    ______ ____
ROOT
ATOM      1  C   UNK A   0      -0.690   1.316  -0.345  0.00  0.00    -0.004 C 
ATOM      2  C   UNK A   0       0.002  -0.004   0.002  0.00  0.00    +0.016 C 
ENDROOT
BRANCH   2   3
ATOM      3  N   UNK A   0      -0.981  -0.939   0.566  0.00  0.00    +0.387 N 
ATOM      4  C   UNK A   0      -1.599  -0.338   1.755  0.00  0.00    -0.077 C 
ATOM      5  C   UNK A   0      -2.681  -1.273   2.299  0.00  0.00    -0.006 C 
ATOM      6  C   UNK A   0      -2.046  -2.615   2.675  0.00  0.00    +0.071 C 
ATOM      7  C   UNK A   0      -1.341  -3.197   1.446  0.00  0.00    -0.006 C 
ATOM      8  C   UNK A   0      -0.309  -2.191   0.933  0.00  0.00    -0.077 C 
ATOM      9  H   UNK A   0      -1.695  -1.130  -0.121  0.00  0.00    -0.081 HD
BRANCH   6  10
ATOM     10  C   UNK A   0      -3.119  -3.567   3.138  0.00  0.00    +0.213 C 
ATOM     11  O   UNK A   0      -4.277  -3.209   3.166  0.00  0.00    -0.276 OA
ATOM     12  N   UNK A   0      -2.790  -4.817   3.522  0.00  0.00    -0.329 N 
ATOM     13  H   UNK A   0      -1.864  -5.104   3.499  0.00  0.00    +0.145 HD
ATOM     14  H   UNK A   0      -3.480  -5.430   3.820  0.00  0.00    +0.145 HD
ENDBRANCH   6  10
ENDBRANCH   2   3
BRANCH   2  15
ATOM     15  C   UNK A   0       0.603  -0.600  -1.245  0.00  0.00    +0.200 C 
ATOM     16  O   UNK A   0      -0.032  -1.396  -1.903  0.00  0.00    -0.278 OA
ATOM     17  N   LEU A   1       1.846  -0.247  -1.629  0.00  0.00    -0.304 N 
ATOM     18  H   LEU A   1       2.354   0.391  -1.102  0.00  0.00    +0.149 HD
BRANCH  17  19
ATOM     19  CA  LEU A   1       2.430  -0.826  -2.841  0.00  0.00    +0.186 C 
BRANCH  19  20
ATOM     20  C   LEU A   1       1.989  -0.028  -4.042  0.00  0.00    +0.376 C 
ATOM     21  O   LEU A   1       1.751   1.162  -3.929  0.00  0.00    -0.244 OA
ATOM     22  OXT LEU A   1       1.871  -0.574  -5.125  0.00  0.00    -0.244 OA
ENDBRANCH  19  20
BRANCH  19  23
ATOM     23  CB  LEU A   1       3.957  -0.791  -2.738  0.00  0.00    +0.037 C 
BRANCH  23  24
ATOM     24  CG  LEU A   1       4.412  -1.700  -1.595  0.00  0.00    -0.015 C 
ATOM     25  CD1 LEU A   1       4.061  -3.152  -1.929  0.00  0.00    +0.007 C 
ATOM     26  CD2 LEU A   1       5.925  -1.570  -1.412  0.00  0.00    +0.007 C 
ENDBRANCH  23  24
ENDBRANCH  19  23
ENDBRANCH  17  19
ENDBRANCH   2  15
TORSDOF 7
