REMARK  Name = ZINC56549941
REMARK  10 active torsions:
REMARK  status: ('A' for Active; 'I' for Inactive)
REMARK    1  A    between atoms: C_1  and  N_2
REMARK    2  A    between atoms: N_2  and  C_3
REMARK    3  A    between atoms: N_2  and  C_4
REMARK    4  A    between atoms: C_4  and  C_6
REMARK    5  A    between atoms: C_4  and  C_26
REMARK    6  A    between atoms: C_6  and  N_7
REMARK    7  A    between atoms: N_10  and  C_11
REMARK    8  A    between atoms: C_16  and  O_17
REMARK    9  A    between atoms: O_17  and  C_18
REMARK   10  A    between atoms: C_18  and  C_19
REMARK                            x       y       z     vdW  Elec       q    Type
REMARK                         _______ _______ _______ _____ _____    ______ ____
ROOT
ATOM      1  N   UNL     1       2.432  -2.519   0.344  0.00  0.00    -0.300 N 
ATOM      2  C   UNL     1       2.872  -3.793   0.308  0.00  0.00    +0.304 C 
ATOM      3  O   UNL     1       3.022  -4.413   1.343  0.00  0.00    -0.253 OA
ATOM      4  N   UNL     1       3.145  -4.378  -0.875  0.00  0.00    -0.266 N 
ATOM      5  H   UNL     1       2.312  -2.024  -0.481  0.00  0.00    +0.150 HD
ATOM      6  H   UNL     1       3.085  -3.864  -1.696  0.00  0.00    +0.156 HD
ENDROOT
BRANCH   4   7
ATOM      7  C   UNL     1       3.517  -5.729  -0.919  0.00  0.00    +0.077 A 
ATOM      8  C   UNL     1       3.005  -6.622   0.011  0.00  0.00    +0.027 A 
ATOM      9  C   UNL     1       3.373  -7.953  -0.034  0.00  0.00    +0.002 A 
ATOM     10  C   UNL     1       4.250  -8.399  -1.006  0.00  0.00    +0.004 A 
ATOM     11  C   UNL     1       4.764  -7.515  -1.936  0.00  0.00    +0.047 A 
ATOM     12  C   UNL     1       4.396  -6.179  -1.901  0.00  0.00    +0.142 A 
BRANCH  12  13
ATOM     13  O   UNL     1       4.897  -5.310  -2.818  0.00  0.00    -0.488 OA
BRANCH  13  14
ATOM     14  C   UNL     1       5.793  -5.843  -3.796  0.00  0.00    +0.260 C 
BRANCH  14  15
ATOM     15  C   UNL     1       6.248  -4.723  -4.734  0.00  0.00    +0.156 C 
ATOM     16  C   UNL     1       7.108  -5.314  -5.854  0.00  0.00    +0.035 C 
ATOM     17  C   UNL     1       7.609  -4.181  -6.755  0.00  0.00    +0.005 C 
ATOM     18  C   UNL     1       8.380  -3.169  -5.903  0.00  0.00    +0.028 C 
ATOM     19  C   UNL     1       7.470  -2.660  -4.781  0.00  0.00    +0.160 C 
ATOM     20  O   UNL     1       7.015  -3.767  -4.000  0.00  0.00    -0.373 OA
ENDBRANCH  14  15
ENDBRANCH  13  14
ENDBRANCH  12  13
ENDBRANCH   4   7
BRANCH   1  21
ATOM     21  C   UNL     1       2.134  -1.883   1.630  0.00  0.00    +0.098 C 
BRANCH  21  22
ATOM     22  C   UNL     1       1.778  -0.413   1.401  0.00  0.00    +0.016 C 
BRANCH  22  23
ATOM     23  C   UNL     1       0.498  -0.323   0.610  0.00  0.00    +0.093 A 
ATOM     24  C   UNL     1      -0.724  -0.077   1.115  0.00  0.00    +0.043 A 
ATOM     25  C   UNL     1      -1.626  -0.081   0.026  0.00  0.00    +0.041 A 
ATOM     26  C   UNL     1      -0.901  -0.330  -1.079  0.00  0.00    +0.195 A 
ATOM     27  O   UNL     1       0.386  -0.470  -0.721  0.00  0.00    -0.469 OA
ENDBRANCH  22  23
BRANCH  22  29
ATOM     28  C   UNL     1       2.562   1.675   0.518  0.00  0.00    -0.096 C 
ATOM     29  N   UNL     1       2.861   0.243   0.656  0.00  0.00    +0.384 N 
ATOM     30  C   UNL     1       4.126   0.075   1.383  0.00  0.00    -0.096 C 
ATOM     31  H   UNL     1       2.941  -0.174  -0.259  0.00  0.00    -0.082 HD
ENDBRANCH  22  29
ENDBRANCH  21  22
ENDBRANCH   1  21
TORSDOF 8
