REMARK  Name = ZINC31916760
REMARK  8 active torsions:
REMARK  status: ('A' for Active; 'I' for Inactive)
REMARK    1  A    between atoms: C_1  and  C_2
REMARK    2  A    between atoms: C_5  and  C_9
REMARK    3  A    between atoms: C_6  and  C_8
REMARK    4  A    between atoms: C_10  and  C_19
REMARK    5  A    between atoms: C_13  and  C_18
REMARK    6  A    between atoms: C_19  and  C_21
REMARK    7  A    between atoms: C_19  and  C_22
REMARK    8  A    between atoms: C_22  and  N_24
REMARK                            x       y       z     vdW  Elec       q    Type
REMARK                         _______ _______ _______ _____ _____    ______ ____
ROOT
ATOM      1  C   UNL     1       0.016   4.498   1.804  0.00  0.00    +0.094 A 
ATOM      2  C   UNL     1      -0.937   3.652   1.322  0.00  0.00    +0.060 A 
ATOM      3  N   UNL     1      -2.141   4.091   1.796  0.00  0.00    -0.302 N 
ATOM      4  C   UNL     1      -3.416   3.629   1.637  0.00  0.00    +0.096 A 
ATOM      5  C   UNL     1      -4.454   4.259   2.226  0.00  0.00    -0.034 A 
ATOM      6  C   UNL     1      -4.235   5.404   3.011  0.00  0.00    +0.008 A 
ATOM      7  C   UNL     1      -2.970   5.875   3.177  0.00  0.00    +0.047 A 
ATOM      8  C   UNL     1      -1.896   5.205   2.556  0.00  0.00    +0.138 A 
ATOM      9  N   UNL     1      -0.592   5.437   2.547  0.00  0.00    -0.228 NA
ATOM     10  C   UNL     1      -5.854   3.734   2.039  0.00  0.00    +0.045 C 
ENDROOT
BRANCH   1  15
ATOM     11  C   UNL     1       5.677   4.122   0.814  0.00  0.00    +0.044 C 
ATOM     12  C   UNL     1       4.196   4.220   1.072  0.00  0.00    -0.050 A 
ATOM     13  C   UNL     1       3.618   3.453   2.068  0.00  0.00    +0.004 A 
ATOM     14  C   UNL     1       2.263   3.543   2.313  0.00  0.00    +0.010 A 
ATOM     15  C   UNL     1       1.474   4.401   1.548  0.00  0.00    +0.005 A 
ATOM     16  C   UNL     1       2.062   5.172   0.547  0.00  0.00    -0.041 A 
ATOM     17  C   UNL     1       3.419   5.077   0.314  0.00  0.00    +0.007 A 
ATOM     18  C   UNL     1       1.217   6.107  -0.279  0.00  0.00    +0.044 C 
ENDBRANCH   1  15
BRANCH   2  19
ATOM     19  C   UNL     1      -0.705   2.453   0.438  0.00  0.00    +0.086 C 
ATOM     20  C   UNL     1      -0.075   2.906  -0.880  0.00  0.00    +0.021 C 
BRANCH  19  21
ATOM     21  C   UNL     1       0.221   1.488   1.133  0.00  0.00    +0.055 C 
ATOM     22  S   UNL     1       1.652   1.158   0.500  0.00  0.00    -0.040 S 
BRANCH  21  23
ATOM     23  N   UNL     1      -0.157   0.904   2.287  0.00  0.00    -0.355 N 
ATOM     24  H   UNL     1       0.519   0.200   2.794  0.00  0.00    +0.143 HD
ATOM     25  H   UNL     1      -1.141   1.131   2.722  0.00  0.00    +0.143 HD
ENDBRANCH  21  23
ENDBRANCH  19  21
ENDBRANCH   2  19
TORSDOF 4
