REMARK  Name = ZINC12900456
REMARK  3 active torsions:
REMARK  status: ('A' for Active; 'I' for Inactive)
REMARK    1  A    between atoms: C_6  and  C_7
REMARK    2  A    between atoms: C_12  and  N_16
REMARK    3  A    between atoms: C_20  and  C_22
REMARK                            x       y       z     vdW  Elec       q    Type
REMARK                         _______ _______ _______ _____ _____    ______ ____
ROOT
ATOM      1  C   UNL     1      -0.079   5.980   0.033  0.00  0.00    +0.022 A 
ATOM      2  C   UNL     1      -1.154   6.813   0.042  0.00  0.00    +0.044 A 
ATOM      3  C   UNL     1      -0.961   8.202   0.051  0.00  0.00    +0.084 A 
ATOM      4  C   UNL     1       0.386   8.630   0.040  0.00  0.00    +0.078 A 
ATOM      5  S   UNL     1       1.301   7.112   0.025  0.00  0.00    -0.083 S 
ATOM      6  C   UNL     1       0.709   9.975   0.043  0.00  0.00    +0.140 A 
ATOM      7  N   UNL     1      -0.285  10.864   0.057  0.00  0.00    -0.220 NA
ATOM      8  C   UNL     1      -1.541  10.453   0.067  0.00  0.00    +0.224 A 
ATOM      9  N   UNL     1      -1.889   9.193   0.065  0.00  0.00    -0.235 NA
ENDROOT
BRANCH   1  15
ATOM     10  C   UNL     1       1.157   3.817   0.011  0.00  0.00    +0.010 A 
ATOM     11  C   UNL     1       1.170   2.438   0.004  0.00  0.00    +0.020 A 
ATOM     12  C   UNL     1      -0.021   1.732   0.012  0.00  0.00    +0.041 A 
ATOM     13  C   UNL     1      -1.232   2.405   0.021  0.00  0.00    +0.020 A 
ATOM     14  C   UNL     1      -1.256   3.784   0.034  0.00  0.00    +0.010 A 
ATOM     15  C   UNL     1      -0.059   4.501   0.026  0.00  0.00    -0.011 A 
ATOM     16 CL   UNL     1       0.002  -0.004   0.002  0.00  0.00    -0.084 Cl
ENDBRANCH   1  15
BRANCH   6  17
ATOM     17  N   UNL     1       2.031  10.388   0.032  0.00  0.00    -0.303 N 
ATOM     18  C   UNL     1       2.731   9.892  -1.167  0.00  0.00    +0.107 C 
ATOM     19  C   UNL     1       3.303  11.120  -1.904  0.00  0.00    +0.021 C 
ATOM     20  C   UNL     1       3.384  12.193  -0.786  0.00  0.00    +0.033 C 
ATOM     21  C   UNL     1       2.126  11.864   0.055  0.00  0.00    +0.160 C 
BRANCH  21  22
ATOM     22  C   UNL     1       2.296  12.357   1.469  0.00  0.00    +0.231 C 
ATOM     23  O   UNL     1       2.337  11.565   2.387  0.00  0.00    -0.274 OA
ATOM     24  N   UNL     1       2.402  13.678   1.714  0.00  0.00    -0.328 N 
ATOM     25  H   UNL     1       2.370  14.311   0.980  0.00  0.00    +0.145 HD
ATOM     26  H   UNL     1       2.512  13.995   2.624  0.00  0.00    +0.145 HD
ENDBRANCH  21  22
ENDBRANCH   6  17
TORSDOF 3
