REMARK  Name = ZINC36888091
REMARK  4 active torsions:
REMARK  status: ('A' for Active; 'I' for Inactive)
REMARK    1  A    between atoms: C_8  and  S_10
REMARK    2  A    between atoms: S_10  and  C_11
REMARK    3  A    between atoms: C_14  and  C_18
REMARK    4  A    between atoms: N_19  and  O_20
REMARK                            x       y       z     vdW  Elec       q    Type
REMARK                         _______ _______ _______ _____ _____    ______ ____
ROOT
ATOM      1  C   UNL     1       5.503  -3.223  -0.031  0.00  0.00    +0.052 A 
ATOM      2  C   UNL     1       5.924  -1.902   0.074  0.00  0.00    +0.019 A 
ATOM      3  C   UNL     1       7.270  -1.605   0.093  0.00  0.00    +0.012 A 
ATOM      4  C   UNL     1       8.211  -2.632   0.006  0.00  0.00    +0.020 A 
ATOM      5  C   UNL     1       7.788  -3.958  -0.099  0.00  0.00    +0.051 A 
ATOM      6  C   UNL     1       6.440  -4.250  -0.112  0.00  0.00    +0.138 A 
ATOM      7  F   UNL     1       6.028  -5.534  -0.208  0.00  0.00    -0.204 F 
ENDROOT
BRANCH   4   8
ATOM      8  C   UNL     1       9.656  -2.315   0.026  0.00  0.00    +0.162 C 
ATOM      9  N   UNL     1      10.050  -1.079   0.123  0.00  0.00    -0.072 NA
ATOM     10  N   UNL     1      10.589  -3.335  -0.060  0.00  0.00    -0.340 N 
ATOM     11  H   UNL     1      10.296  -4.256  -0.133  0.00  0.00    +0.144 HD
ATOM     12  H   UNL     1      11.537  -3.127  -0.047  0.00  0.00    +0.144 HD
BRANCH   9  13
ATOM     13  O   UNL     1      11.433  -0.776   0.142  0.00  0.00    -0.408 OA
ATOM     14  H   UNL     1      11.628   0.169   0.217  0.00  0.00    +0.328 HD
ENDBRANCH   9  13
ENDBRANCH   4   8
BRANCH   1  15
ATOM     15  S   UNL     1       3.781  -3.598  -0.055  0.00  0.00    -0.028 S 
BRANCH  15  23
ATOM     16  C   UNL     1       1.957  -5.083  -5.852  0.00  0.00    +0.002 A 
ATOM     17  C   UNL     1       3.255  -4.733  -6.189  0.00  0.00    +0.004 A 
ATOM     18  C   UNL     1       4.138  -4.304  -5.219  0.00  0.00    +0.048 A 
ATOM     19  C   UNL     1       3.727  -4.223  -3.898  0.00  0.00    +0.156 A 
ATOM     20  C   UNL     1       2.414  -4.576  -3.553  0.00  0.00    +0.110 A 
ATOM     21  C   UNL     1       1.531  -5.008  -4.544  0.00  0.00    +0.031 A 
ATOM     22  N   UNL     1       2.303  -4.397  -2.209  0.00  0.00    -0.203 NA
ATOM     23  C   UNL     1       3.450  -3.968  -1.746  0.00  0.00    +0.263 A 
ATOM     24  O   UNL     1       4.338  -3.851  -2.749  0.00  0.00    -0.430 OA
ENDBRANCH  15  23
ENDBRANCH   1  15
TORSDOF 4
