REMARK  Name = ZINC49254849
REMARK  3 active torsions:
REMARK  status: ('A' for Active; 'I' for Inactive)
REMARK    1  A    between atoms: C_3  and  N_9
REMARK    2  A    between atoms: N_12  and  C_13
REMARK    3  A    between atoms: C_13  and  C_14
REMARK                            x       y       z     vdW  Elec       q    Type
REMARK                         _______ _______ _______ _____ _____    ______ ____
ROOT
ATOM      1  N   UNL     1       3.585   2.127  -0.021  0.00  0.00    -0.268 N 
ATOM      2  C   UNL     1       3.568   3.472  -0.116  0.00  0.00    +0.304 C 
ATOM      3  O   UNL     1       2.509   4.069  -0.103  0.00  0.00    -0.253 OA
ATOM      4  N   UNL     1       4.726   4.154  -0.225  0.00  0.00    -0.297 N 
ATOM      5  H   UNL     1       4.429   1.656   0.051  0.00  0.00    +0.156 HD
ATOM      6  H   UNL     1       5.570   3.677  -0.236  0.00  0.00    +0.150 HD
ENDROOT
BRANCH   1   9
ATOM      7  C   UNL     1       0.066   1.243  -0.626  0.00  0.00    +0.022 A 
ATOM      8  C   UNL     1       1.251   1.953  -0.622  0.00  0.00    +0.026 A 
ATOM      9  C   UNL     1       2.381   1.410  -0.026  0.00  0.00    +0.053 A 
ATOM     10  C   UNL     1       2.317   0.154   0.565  0.00  0.00    +0.064 A 
ATOM     11  C   UNL     1       1.129  -0.551   0.557  0.00  0.00    +0.041 A 
ATOM     12  C   UNL     1       0.004  -0.007  -0.037  0.00  0.00    +0.042 A 
ATOM     13 CL   UNL     1      -1.488  -0.895  -0.044  0.00  0.00    -0.083 Cl
ATOM     14 CL   UNL     1       3.728  -0.529   1.310  0.00  0.00    -0.082 Cl
ENDBRANCH   1   9
BRANCH   4  15
ATOM     15  C   UNL     1       4.708   5.615  -0.329  0.00  0.00    +0.137 C 
BRANCH  15  16
ATOM     16  C   UNL     1       6.142   6.136  -0.441  0.00  0.00    +0.135 C 
ATOM     17  C   UNL     1       6.132   7.666  -0.424  0.00  0.00    +0.033 C 
ATOM     18  C   UNL     1       7.564   8.181  -0.597  0.00  0.00    +0.005 C 
ATOM     19  C   UNL     1       8.143   7.618  -1.899  0.00  0.00    +0.028 C 
ATOM     20  C   UNL     1       8.075   6.089  -1.859  0.00  0.00    +0.160 C 
ATOM     21  O   UNL     1       6.721   5.678  -1.665  0.00  0.00    -0.375 OA
ENDBRANCH  15  16
ENDBRANCH   4  15
TORSDOF 3
