REMARK  Name = ZINC07052266
REMARK  7 active torsions:
REMARK  status: ('A' for Active; 'I' for Inactive)
REMARK    1  A    between atoms: C_1  and  C_2
REMARK    2  A    between atoms: C_5  and  C_22
REMARK    3  A    between atoms: C_6  and  S_8
REMARK    4  A    between atoms: S_8  and  N_11
REMARK    5  A    between atoms: N_11  and  C_12
REMARK    6  A    between atoms: C_15  and  S_18
REMARK    7  A    between atoms: S_18  and  N_21
REMARK                            x       y       z     vdW  Elec       q    Type
REMARK                         _______ _______ _______ _____ _____    ______ ____
ROOT
ATOM      1  N   UNL     1      -1.655   1.108  -2.590  0.00  0.00    -0.216 N 
ATOM      2  H   UNL     1      -1.598   2.076  -2.610  0.00  0.00    +0.174 HD
ENDROOT
BRANCH   1   3
ATOM      3  C   UNL     1      -2.889   0.485  -2.387  0.00  0.00    +0.048 A 
ATOM      4  C   UNL     1      -3.275  -0.575  -3.198  0.00  0.00    +0.026 A 
ATOM      5  C   UNL     1      -4.494  -1.192  -2.992  0.00  0.00    +0.030 A 
ATOM      6  C   UNL     1      -5.333  -0.749  -1.986  0.00  0.00    +0.105 A 
ATOM      7  C   UNL     1      -4.953   0.309  -1.180  0.00  0.00    +0.030 A 
ATOM      8  C   UNL     1      -3.734   0.927  -1.377  0.00  0.00    +0.026 A 
BRANCH   6   9
ATOM      9  S   UNL     1      -6.889  -1.535  -1.730  0.00  0.00    +0.056 S 
ATOM     10  O   UNL     1      -6.773  -2.848  -2.260  0.00  0.00    -0.153 OA
ATOM     11  O   UNL     1      -7.250  -1.289  -0.377  0.00  0.00    -0.153 OA
BRANCH   9  12
ATOM     12  N   UNL     1      -7.998  -0.741  -2.668  0.00  0.00    -0.204 NA
ATOM     13  H   UNL     1      -7.721   0.008  -3.218  0.00  0.00    +0.144 HD
ATOM     14  H   UNL     1      -8.926  -1.025  -2.668  0.00  0.00    +0.144 HD
ENDBRANCH   9  12
ENDBRANCH   6   9
ENDBRANCH   1   3
BRANCH   1  15
ATOM     15  S   UNL     1      -0.290   0.193  -2.798  0.00  0.00    +0.073 S 
ATOM     16  O   UNL     1       0.801   1.102  -2.867  0.00  0.00    -0.150 OA
ATOM     17  O   UNL     1      -0.576  -0.734  -3.836  0.00  0.00    -0.150 OA
BRANCH  15  23
ATOM     18  C   UNL     1      -0.079  -4.373  -0.264  0.00  0.00    +0.044 C 
ATOM     19  C   UNL     1       0.019  -2.870  -0.217  0.00  0.00    -0.049 A 
ATOM     20  C   UNL     1       0.278  -2.232   0.982  0.00  0.00    +0.004 A 
ATOM     21  C   UNL     1       0.368  -0.854   1.025  0.00  0.00    +0.005 A 
ATOM     22  C   UNL     1       0.198  -0.113  -0.130  0.00  0.00    -0.024 A 
ATOM     23  C   UNL     1      -0.067  -0.751  -1.327  0.00  0.00    +0.112 A 
ATOM     24  C   UNL     1      -0.151  -2.130  -1.372  0.00  0.00    +0.032 A 
ATOM     25  C   UNL     1       0.296   1.390  -0.083  0.00  0.00    +0.046 C 
ENDBRANCH  15  23
ENDBRANCH   1  15
TORSDOF 5
