REMARK  Name = ZINC47617262
REMARK  6 active torsions:
REMARK  status: ('A' for Active; 'I' for Inactive)
REMARK    1  A    between atoms: C_1  and  C_2
REMARK    2  A    between atoms: C_2  and  C_3
REMARK    3  A    between atoms: C_2  and  C_4
REMARK    4  A    between atoms: C_2  and  C_5
REMARK    5  A    between atoms: C_10  and  N_13
REMARK    6  A    between atoms: N_16  and  C_17
REMARK                            x       y       z     vdW  Elec       q    Type
REMARK                         _______ _______ _______ _____ _____    ______ ____
ROOT
ATOM      1  C   UNL     1       0.363  -0.695  -1.238  0.00  0.00    +0.221 C 
ATOM      2  O   UNL     1       0.920  -0.101  -2.138  0.00  0.00    -0.275 OA
ATOM      3  N   UNL     1       0.093  -2.009  -1.364  0.00  0.00    -0.301 N 
ATOM      4  C   UNL     1      -0.470  -2.768  -0.239  0.00  0.00    +0.109 C 
ATOM      5  C   UNL     1       0.414  -3.992   0.021  0.00  0.00    +0.041 C 
ATOM      6  C   UNL     1       0.555  -4.798  -1.273  0.00  0.00    +0.077 C 
ATOM      7  C   UNL     1       1.228  -3.934  -2.343  0.00  0.00    +0.041 C 
ATOM      8  C   UNL     1       0.348  -2.708  -2.631  0.00  0.00    +0.109 C 
ENDROOT
BRANCH   6   9
ATOM      9  N   UNL     1       1.373  -5.987  -1.021  0.00  0.00    -0.296 N 
ATOM     10  C   UNL     1       1.237  -7.076  -1.803  0.00  0.00    +0.300 C 
ATOM     11  O   UNL     1       0.437  -7.072  -2.718  0.00  0.00    -0.253 OA
ATOM     12  N   UNL     1       1.989  -8.170  -1.571  0.00  0.00    -0.297 N 
ATOM     13  H   UNL     1       2.011  -5.991  -0.290  0.00  0.00    +0.151 HD
ATOM     14  H   UNL     1       2.628  -8.174  -0.840  0.00  0.00    +0.151 HD
BRANCH  12  15
ATOM     15  C   UNL     1       1.842  -9.354  -2.421  0.00  0.00    +0.075 C 
ATOM     16  C   UNL     1       1.801 -10.719  -1.731  0.00  0.00    +0.024 C 
ATOM     17  C   UNL     1       3.039 -10.301  -2.526  0.00  0.00    +0.024 C 
ENDBRANCH  12  15
ENDBRANCH   6   9
BRANCH   1  19
ATOM     18  C   UNL     1       0.221   1.537  -0.166  0.00  0.00    +0.020 C 
ATOM     19  C   UNL     1      -0.025   0.038   0.020  0.00  0.00    +0.039 C 
ATOM     20  C   UNL     1       0.816  -0.476   1.190  0.00  0.00    +0.020 C 
ATOM     21  C   UNL     1      -1.507  -0.203   0.313  0.00  0.00    +0.020 C 
ENDBRANCH   1  19
TORSDOF 3
