REMARK  Name = ZINC27488965
REMARK  6 active torsions:
REMARK  status: ('A' for Active; 'I' for Inactive)
REMARK    1  A    between atoms: C_1  and  C_2
REMARK    2  A    between atoms: C_5  and  N_8
REMARK    3  A    between atoms: C_9  and  C_11
REMARK    4  A    between atoms: C_14  and  C_19
REMARK    5  A    between atoms: C_14  and  O_23
REMARK    6  A    between atoms: C_16  and  C_18
REMARK                            x       y       z     vdW  Elec       q    Type
REMARK                         _______ _______ _______ _____ _____    ______ ____
ROOT
ATOM      1  C   UNL     1      -2.409   0.942   4.270  0.00  0.00    +0.324 C 
ATOM      2  O   UNL     1      -2.895   1.640   5.136  0.00  0.00    -0.263 OA
ATOM      3  N   UNL     1      -1.815   1.510   3.201  0.00  0.00    -0.144 N 
ATOM      4  C   UNL     1      -1.685   2.956   2.960  0.00  0.00    +0.257 C 
ATOM      5  C   UNL     1      -0.928   3.024   1.617  0.00  0.00    +0.118 C 
ATOM      6  C   UNL     1      -0.723   1.572   1.246  0.00  0.00    +0.039 C 
ATOM      7  N   UNL     1      -1.221   0.825   2.143  0.00  0.00    -0.183 NA
ATOM      8  C   UNL     1      -0.025   1.087   0.001  0.00  0.00    +0.062 C 
ENDROOT
BRANCH   1  10
ATOM      9  N   UNL     1      -3.064  -1.111   5.456  0.00  0.00    -0.278 N 
ATOM     10  C   UNL     1      -2.469  -0.544   4.388  0.00  0.00    +0.305 C 
ATOM     11  O   UNL     1      -1.984  -1.242   3.521  0.00  0.00    -0.265 OA
ATOM     12  H   UNL     1      -3.436  -0.482   6.277  0.00  0.00    +0.155 HD
BRANCH   9  17
ATOM     13  C   UNL     1      -3.643  -6.747   5.717  0.00  0.00    +0.044 C 
ATOM     14  C   UNL     1      -3.489  -5.250   5.647  0.00  0.00    -0.050 A 
ATOM     15  C   UNL     1      -2.366  -4.698   5.059  0.00  0.00    +0.005 A 
ATOM     16  C   UNL     1      -2.222  -3.326   4.993  0.00  0.00    +0.023 A 
ATOM     17  C   UNL     1      -3.206  -2.500   5.520  0.00  0.00    +0.034 A 
ATOM     18  C   UNL     1      -4.331  -3.057   6.116  0.00  0.00    +0.023 A 
ATOM     19  C   UNL     1      -4.471  -4.430   6.173  0.00  0.00    +0.005 A 
ENDBRANCH   9  17
ENDBRANCH   1  10
BRANCH   4  20
ATOM     20  C   UNL     1      -3.063   3.610   2.842  0.00  0.00    +0.438 C 
ATOM     21  F   UNL     1      -3.763   3.441   4.041  0.00  0.00    -0.166 F 
ATOM     22  F   UNL     1      -2.910   4.976   2.580  0.00  0.00    -0.166 F 
ATOM     23  F   UNL     1      -3.775   3.011   1.797  0.00  0.00    -0.166 F 
ENDBRANCH   4  20
BRANCH   4  24
ATOM     24  O   UNL     1      -0.922   3.575   3.998  0.00  0.00    -0.363 OA
ATOM     25  H   UNL     1      -0.730   4.657   3.970  0.00  0.00    +0.212 HD
ENDBRANCH   4  24
TORSDOF 4
