REMARK  Name = ZINC40734618
REMARK  10 active torsions:
REMARK  status: ('A' for Active; 'I' for Inactive)
REMARK    1  A    between atoms: C_1  and  C_2
REMARK    2  A    between atoms: C_2  and  C_4
REMARK    3  A    between atoms: C_2  and  N_7
REMARK    4  A    between atoms: C_4  and  O_5
REMARK    5  A    between atoms: O_5  and  C_6
REMARK    6  A    between atoms: C_9  and  N_23
REMARK    7  A    between atoms: C_10  and  N_14
REMARK    8  A    between atoms: N_17  and  C_20
REMARK    9  A    between atoms: C_20  and  C_21
REMARK   10  A    between atoms: C_21  and  O_22
REMARK                            x       y       z     vdW  Elec       q    Type
REMARK                         _______ _______ _______ _____ _____    ______ ____
ROOT
ATOM      1  N   UNL     1       0.697  -0.380  -1.249  0.00  0.00    -0.323 N 
ATOM      2  C   UNL     1       2.078  -0.542  -1.238  0.00  0.00    +0.145 A 
ATOM      3  C   UNL     1       2.746  -1.008  -2.372  0.00  0.00    +0.105 A 
ATOM      4  C   UNL     1       4.132  -1.153  -2.307  0.00  0.00    +0.147 A 
ATOM      5  N   UNL     1       4.761  -0.844  -1.175  0.00  0.00    -0.219 NA
ATOM      6  C   UNL     1       4.092  -0.407  -0.127  0.00  0.00    +0.225 A 
ATOM      7  N   UNL     1       2.784  -0.252  -0.148  0.00  0.00    -0.219 NA
ATOM      8  H   UNL     1       0.190  -0.594  -2.047  0.00  0.00    +0.148 HD
ENDROOT
BRANCH   4   9
ATOM      9  N   UNL     1       4.846  -1.613  -3.407  0.00  0.00    -0.311 N 
ATOM     10  C   UNL     1       5.449  -0.672  -4.364  0.00  0.00    +0.122 C 
ATOM     11  C   UNL     1       6.922  -1.048  -4.554  0.00  0.00    +0.103 C 
ATOM     12  N   UNL     1       7.018  -2.464  -4.932  0.00  0.00    -0.297 NA
ATOM     13  C   UNL     1       6.509  -3.336  -3.865  0.00  0.00    +0.103 C 
ATOM     14  C   UNL     1       5.024  -3.054  -3.643  0.00  0.00    +0.122 C 
BRANCH  12  15
ATOM     15  C   UNL     1       8.397  -2.821  -5.290  0.00  0.00    +0.112 C 
BRANCH  15  16
ATOM     16  C   UNL     1       8.417  -4.219  -5.912  0.00  0.00    +0.171 C 
BRANCH  16  17
ATOM     17  O   UNL     1       7.697  -4.201  -7.147  0.00  0.00    -0.394 OA
ATOM     18  H   UNL     1       7.669  -5.056  -7.598  0.00  0.00    +0.209 HD
ENDBRANCH  16  17
ENDBRANCH  15  16
ENDBRANCH  12  15
ENDBRANCH   4   9
BRANCH   3  19
ATOM     19  N   UNL     1       2.041  -1.323  -3.546  0.00  0.00    -0.353 N 
ATOM     20  H   UNL     1       1.071  -1.304  -3.550  0.00  0.00    +0.143 HD
ATOM     21  H   UNL     1       2.525  -1.559  -4.353  0.00  0.00    +0.143 HD
ENDBRANCH   3  19
BRANCH   1  23
ATOM     22  C   UNL     1       0.042   1.645  -0.044  0.00  0.00    +0.030 C 
ATOM     23  C   UNL     1       0.009   0.115  -0.054  0.00  0.00    +0.094 C 
BRANCH  23  24
ATOM     24  C   UNL     1      -1.444  -0.363  -0.069  0.00  0.00    +0.181 C 
BRANCH  24  25
ATOM     25  O   UNL     1      -2.130   0.229  -1.173  0.00  0.00    -0.381 OA
ATOM     26  C   UNL     1      -3.503  -0.154  -1.279  0.00  0.00    +0.194 C 
ENDBRANCH  24  25
ENDBRANCH  23  24
ENDBRANCH   1  23
TORSDOF 8
