REMARK  Name = ZINC14808091
REMARK  6 active torsions:
REMARK  status: ('A' for Active; 'I' for Inactive)
REMARK    1  A    between atoms: C_3  and  S_12
REMARK    2  A    between atoms: C_6  and  O_7
REMARK    3  A    between atoms: O_7  and  C_8
REMARK    4  A    between atoms: S_12  and  C_15
REMARK    5  A    between atoms: C_15  and  C_16
REMARK    6  A    between atoms: N_17  and  O_18
REMARK                            x       y       z     vdW  Elec       q    Type
REMARK                         _______ _______ _______ _____ _____    ______ ____
ROOT
ATOM      1  C   UNL     1      -0.017   1.383   0.010  0.00  0.00    +0.048 A 
ATOM      2  C   UNL     1       1.171   2.089   0.002  0.00  0.00    +0.030 A 
ATOM      3  C   UNL     1       2.377   1.414  -0.013  0.00  0.00    +0.089 A 
ATOM      4  C   UNL     1       2.399   0.031  -0.021  0.00  0.00    +0.030 A 
ATOM      5  C   UNL     1       1.214  -0.679  -0.013  0.00  0.00    +0.048 A 
ATOM      6  C   UNL     1       0.002  -0.004   0.002  0.00  0.00    +0.130 A 
ENDROOT
BRANCH   3   7
ATOM      7  S   UNL     1       3.890   2.317  -0.023  0.00  0.00    +0.004 S 
ATOM      8  O   UNL     1       4.829   1.446  -0.640  0.00  0.00    -0.169 OA
ATOM      9  O   UNL     1       3.563   3.566  -0.617  0.00  0.00    -0.169 OA
BRANCH   7  10
ATOM     10  C   UNL     1       4.308   2.547   1.727  0.00  0.00    +0.246 C 
BRANCH  10  11
ATOM     11  C   UNL     1       5.599   3.317   1.839  0.00  0.00    +0.153 C 
ATOM     12  N   UNL     1       6.218   3.698   0.771  0.00  0.00    -0.075 NA
ATOM     13  N   UNL     1       6.118   3.613   3.079  0.00  0.00    -0.343 N 
ATOM     14  H   UNL     1       5.653   3.327   3.881  0.00  0.00    +0.144 HD
ATOM     15  H   UNL     1       6.949   4.109   3.151  0.00  0.00    +0.144 HD
BRANCH  12  16
ATOM     16  O   UNL     1       7.431   4.421   0.876  0.00  0.00    -0.408 OA
ATOM     17  H   UNL     1       7.820   4.662   0.024  0.00  0.00    +0.328 HD
ENDBRANCH  12  16
ENDBRANCH  10  11
ENDBRANCH   7  10
ENDBRANCH   3   7
BRANCH   6  18
ATOM     18  O   UNL     1      -1.165  -0.701   0.010  0.00  0.00    -0.406 OA
BRANCH  18  19
ATOM     19  C   UNL     1      -1.069  -2.126   0.001  0.00  0.00    +0.575 C 
ATOM     20  F   UNL     1      -0.369  -2.554   1.134  0.00  0.00    -0.133 F 
ATOM     21  F   UNL     1      -2.354  -2.680   0.011  0.00  0.00    -0.133 F 
ATOM     22  F   UNL     1      -0.392  -2.542  -1.150  0.00  0.00    -0.133 F 
ENDBRANCH  18  19
ENDBRANCH   6  18
TORSDOF 6
