REMARK  Name = ZINC35081941
REMARK  5 active torsions:
REMARK  status: ('A' for Active; 'I' for Inactive)
REMARK    1  A    between atoms: C_1  and  C_2
REMARK    2  A    between atoms: C_5  and  N_9
REMARK    3  A    between atoms: C_6  and  O_8
REMARK    4  A    between atoms: N_9  and  S_10
REMARK    5  A    between atoms: S_10  and  C_13
REMARK                            x       y       z     vdW  Elec       q    Type
REMARK                         _______ _______ _______ _____ _____    ______ ____
ROOT
ATOM      1  N   UNL     1       0.057  -4.173  -0.030  0.00  0.00    -0.213 N 
ATOM      2  H   UNL     1      -0.470  -4.660   0.622  0.00  0.00    +0.174 HD
ENDROOT
BRANCH   1   7
ATOM      3  C   UNL     1       0.671   1.450   0.441  0.00  0.00    +0.044 C 
ATOM      4  C   UNL     1       0.508  -0.043   0.319  0.00  0.00    -0.047 A 
ATOM      5  C   UNL     1       0.416  -0.626  -0.932  0.00  0.00    +0.005 A 
ATOM      6  C   UNL     1       0.267  -1.995  -1.050  0.00  0.00    +0.028 A 
ATOM      7  C   UNL     1       0.209  -2.787   0.087  0.00  0.00    +0.089 A 
ATOM      8  C   UNL     1       0.302  -2.199   1.347  0.00  0.00    +0.139 A 
ATOM      9  C   UNL     1       0.457  -0.827   1.457  0.00  0.00    +0.050 A 
BRANCH   8  10
ATOM     10  O   UNL     1       0.245  -2.970   2.465  0.00  0.00    -0.505 OA
ATOM     11  H   UNL     1       1.107  -3.288   2.768  0.00  0.00    +0.292 HD
ENDBRANCH   8  10
ENDBRANCH   1   7
BRANCH   1  12
ATOM     12  S   UNL     1       0.778  -4.982  -1.282  0.00  0.00    +0.072 S 
ATOM     13  O   UNL     1       0.554  -6.367  -1.054  0.00  0.00    -0.150 OA
ATOM     14  O   UNL     1       0.368  -4.331  -2.477  0.00  0.00    -0.150 OA
BRANCH  12  15
ATOM     15  C   UNL     1       2.515  -4.723  -1.139  0.00  0.00    +0.110 A 
ATOM     16  C   UNL     1       3.106  -3.639  -1.761  0.00  0.00    +0.029 A 
ATOM     17  C   UNL     1       4.469  -3.435  -1.649  0.00  0.00    +0.003 A 
ATOM     18  C   UNL     1       5.241  -4.315  -0.914  0.00  0.00    +0.020 A 
ATOM     19  C   UNL     1       4.651  -5.399  -0.291  0.00  0.00    +0.043 A 
ATOM     20  C   UNL     1       3.286  -5.599  -0.399  0.00  0.00    +0.048 A 
ATOM     21 CL   UNL     1       5.620  -6.504   0.632  0.00  0.00    -0.083 Cl
ENDBRANCH  12  15
ENDBRANCH   1  12
TORSDOF 4
