REMARK  Name = ZINC48926234
REMARK  7 active torsions:
REMARK  status: ('A' for Active; 'I' for Inactive)
REMARK    1  A    between atoms: C_1  and  C_2
REMARK    2  A    between atoms: C_2  and  C_4
REMARK    3  A    between atoms: C_2  and  N_14
REMARK    4  A    between atoms: N_6  and  C_7
REMARK    5  A    between atoms: C_10  and  N_13
REMARK    6  A    between atoms: C_19  and  C_20
REMARK    7  A    between atoms: C_19  and  C_21
REMARK                            x       y       z     vdW  Elec       q    Type
REMARK                         _______ _______ _______ _____ _____    ______ ____
ROOT
ATOM      1  C   UNL     1       0.690  -0.431   0.694  0.00  0.00    +0.234 C 
ATOM      2  O   UNL     1       1.403  -1.397   0.522  0.00  0.00    -0.274 OA
ATOM      3  N   UNL     1       0.607   0.138   1.913  0.00  0.00    -0.284 N 
ATOM      4  H   UNL     1      -0.024   0.857   2.071  0.00  0.00    +0.155 HD
ENDROOT
BRANCH   3   5
ATOM      5  C   UNL     1       1.434  -0.310   2.953  0.00  0.00    +0.034 A 
ATOM      6  C   UNL     1       2.721  -0.751   2.675  0.00  0.00    +0.025 A 
ATOM      7  C   UNL     1       3.535  -1.192   3.700  0.00  0.00    +0.024 A 
ATOM      8  C   UNL     1       3.067  -1.194   5.007  0.00  0.00    +0.025 A 
ATOM      9  C   UNL     1       1.779  -0.753   5.284  0.00  0.00    +0.024 A 
ATOM     10  C   UNL     1       0.967  -0.308   4.260  0.00  0.00    +0.025 A 
BRANCH   8  11
ATOM     11  N   UNL     1       3.891  -1.641   6.045  0.00  0.00    -0.358 N 
ATOM     12  H   UNL     1       4.790  -1.950   5.851  0.00  0.00    +0.142 HD
ATOM     13  H   UNL     1       3.564  -1.643   6.958  0.00  0.00    +0.142 HD
ENDBRANCH   8  11
ENDBRANCH   3   5
BRANCH   1  15
ATOM     14  C   UNL     1       0.314   1.587  -0.697  0.00  0.00    +0.034 C 
ATOM     15  C   UNL     1      -0.102   0.135  -0.457  0.00  0.00    +0.141 C 
BRANCH  15  16
ATOM     16  N   UNL     1       0.160  -0.656  -1.667  0.00  0.00    -0.282 NA
ATOM     17  C   UNL     1       0.007   0.166  -2.876  0.00  0.00    +0.114 C 
ATOM     18  C   UNL     1       0.345  -0.680  -4.107  0.00  0.00    +0.175 C 
ATOM     19  O   UNL     1      -0.494  -1.838  -4.130  0.00  0.00    -0.377 OA
ATOM     20  C   UNL     1      -0.370  -2.661  -2.967  0.00  0.00    +0.181 C 
ATOM     21  C   UNL     1      -0.716  -1.836  -1.725  0.00  0.00    +0.040 C 
ATOM     22  C   UNL     1      -2.176  -1.385  -1.801  0.00  0.00    +0.030 C 
ATOM     23  C   UNL     1      -0.508  -2.688  -0.471  0.00  0.00    +0.030 C 
ENDBRANCH  15  16
ENDBRANCH   1  15
TORSDOF 4
