REMARK  Name = ZINC25063926
REMARK  4 active torsions:
REMARK  status: ('A' for Active; 'I' for Inactive)
REMARK    1  A    between atoms: C_6  and  C_7
REMARK    2  A    between atoms: C_7  and  O_9
REMARK    3  A    between atoms: O_9  and  C_10
REMARK    4  A    between atoms: C_10  and  C_11
REMARK                            x       y       z     vdW  Elec       q    Type
REMARK                         _______ _______ _______ _____ _____    ______ ____
ROOT
ATOM      1  C   UNL     1      -1.972  -4.537   0.003  0.00  0.00    +0.170 A 
ATOM      2  N   UNL     1      -1.810  -5.152  -1.155  0.00  0.00    -0.214 NA
ATOM      3  C   UNL     1      -1.322  -6.379  -1.239  0.00  0.00    +0.128 A 
ATOM      4  C   UNL     1      -0.957  -7.061  -0.044  0.00  0.00    +0.051 A 
ATOM      5  C   UNL     1      -0.400  -8.411   0.103  0.00  0.00    -0.025 A 
ATOM      6  C   UNL     1      -0.143  -8.825   1.359  0.00  0.00    -0.004 A 
ATOM      7  S   UNL     1      -0.607  -7.467   2.403  0.00  0.00    -0.073 S 
ATOM      8  C   UNL     1      -1.156  -6.341   1.149  0.00  0.00    +0.114 A 
ATOM      9  N   UNL     1      -1.646  -5.116   1.142  0.00  0.00    -0.221 NA
ATOM     10  C   UNL     1       0.403 -10.149   1.796  0.00  0.00    +0.043 C 
ATOM     11  C   UNL     1       1.645 -10.485   0.961  0.00  0.00    +0.005 C 
ATOM     12  C   UNL     1       1.198 -11.248  -0.282  0.00  0.00    +0.001 C 
ATOM     13  C   UNL     1      -0.178 -10.757  -0.728  0.00  0.00    +0.005 C 
ATOM     14  C   UNL     1      -0.121  -9.284  -1.116  0.00  0.00    +0.037 C 
ATOM     15  N   UNL     1      -1.168  -6.990  -2.470  0.00  0.00    -0.343 N 
ATOM     16  H   UNL     1      -0.493  -7.676  -2.590  0.00  0.00    +0.144 HD
ATOM     17  H   UNL     1      -1.736  -6.733  -3.213  0.00  0.00    +0.144 HD
ENDROOT
BRANCH   1  18
ATOM     18  C   UNL     1      -2.534  -3.139   0.022  0.00  0.00    +0.308 C 
BRANCH  18  19
ATOM     19  O   UNL     1      -1.466  -2.194  -0.072  0.00  0.00    -0.452 OA
BRANCH  19  20
ATOM     20  C   UNL     1      -1.802  -0.888  -0.069  0.00  0.00    +0.356 C 
ATOM     21  O   UNL     1      -2.970  -0.560   0.012  0.00  0.00    -0.243 OA
BRANCH  20  27
ATOM     22  C   UNL     1      -0.955   1.503  -0.170  0.00  0.00    +0.049 A 
ATOM     23  C   UNL     1       0.306   2.099  -0.272  0.00  0.00    +0.036 A 
ATOM     24  C   UNL     1       1.230   1.109  -0.324  0.00  0.00    +0.098 A 
ATOM     25  N   UNL     1       0.597  -0.088  -0.258  0.00  0.00    -0.355 N 
ATOM     26  H   UNL     1       1.026  -0.957  -0.275  0.00  0.00    +0.166 HD
ATOM     27  C   UNL     1      -0.759   0.137  -0.163  0.00  0.00    +0.125 A 
ATOM     28 BR   UNL     1       0.658   3.955  -0.329  0.00  0.00    -0.049 Br
ENDBRANCH  20  27
ENDBRANCH  19  20
ENDBRANCH  18  19
ENDBRANCH   1  18
TORSDOF 4
