REMARK  Name = ZINC40713959
REMARK  3 active torsions:
REMARK  status: ('A' for Active; 'I' for Inactive)
REMARK    1  A    between atoms: C_3  and  O_9
REMARK    2  A    between atoms: O_9  and  C_10
REMARK    3  A    between atoms: C_11  and  N_17
REMARK                            x       y       z     vdW  Elec       q    Type
REMARK                         _______ _______ _______ _____ _____    ______ ____
ROOT
ATOM      1  C   UNL     1       3.483   3.461  -0.118  0.00  0.00    +0.242 A 
ATOM      2  C   UNL     1       4.659   4.203  -0.241  0.00  0.00    +0.088 A 
ATOM      3  C   UNL     1       4.576   5.586  -0.339  0.00  0.00    +0.045 A 
ATOM      4  C   UNL     1       3.318   6.176  -0.312  0.00  0.00    +0.038 A 
ATOM      5  C   UNL     1       2.199   5.377  -0.188  0.00  0.00    +0.130 A 
ATOM      6  N   UNL     1       2.308   4.064  -0.101  0.00  0.00    -0.218 NA
ATOM      7 BR   UNL     1       3.142   8.054  -0.441  0.00  0.00    -0.049 Br
ENDROOT
BRANCH   2   8
ATOM      8  N   UNL     1       5.904   3.563  -0.263  0.00  0.00    -0.354 N 
ATOM      9  H   UNL     1       5.954   2.597  -0.194  0.00  0.00    +0.142 HD
ATOM     10  H   UNL     1       6.716   4.086  -0.349  0.00  0.00    +0.142 HD
ENDBRANCH   2   8
BRANCH   1  11
ATOM     11  O   UNL     1       3.548   2.108  -0.021  0.00  0.00    -0.433 OA
BRANCH  11  14
ATOM     12  C   UNL     1       0.653   0.365   1.327  0.00  0.00    +0.019 A 
ATOM     13  C   UNL     1       1.841   1.068   1.268  0.00  0.00    +0.050 A 
ATOM     14  C   UNL     1       2.380   1.416   0.039  0.00  0.00    +0.165 A 
ATOM     15  C   UNL     1       1.723   1.057  -1.132  0.00  0.00    +0.167 A 
ATOM     16  C   UNL     1       0.534   0.353  -1.067  0.00  0.00    +0.057 A 
ATOM     17  C   UNL     1      -0.000   0.007   0.161  0.00  0.00    +0.021 A 
ATOM     18 BR   UNL     1      -1.626  -0.955   0.247  0.00  0.00    -0.050 Br
ATOM     19  F   UNL     1       2.245   1.395  -2.331  0.00  0.00    -0.202 F 
ENDBRANCH  11  14
ENDBRANCH   1  11
TORSDOF 3
