REMARK  Name = ZINC33760579
REMARK  7 active torsions:
REMARK  status: ('A' for Active; 'I' for Inactive)
REMARK    1  A    between atoms: C_1  and  O_2
REMARK    2  A    between atoms: O_2  and  C_3
REMARK    3  A    between atoms: C_5  and  N_11
REMARK    4  A    between atoms: C_12  and  C_14
REMARK    5  A    between atoms: C_14  and  S_15
REMARK    6  A    between atoms: S_15  and  C_16
REMARK    7  A    between atoms: C_18  and  N_23
REMARK                            x       y       z     vdW  Elec       q    Type
REMARK                         _______ _______ _______ _____ _____    ______ ____
ROOT
ATOM      1  N   UNL     1       2.361   0.315  -4.157  0.00  0.00    -0.284 N 
ATOM      2  C   UNL     1       2.227   1.656  -4.141  0.00  0.00    +0.228 C 
ATOM      3  O   UNL     1       1.689   2.201  -3.200  0.00  0.00    -0.275 OA
ATOM      4  H   UNL     1       2.860  -0.114  -4.870  0.00  0.00    +0.155 HD
ENDROOT
BRANCH   1   7
ATOM      5  C   UNL     1       0.107  -0.745  -1.447  0.00  0.00    +0.136 A 
ATOM      6  C   UNL     1       0.681   0.023  -2.448  0.00  0.00    +0.071 A 
ATOM      7  C   UNL     1       1.779  -0.458  -3.146  0.00  0.00    +0.051 A 
ATOM      8  C   UNL     1       2.300  -1.710  -2.841  0.00  0.00    +0.040 A 
ATOM      9  C   UNL     1       1.725  -2.474  -1.842  0.00  0.00    +0.036 A 
ATOM     10  C   UNL     1       0.634  -1.992  -1.142  0.00  0.00    +0.061 A 
ATOM     11 BR   UNL     1      -0.144  -3.037   0.229  0.00  0.00    -0.046 Br
ATOM     12 BR   UNL     1       3.796  -2.369  -3.792  0.00  0.00    -0.048 Br
BRANCH   5  14
ATOM     13  C   UNL     1      -1.459   1.016  -1.129  0.00  0.00    +0.277 C 
ATOM     14  O   UNL     1      -0.969  -0.276  -0.762  0.00  0.00    -0.494 OA
ENDBRANCH   5  14
ENDBRANCH   1   7
BRANCH   2  15
ATOM     15  C   UNL     1       2.745   2.479  -5.293  0.00  0.00    +0.173 C 
BRANCH  15  16
ATOM     16  S   UNL     1       2.417   4.235  -4.977  0.00  0.00    -0.078 S 
BRANCH  16  17
ATOM     17  C   UNL     1       3.072   5.052  -6.394  0.00  0.00    +0.171 A 
ATOM     18  N   UNL     1       3.628   4.338  -7.351  0.00  0.00    -0.209 NA
ATOM     19  C   UNL     1       4.137   4.921  -8.443  0.00  0.00    +0.124 A 
ATOM     20  C   UNL     1       4.082   6.301  -8.575  0.00  0.00    +0.113 A 
ATOM     21  C   UNL     1       3.491   7.052  -7.555  0.00  0.00    +0.254 A 
ATOM     22  N   UNL     1       2.989   6.409  -6.480  0.00  0.00    -0.302 N 
ATOM     23  O   UNL     1       3.425   8.268  -7.637  0.00  0.00    -0.268 OA
ATOM     24  H   UNL     1       2.572   6.915  -5.764  0.00  0.00    +0.171 HD
BRANCH  19  25
ATOM     25  N   UNL     1       4.715   4.152  -9.433  0.00  0.00    -0.343 N 
ATOM     26  H   UNL     1       4.752   3.187  -9.338  0.00  0.00    +0.144 HD
ATOM     27  H   UNL     1       5.083   4.576 -10.224  0.00  0.00    +0.144 HD
ENDBRANCH  19  25
ENDBRANCH  16  17
ENDBRANCH  15  16
ENDBRANCH   2  15
TORSDOF 6
