REMARK  Name = ZINC36765677
REMARK  4 active torsions:
REMARK  status: ('A' for Active; 'I' for Inactive)
REMARK    1  A    between atoms: C_3  and  C_8
REMARK    2  A    between atoms: C_8  and  C_9
REMARK    3  A    between atoms: C_11  and  C_14
REMARK    4  A    between atoms: C_19  and  N_20
REMARK                            x       y       z     vdW  Elec       q    Type
REMARK                         _______ _______ _______ _____ _____    ______ ____
ROOT
ATOM      1  C   UNL     1       4.158   2.389   1.427  0.00  0.00    +0.176 A 
ATOM      2  N   UNL     1       3.866   3.482   2.135  0.00  0.00    -0.191 NA
ATOM      3  C   UNL     1       4.327   3.360   3.361  0.00  0.00    +0.260 A 
ATOM      4  O   UNL     1       4.934   2.164   3.459  0.00  0.00    -0.333 OA
ATOM      5  N   UNL     1       4.805   1.550   2.186  0.00  0.00    -0.061 NA
ENDROOT
BRANCH   3   6
ATOM      6  C   UNL     1       4.201   4.360   4.439  0.00  0.00    +0.061 A 
ATOM      7  C   UNL     1       2.970   4.967   4.693  0.00  0.00    +0.035 A 
ATOM      8  C   UNL     1       2.859   5.901   5.702  0.00  0.00    +0.042 A 
ATOM      9  C   UNL     1       3.965   6.241   6.466  0.00  0.00    +0.022 A 
ATOM     10  C   UNL     1       5.188   5.649   6.225  0.00  0.00    +0.025 A 
ATOM     11  C   UNL     1       5.317   4.702   5.218  0.00  0.00    +0.037 A 
ATOM     12 CL   UNL     1       1.327   6.655   6.017  0.00  0.00    -0.084 Cl
BRANCH  11  13
ATOM     13  N   UNL     1       6.548   4.100   4.977  0.00  0.00    -0.357 N 
ATOM     14  H   UNL     1       6.660   3.512   4.214  0.00  0.00    +0.142 HD
ATOM     15  H   UNL     1       7.295   4.268   5.573  0.00  0.00    +0.142 HD
ENDBRANCH  11  13
ENDBRANCH   3   6
BRANCH   1  16
ATOM     16  C   UNL     1       3.794   2.160  -0.017  0.00  0.00    +0.115 C 
BRANCH  16  19
ATOM     17  C   UNL     1       0.057   1.667  -0.240  0.00  0.00    +0.001 A 
ATOM     18  C   UNL     1       1.298   2.272  -0.169  0.00  0.00    +0.004 A 
ATOM     19  C   UNL     1       2.441   1.499  -0.094  0.00  0.00    -0.039 A 
ATOM     20  C   UNL     1       2.345   0.120  -0.092  0.00  0.00    +0.019 A 
ATOM     21  C   UNL     1       1.104  -0.486  -0.163  0.00  0.00    +0.018 A 
ATOM     22  C   UNL     1      -0.041   0.288  -0.237  0.00  0.00    +0.015 A 
ATOM     23 BR   UNL     1       0.971  -2.372  -0.160  0.00  0.00    -0.050 Br
ENDBRANCH  16  19
ENDBRANCH   1  16
TORSDOF 4
