REMARK  Name = ZINC43740487
REMARK  6 active torsions:
REMARK  status: ('A' for Active; 'I' for Inactive)
REMARK    1  A    between atoms: C_1  and  C_2
REMARK    2  A    between atoms: C_2  and  C_5
REMARK    3  A    between atoms: N_3  and  O_4
REMARK    4  A    between atoms: C_10  and  C_29
REMARK    5  A    between atoms: C_21  and  C_28
REMARK    6  A    between atoms: N_25  and  O_26
REMARK                            x       y       z     vdW  Elec       q    Type
REMARK                         _______ _______ _______ _____ _____    ______ ____
ROOT
ATOM      1  C   UNL     1       0.022  -0.808  -1.346  0.00  0.00    -0.021 C 
ATOM      2  C   UNL     1       0.088  -0.281  -2.582  0.00  0.00    -0.021 C 
ATOM      3  C   UNL     1       0.075  -1.401  -3.623  0.00  0.00    +0.032 C 
ATOM      4  C   UNL     1       0.646  -2.579  -2.821  0.00  0.00    +0.006 C 
ATOM      5  C   UNL     1      -0.063  -2.293  -1.468  0.00  0.00    -0.002 C 
ATOM      6  C   UNL     1       0.596  -3.159  -0.421  0.00  0.00    +0.012 C 
ATOM      7  C   UNL     1       0.298  -4.622  -0.796  0.00  0.00    +0.005 C 
ATOM      8  C   UNL     1       0.771  -4.949  -2.208  0.00  0.00    -0.001 C 
ATOM      9  C   UNL     1       0.219  -3.967  -3.259  0.00  0.00    -0.003 C 
ATOM     10  C   UNL     1       0.822  -4.302  -4.625  0.00  0.00    +0.004 C 
ATOM     11  C   UNL     1       0.412  -5.721  -5.022  0.00  0.00    +0.005 C 
ATOM     12  C   UNL     1       0.933  -6.720  -3.985  0.00  0.00    +0.001 C 
ATOM     13  C   UNL     1       0.354  -6.374  -2.579  0.00  0.00    -0.025 C 
ATOM     14  C   UNL     1       0.923  -7.341  -1.536  0.00  0.00    +0.013 C 
ATOM     15  C   UNL     1       0.447  -8.764  -1.840  0.00  0.00    +0.055 C 
ATOM     16  C   UNL     1       0.829  -9.101  -3.264  0.00  0.00    +0.058 C 
ATOM     17  N   UNL     1       1.471 -10.173  -3.537  0.00  0.00    -0.097 NA
ATOM     18  C   UNL     1       0.479  -8.128  -4.393  0.00  0.00    +0.058 C 
ATOM     19  C   UNL     1      -1.173  -6.473  -2.590  0.00  0.00    +0.012 C 
ATOM     20  C   UNL     1      -1.533  -2.702  -1.583  0.00  0.00    +0.016 C 
ENDROOT
BRANCH   1  22
ATOM     21  C   UNL     1      -1.243   0.511   0.470  0.00  0.00    +0.069 C 
ATOM     22  C   UNL     1       0.039  -0.050  -0.088  0.00  0.00    +0.080 C 
ATOM     23  N   UNL     1       1.156   0.135   0.542  0.00  0.00    -0.092 NA
BRANCH  23  24
ATOM     24  O   UNL     1       2.343  -0.478   0.073  0.00  0.00    -0.409 OA
ATOM     25  H   UNL     1       3.108  -0.344   0.649  0.00  0.00    +0.328 HD
ENDBRANCH  23  24
ENDBRANCH   1  22
BRANCH  17  26
ATOM     26  O   UNL     1       1.819 -10.469  -4.877  0.00  0.00    -0.409 OA
ATOM     27  H   UNL     1       2.302 -11.300  -4.984  0.00  0.00    +0.328 HD
ENDBRANCH  17  26
TORSDOF 3
