REMARK  Name = ZINC20390162
REMARK  6 active torsions:
REMARK  status: ('A' for Active; 'I' for Inactive)
REMARK    1  A    between atoms: C_1  and  C_2
REMARK    2  A    between atoms: C_2  and  C_4
REMARK    3  A    between atoms: C_2  and  O_31
REMARK    4  A    between atoms: C_4  and  N_5
REMARK    5  A    between atoms: C_24  and  C_26
REMARK    6  A    between atoms: C_24  and  C_27
REMARK                            x       y       z     vdW  Elec       q    Type
REMARK                         _______ _______ _______ _____ _____    ______ ____
ROOT
ATOM      1  N   UNL     1       0.774  -1.971  -1.245  0.00  0.00    -0.326 N 
ATOM      2  C   UNL     1       1.297  -2.645  -2.339  0.00  0.00    +0.136 A 
ATOM      3  C   UNL     1       1.219  -4.027  -2.427  0.00  0.00    +0.080 A 
ATOM      4  C   UNL     1       1.742  -4.708  -3.533  0.00  0.00    +0.093 A 
ATOM      5  C   UNL     1       1.595  -6.175  -3.515  0.00  0.00    +0.037 A 
ATOM      6  C   UNL     1       2.036  -7.098  -4.496  0.00  0.00    -0.024 A 
ATOM      7  C   UNL     1       1.815  -8.427  -4.313  0.00  0.00    +0.022 A 
ATOM      8  C   UNL     1       1.152  -8.872  -3.164  0.00  0.00    +0.128 A 
ATOM      9  N   UNL     1       0.740  -8.008  -2.250  0.00  0.00    -0.224 NA
ATOM     10  C   UNL     1       0.941  -6.714  -2.394  0.00  0.00    +0.113 A 
ATOM     11  S   UNL     1       0.540  -5.300  -1.398  0.00  0.00    -0.064 S 
ATOM     12  N   UNL     1       0.923 -10.229  -2.982  0.00  0.00    -0.310 N 
ATOM     13  C   UNL     1      -0.517 -10.517  -2.915  0.00  0.00    +0.134 C 
ATOM     14  C   UNL     1      -0.724 -12.027  -2.774  0.00  0.00    +0.178 C 
ATOM     15  O   UNL     1      -0.024 -12.493  -1.617  0.00  0.00    -0.377 OA
ATOM     16  C   UNL     1       1.381 -12.230  -1.649  0.00  0.00    +0.178 C 
ATOM     17  C   UNL     1       1.610 -10.722  -1.779  0.00  0.00    +0.134 C 
ATOM     18  C   UNL     1       2.272  -9.446  -5.325  0.00  0.00    +0.199 C 
ATOM     19  O   UNL     1       2.578  -8.809  -6.565  0.00  0.00    -0.369 OA
ATOM     20  C   UNL     1       3.477  -7.703  -6.423  0.00  0.00    +0.068 C 
ATOM     21  C   UNL     1       2.735  -6.566  -5.717  0.00  0.00    +0.070 C 
ATOM     22  C   UNL     1       3.941  -7.236  -7.805  0.00  0.00    +0.041 C 
ATOM     23  C   UNL     1       4.687  -8.125  -5.588  0.00  0.00    +0.041 C 
ATOM     24  N   UNL     1       2.324  -3.941  -4.482  0.00  0.00    -0.234 NA
ATOM     25  C   UNL     1       2.383  -2.638  -4.364  0.00  0.00    +0.224 A 
ATOM     26  N   UNL     1       1.891  -1.981  -3.330  0.00  0.00    -0.220 NA
ATOM     27  H   UNL     1       0.287  -2.533  -0.435  0.00  0.00    +0.148 HD
ENDROOT
BRANCH   1  28
ATOM     28  C   UNL     1       0.872  -0.511  -1.169  0.00  0.00    +0.134 C 
BRANCH  28  30
ATOM     29  C   UNL     1       0.213   1.506   0.150  0.00  0.00    +0.039 C 
ATOM     30  C   UNL     1       0.223  -0.024   0.128  0.00  0.00    +0.128 C 
BRANCH  30  31
ATOM     31  O   UNL     1       0.968  -0.512   1.246  0.00  0.00    -0.391 OA
ATOM     32  H   UNL     1       1.085  -1.595   1.398  0.00  0.00    +0.210 HD
ENDBRANCH  30  31
ENDBRANCH  28  30
ENDBRANCH   1  28
TORSDOF 3
