REMARK  Name = ZINC17003877
REMARK  7 active torsions:
REMARK  status: ('A' for Active; 'I' for Inactive)
REMARK    1  A    between atoms: C_4  and  C_7
REMARK    2  A    between atoms: N_8  and  S_9
REMARK    3  A    between atoms: S_9  and  C_12
REMARK    4  A    between atoms: C_15  and  N_18
REMARK    5  A    between atoms: N_19  and  S_20
REMARK    6  A    between atoms: S_20  and  C_23
REMARK    7  A    between atoms: C_26  and  N_29
REMARK                            x       y       z     vdW  Elec       q    Type
REMARK                         _______ _______ _______ _____ _____    ______ ____
ROOT
ATOM      1  C   UNL     1       2.215  -2.650  -2.224  0.00  0.00    +0.167 C 
ATOM      2  N   UNL     1       2.662  -3.594  -1.446  0.00  0.00    -0.112 NA
ATOM      3  N   UNL     1       1.712  -1.489  -1.679  0.00  0.00    -0.198 N 
ATOM      4  H   UNL     1       1.593  -1.399  -0.589  0.00  0.00    +0.175 HD
ENDROOT
BRANCH   1   8
ATOM      5  C   UNL     1       2.307  -3.153  -6.443  0.00  0.00    +0.000 A 
ATOM      6  C   UNL     1       3.288  -2.406  -5.816  0.00  0.00    +0.001 A 
ATOM      7  C   UNL     1       3.264  -2.240  -4.447  0.00  0.00    +0.011 A 
ATOM      8  C   UNL     1       2.247  -2.825  -3.694  0.00  0.00    +0.018 A 
ATOM      9  C   UNL     1       1.263  -3.582  -4.330  0.00  0.00    +0.011 A 
ATOM     10  C   UNL     1       1.295  -3.737  -5.701  0.00  0.00    +0.001 A 
ENDBRANCH   1   8
BRANCH   2  11
ATOM     11  S   UNL     1       2.550  -3.434   0.199  0.00  0.00    +0.100 S 
ATOM     12  O   UNL     1       3.389  -2.345   0.560  0.00  0.00    -0.146 OA
ATOM     13  O   UNL     1       1.165  -3.466   0.516  0.00  0.00    -0.146 OA
BRANCH  11  14
ATOM     14  C   UNL     1       3.263  -4.878   0.913  0.00  0.00    +0.113 A 
ATOM     15  C   UNL     1       2.496  -6.016   1.080  0.00  0.00    +0.031 A 
ATOM     16  C   UNL     1       3.054  -7.152   1.634  0.00  0.00    +0.024 A 
ATOM     17  C   UNL     1       4.384  -7.146   2.034  0.00  0.00    +0.025 A 
ATOM     18  C   UNL     1       5.150  -5.999   1.869  0.00  0.00    +0.024 A 
ATOM     19  C   UNL     1       4.588  -4.869   1.309  0.00  0.00    +0.031 A 
BRANCH  17  20
ATOM     20  N   UNL     1       4.950  -8.291   2.599  0.00  0.00    -0.358 N 
ATOM     21  H   UNL     1       6.003  -8.285   2.915  0.00  0.00    +0.142 HD
ATOM     22  H   UNL     1       4.342  -9.199   2.728  0.00  0.00    +0.142 HD
ENDBRANCH  17  20
ENDBRANCH  11  14
ENDBRANCH   2  11
BRANCH   3  23
ATOM     23  S   UNL     1       1.285  -0.229  -2.666  0.00  0.00    +0.074 S 
ATOM     24  O   UNL     1       0.291  -0.725  -3.551  0.00  0.00    -0.150 OA
ATOM     25  O   UNL     1       2.496   0.352  -3.129  0.00  0.00    -0.150 OA
BRANCH  23  26
ATOM     26  C   UNL     1       0.500   0.982  -1.654  0.00  0.00    +0.109 A 
ATOM     27  C   UNL     1      -0.831   0.834  -1.308  0.00  0.00    +0.030 A 
ATOM     28  C   UNL     1      -1.449   1.781  -0.515  0.00  0.00    +0.024 A 
ATOM     29  C   UNL     1      -0.733   2.883  -0.066  0.00  0.00    +0.025 A 
ATOM     30  C   UNL     1       0.604   3.028  -0.415  0.00  0.00    +0.024 A 
ATOM     31  C   UNL     1       1.216   2.077  -1.208  0.00  0.00    +0.030 A 
BRANCH  29  32
ATOM     32  N   UNL     1      -1.355   3.842   0.736  0.00  0.00    -0.358 N 
ATOM     33  H   UNL     1      -0.787   4.715   1.091  0.00  0.00    +0.142 HD
ATOM     34  H   UNL     1      -2.414   3.726   1.012  0.00  0.00    +0.142 HD
ENDBRANCH  29  32
ENDBRANCH  23  26
ENDBRANCH   3  23
TORSDOF 7
