REMARK  Name = ZINC32605578
REMARK  4 active torsions:
REMARK  status: ('A' for Active; 'I' for Inactive)
REMARK    1  A    between atoms: C_3  and  C_6
REMARK    2  A    between atoms: C_7  and  C_8
REMARK    3  A    between atoms: N_10  and  N_11
REMARK    4  A    between atoms: C_12  and  C_14
REMARK                            x       y       z     vdW  Elec       q    Type
REMARK                         _______ _______ _______ _____ _____    ______ ____
ROOT
ATOM      1  N   UNL     1      -6.081   3.040   0.079  0.00  0.00    -0.230 N 
ATOM      2  C   UNL     1      -4.953   3.777   0.072  0.00  0.00    +0.265 C 
ATOM      3  O   UNL     1      -5.021   4.992   0.079  0.00  0.00    -0.268 OA
ATOM      4  H   UNL     1      -6.020   1.942   0.073  0.00  0.00    +0.173 HD
ENDROOT
BRANCH   2   5
ATOM      5  C   UNL     1      -3.638   3.112   0.054  0.00  0.00    +0.101 A 
ATOM      6  C   UNL     1      -3.552   1.710   0.046  0.00  0.00    +0.100 A 
ATOM      7  N   UNL     1      -2.399   1.094   0.032  0.00  0.00    -0.360 N 
ATOM      8  C   UNL     1      -1.237   1.763   0.018  0.00  0.00    +0.050 A 
ATOM      9  C   UNL     1      -0.013   1.076   0.008  0.00  0.00    +0.028 A 
ATOM     10  C   UNL     1       1.157   1.774   0.001  0.00  0.00    +0.022 A 
ATOM     11  C   UNL     1       1.161   3.168   0.007  0.00  0.00    +0.042 A 
ATOM     12  C   UNL     1      -0.009   3.868   0.022  0.00  0.00    +0.033 A 
ATOM     13  C   UNL     1      -1.231   3.179   0.030  0.00  0.00    +0.047 A 
ATOM     14  C   UNL     1      -2.463   3.871   0.046  0.00  0.00    +0.202 A 
ATOM     15  O   UNL     1      -2.504   5.223   0.054  0.00  0.00    -0.286 OA
ATOM     16 CL   UNL     1       2.672   4.022  -0.003  0.00  0.00    -0.084 Cl
ATOM     17  H   UNL     1      -2.362  -0.005   0.030  0.00  0.00    +0.165 HD
ENDBRANCH   2   5
BRANCH   1  20
ATOM     18  C   UNL     1      -8.459   2.934   0.103  0.00  0.00    +0.253 C 
ATOM     19  O   UNL     1      -8.392   1.718   0.096  0.00  0.00    -0.269 OA
ATOM     20  N   UNL     1      -7.331   3.672   0.096  0.00  0.00    -0.231 N 
ATOM     21  H   UNL     1      -7.392   4.770   0.102  0.00  0.00    +0.173 HD
BRANCH  18  23
ATOM     22  C   UNL     1     -10.858   2.831   0.128  0.00  0.00    +0.051 C 
ATOM     23  C   UNL     1      -9.722   3.573   0.120  0.00  0.00    +0.072 C 
BRANCH  22  26
ATOM     24  C   UNL     1     -14.317   3.858   0.169  0.00  0.00    +0.042 A 
ATOM     25  C   UNL     1     -13.350   2.842   0.148  0.00  0.00    +0.049 A 
ATOM     26  C   UNL     1     -12.121   3.470   0.144  0.00  0.00    +0.128 A 
ATOM     27  O   UNL     1     -12.339   4.801   0.153  0.00  0.00    -0.464 OA
ATOM     28  C   UNL     1     -13.658   5.038   0.168  0.00  0.00    +0.195 A 
ENDBRANCH  22  26
ENDBRANCH  18  23
ENDBRANCH   1  20
TORSDOF 4
