REMARK  Name = ZINC12723308
REMARK  5 active torsions:
REMARK  status: ('A' for Active; 'I' for Inactive)
REMARK    1  A    between atoms: N_12  and  C_13
REMARK    2  A    between atoms: C_13  and  C_14
REMARK    3  A    between atoms: C_14  and  O_16
REMARK    4  A    between atoms: O_16  and  C_17
REMARK    5  A    between atoms: C_17  and  C_18
REMARK                            x       y       z     vdW  Elec       q    Type
REMARK                         _______ _______ _______ _____ _____    ______ ____
ROOT
ATOM      1  O   UNL     1       3.609   6.865  -3.186  0.00  0.00    -0.456 OA
ENDROOT
BRANCH   1   2
ATOM      2  C   UNL     1       4.094   7.931  -3.843  0.00  0.00    +0.325 C 
ATOM      3  O   UNL     1       4.241   8.982  -3.265  0.00  0.00    -0.249 OA
BRANCH   2   4
ATOM      4  C   UNL     1       4.455   7.816  -5.302  0.00  0.00    +0.224 C 
BRANCH   4  16
ATOM      5  C   UNL     1       6.529  12.851  -7.597  0.00  0.00    +0.001 A 
ATOM      6  C   UNL     1       6.867  12.768  -8.936  0.00  0.00    +0.002 A 
ATOM      7  C   UNL     1       6.703  11.566  -9.610  0.00  0.00    +0.030 A 
ATOM      8  C   UNL     1       6.210  10.482  -8.944  0.00  0.00    +0.123 A 
ATOM      9  C   UNL     1       5.852  10.536  -7.590  0.00  0.00    +0.043 A 
ATOM     10  C   UNL     1       6.031  11.758  -6.924  0.00  0.00    +0.013 A 
ATOM     11  C   UNL     1       5.352   9.244  -7.096  0.00  0.00    +0.150 C 
ATOM     12  N   UNL     1       5.283   8.239  -7.910  0.00  0.00    -0.113 NA
ATOM     13  S   UNL     1       5.844   8.804  -9.383  0.00  0.00    +0.101 S 
ATOM     14  O   UNL     1       7.075   8.150  -9.656  0.00  0.00    -0.146 OA
ATOM     15  O   UNL     1       4.747   8.821 -10.286  0.00  0.00    -0.146 OA
ATOM     16  N   UNL     1       4.957   9.105  -5.783  0.00  0.00    -0.317 N 
ATOM     17  H   UNL     1       5.011   9.861  -5.178  0.00  0.00    +0.148 HD
ENDBRANCH   4  16
ENDBRANCH   2   4
ENDBRANCH   1   2
BRANCH   1  18
ATOM     18  C   UNL     1       3.283   7.049  -1.783  0.00  0.00    +0.308 C 
BRANCH  18  19
ATOM     19  C   UNL     1       2.757   5.755  -1.217  0.00  0.00    +0.170 A 
ATOM     20  N   UNL     1       1.459   5.529  -1.272  0.00  0.00    -0.214 NA
ATOM     21  C   UNL     1       0.876   4.426  -0.807  0.00  0.00    +0.128 A 
ATOM     22  C   UNL     1       1.747   3.462  -0.223  0.00  0.00    +0.051 A 
ATOM     23  C   UNL     1       1.377   2.182   0.357  0.00  0.00    -0.025 A 
ATOM     24  C   UNL     1       2.383   1.428   0.856  0.00  0.00    -0.004 A 
ATOM     25  S   UNL     1       3.859   2.377   0.582  0.00  0.00    -0.073 S 
ATOM     26  C   UNL     1       3.129   3.779  -0.200  0.00  0.00    +0.114 A 
ATOM     27  N   UNL     1       3.623   4.901  -0.686  0.00  0.00    -0.221 NA
ATOM     28  C   UNL     1       2.273   0.080   1.500  0.00  0.00    +0.043 C 
ATOM     29  C   UNL     1       0.800  -0.174   1.850  0.00  0.00    +0.005 C 
ATOM     30  C   UNL     1      -0.060   0.172   0.631  0.00  0.00    +0.005 C 
ATOM     31  C   UNL     1      -0.065   1.685   0.412  0.00  0.00    +0.037 C 
ATOM     32  N   UNL     1      -0.491   4.229  -0.886  0.00  0.00    -0.343 N 
ATOM     33  H   UNL     1      -1.025   4.771  -1.487  0.00  0.00    +0.144 HD
ATOM     34  H   UNL     1      -0.915   3.547  -0.342  0.00  0.00    +0.144 HD
ENDBRANCH  18  19
ENDBRANCH   1  18
TORSDOF 5
