REMARK  Name = ZINC00136694
REMARK  2 active torsions:
REMARK  status: ('A' for Active; 'I' for Inactive)
REMARK    1  A    between atoms: C_8  and  C_12
REMARK    2  A    between atoms: C_8  and  O_21
REMARK                            x       y       z     vdW  Elec       q    Type
REMARK                         _______ _______ _______ _____ _____    ______ ____
ROOT
ATOM      1  C   UNL     1      -0.017   1.379   0.010  0.00  0.00    +0.017 A 
ATOM      2  C   UNL     1       1.164   2.093   0.002  0.00  0.00    +0.025 A 
ATOM      3  C   UNL     1       2.386   1.423  -0.013  0.00  0.00    +0.040 A 
ATOM      4  C   UNL     1       2.392   0.034  -0.021  0.00  0.00    +0.016 A 
ATOM      5  C   UNL     1       1.213  -0.676  -0.012  0.00  0.00    +0.024 A 
ATOM      6  C   UNL     1       0.002  -0.004   0.002  0.00  0.00    +0.018 A 
ATOM      7 BR   UNL     1      -1.621  -0.975   0.012  0.00  0.00    -0.050 Br
ATOM      8  C   UNL     1       3.844  -0.385  -0.038  0.00  0.00    +0.178 C 
ATOM      9  C   UNL     1       4.605   0.924  -0.038  0.00  0.00    +0.254 C 
ATOM     10  O   UNL     1       5.810   1.057  -0.049  0.00  0.00    -0.272 OA
ATOM     11  N   UNL     1       3.694   1.911  -0.024  0.00  0.00    -0.282 N 
ATOM     12  H   UNL     1       3.919   2.855  -0.022  0.00  0.00    +0.155 HD
ENDROOT
BRANCH   8  13
ATOM     13  C   UNL     1       4.156  -1.187  -1.303  0.00  0.00    +0.100 C 
ATOM     14  C   UNL     1       5.628  -1.658  -1.221  0.00  0.00    +0.015 C 
ATOM     15  C   UNL     1       6.128  -2.103  -2.617  0.00  0.00    +0.001 C 
ATOM     16  C   UNL     1       5.037  -2.833  -3.349  0.00  0.00    +0.000 C 
ATOM     17  C   UNL     1       4.447  -1.798  -4.297  0.00  0.00    +0.007 C 
ATOM     18  C   UNL     1       3.303  -1.058  -3.760  0.00  0.00    +0.075 C 
ATOM     19  C   UNL     1       3.796  -0.357  -2.473  0.00  0.00    +0.140 C 
ATOM     20  O   UNL     1       3.883   0.847  -2.423  0.00  0.00    -0.297 OA
ENDBRANCH   8  13
BRANCH   8  21
ATOM     21  O   UNL     1       4.159  -1.146   1.130  0.00  0.00    -0.374 OA
ATOM     22  H   UNL     1       4.008  -0.674   1.960  0.00  0.00    +0.211 HD
ENDBRANCH   8  21
TORSDOF 2
