REMARK  Name = ZINC02321095
REMARK  4 active torsions:
REMARK  status: ('A' for Active; 'I' for Inactive)
REMARK    1  A    between atoms: C_3  and  C_9
REMARK    2  A    between atoms: C_4  and  O_8
REMARK    3  A    between atoms: C_6  and  O_7
REMARK    4  A    between atoms: N_10  and  C_11
REMARK                            x       y       z     vdW  Elec       q    Type
REMARK                         _______ _______ _______ _____ _____    ______ ____
ROOT
ATOM      1  C   UNL     1       3.635   2.177  -0.021  0.00  0.00    +0.125 C 
ATOM      2  N   UNL     1       4.780   1.544  -0.036  0.00  0.00    -0.229 NA
ENDROOT
BRANCH   2   3
ATOM      3  C   UNL     1       5.943   2.245  -0.044  0.00  0.00    +0.194 A 
ATOM      4  N   UNL     1       6.122   3.551  -0.033  0.00  0.00    -0.221 NA
ATOM      5  C   UNL     1       7.347   4.113  -0.043  0.00  0.00    +0.081 A 
ATOM      6  C   UNL     1       7.677   5.489  -0.034  0.00  0.00    +0.030 A 
ATOM      7  C   UNL     1       8.975   5.895  -0.047  0.00  0.00    +0.017 A 
ATOM      8  C   UNL     1      10.023   4.985  -0.070  0.00  0.00    +0.019 A 
ATOM      9  C   UNL     1       9.743   3.630  -0.079  0.00  0.00    +0.032 A 
ATOM     10  C   UNL     1       8.436   3.210  -0.066  0.00  0.00    +0.042 A 
ATOM     11  S   UNL     1       7.622   1.631  -0.063  0.00  0.00    -0.048 S 
ATOM     12 BR   UNL     1      11.814   5.591  -0.088  0.00  0.00    -0.050 Br
ENDBRANCH   2   3
BRANCH   1  15
ATOM     13  C   UNL     1      -0.017   1.387   0.010  0.00  0.00    +0.046 A 
ATOM     14  C   UNL     1       1.151   2.094   0.002  0.00  0.00    +0.016 A 
ATOM     15  C   UNL     1       2.379   1.420  -0.013  0.00  0.00    +0.035 A 
ATOM     16  C   UNL     1       2.401   0.014  -0.021  0.00  0.00    +0.129 A 
ATOM     17  C   UNL     1       1.210  -0.689  -0.013  0.00  0.00    +0.091 A 
ATOM     18  C   UNL     1       0.002  -0.004   0.002  0.00  0.00    +0.120 A 
BRANCH  18  19
ATOM     19  O   UNL     1      -1.166  -0.695   0.010  0.00  0.00    -0.507 OA
ATOM     20  H   UNL     1      -1.513  -0.891  -0.871  0.00  0.00    +0.292 HD
ENDBRANCH  18  19
BRANCH  16  21
ATOM     21  O   UNL     1       3.585  -0.650  -0.036  0.00  0.00    -0.506 OA
ATOM     22  H   UNL     1       3.936  -0.847   0.843  0.00  0.00    +0.292 HD
ENDBRANCH  16  21
ENDBRANCH   1  15
TORSDOF 4
