REMARK  Name = ZINC01232652
REMARK  8 active torsions:
REMARK  status: ('A' for Active; 'I' for Inactive)
REMARK    1  A    between atoms: C_3  and  C_7
REMARK    2  A    between atoms: N_8  and  C_9
REMARK    3  A    between atoms: C_11  and  S_16
REMARK    4  A    between atoms: C_14  and  O_15
REMARK    5  A    between atoms: S_16  and  C_19
REMARK    6  A    between atoms: C_22  and  O_33
REMARK    7  A    between atoms: C_23  and  N_25
REMARK    8  A    between atoms: C_26  and  C_27
REMARK                            x       y       z     vdW  Elec       q    Type
REMARK                         _______ _______ _______ _____ _____    ______ ____
ROOT
ATOM      1  S   UNL     1       8.141   0.214   1.183  0.00  0.00    +0.025 S 
ATOM      2  O   UNL     1       9.321   0.054   0.408  0.00  0.00    -0.164 OA
ATOM      3  O   UNL     1       7.310   1.362   1.077  0.00  0.00    -0.164 OA
ENDROOT
BRANCH   1   6
ATOM      4  C   UNL     1       4.947  -2.201   0.755  0.00  0.00    +0.107 A 
ATOM      5  C   UNL     1       5.756  -1.096   1.027  0.00  0.00    +0.058 A 
ATOM      6  C   UNL     1       7.120  -1.181   0.839  0.00  0.00    +0.096 A 
ATOM      7  C   UNL     1       7.690  -2.356   0.382  0.00  0.00    +0.031 A 
ATOM      8  C   UNL     1       6.899  -3.457   0.109  0.00  0.00    +0.049 A 
ATOM      9  C   UNL     1       5.529  -3.391   0.297  0.00  0.00    +0.142 A 
BRANCH   4  11
ATOM     10  C   UNL     1       2.949  -1.039   0.600  0.00  0.00    +0.137 C 
ATOM     11  N   UNL     1       3.594  -2.124   0.939  0.00  0.00    -0.250 NA
BRANCH  10  14
ATOM     12  C   UNL     1      -0.612  -0.231   0.836  0.00  0.00    +0.019 A 
ATOM     13  C   UNL     1       0.696   0.120   0.486  0.00  0.00    +0.028 A 
ATOM     14  C   UNL     1       1.502  -0.957   0.796  0.00  0.00    +0.058 A 
ATOM     15  N   UNL     1       0.696  -1.940   1.325  0.00  0.00    -0.360 N 
ATOM     16  H   UNL     1       0.993  -2.810   1.633  0.00  0.00    +0.165 HD
ATOM     17  C   UNL     1      -0.585  -1.486   1.344  0.00  0.00    +0.083 A 
ENDBRANCH  10  14
ENDBRANCH   4  11
BRANCH   9  18
ATOM     18  O   UNL     1       4.752  -4.474   0.035  0.00  0.00    -0.505 OA
ATOM     19  H   UNL     1       4.428  -4.515  -0.876  0.00  0.00    +0.292 HD
ENDBRANCH   9  18
ENDBRANCH   1   6
BRANCH   1  20
ATOM     20  C   UNL     1       8.629   0.099   2.872  0.00  0.00    +0.096 A 
ATOM     21  C   UNL     1       7.847   0.679   3.856  0.00  0.00    +0.031 A 
ATOM     22  C   UNL     1       8.219   0.595   5.185  0.00  0.00    +0.049 A 
ATOM     23  C   UNL     1       9.380  -0.071   5.540  0.00  0.00    +0.142 A 
ATOM     24  C   UNL     1      10.174  -0.660   4.548  0.00  0.00    +0.107 A 
ATOM     25  C   UNL     1       9.785  -0.574   3.209  0.00  0.00    +0.058 A 
BRANCH  24  26
ATOM     26  N   UNL     1      11.322  -1.321   4.888  0.00  0.00    -0.250 NA
ATOM     27  C   UNL     1      12.464  -0.960   4.364  0.00  0.00    +0.137 C 
BRANCH  27  28
ATOM     28  C   UNL     1      12.554   0.277   3.589  0.00  0.00    +0.058 A 
ATOM     29  C   UNL     1      13.645   0.704   2.857  0.00  0.00    +0.028 A 
ATOM     30  C   UNL     1      13.297   1.930   2.280  0.00  0.00    +0.019 A 
ATOM     31  C   UNL     1      12.031   2.225   2.658  0.00  0.00    +0.083 A 
ATOM     32  N   UNL     1      11.566   1.224   3.451  0.00  0.00    -0.360 N 
ATOM     33  H   UNL     1      10.684   1.185   3.854  0.00  0.00    +0.165 HD
ENDBRANCH  27  28
ENDBRANCH  24  26
BRANCH  23  34
ATOM     34  O   UNL     1       9.747  -0.154   6.846  0.00  0.00    -0.505 OA
ATOM     35  H   UNL     1       9.396  -0.929   7.305  0.00  0.00    +0.292 HD
ENDBRANCH  23  34
ENDBRANCH   1  20
TORSDOF 8
