REMARK  Name = ZINC48396902
REMARK  3 active torsions:
REMARK  status: ('A' for Active; 'I' for Inactive)
REMARK    1  A    between atoms: C_1  and  C_2
REMARK    2  A    between atoms: C_8  and  N_10
REMARK    3  A    between atoms: C_16  and  C_19
REMARK                            x       y       z     vdW  Elec       q    Type
REMARK                         _______ _______ _______ _____ _____    ______ ____
ROOT
ATOM      1  N   UNL     1       2.118  -0.008   1.231  0.00  0.00    -0.296 N 
ATOM      2  C   UNL     1       2.795   0.128   2.388  0.00  0.00    +0.302 C 
ATOM      3  O   UNL     1       2.237  -0.083   3.448  0.00  0.00    -0.253 OA
ATOM      4  N   UNL     1       4.091   0.498   2.371  0.00  0.00    -0.286 N 
ATOM      5  C   UNL     1       4.746   0.873   1.111  0.00  0.00    +0.110 C 
ATOM      6  C   UNL     1       5.385   2.255   1.279  0.00  0.00    +0.032 C 
ATOM      7  C   UNL     1       6.319   2.236   2.491  0.00  0.00    +0.078 C 
ATOM      8  C   UNL     1       5.513   1.920   3.753  0.00  0.00    +0.032 C 
ATOM      9  C   UNL     1       4.874   0.540   3.614  0.00  0.00    +0.110 C 
ATOM     10  H   UNL     1       2.541   0.229   0.391  0.00  0.00    +0.151 HD
ENDROOT
BRANCH   1  17
ATOM     11  C   UNL     1      -0.016   1.516   0.002  0.00  0.00    +0.009 C 
ATOM     12  C   UNL     1       0.005  -0.013  -0.001  0.00  0.00    +0.006 C 
ATOM     13  C   UNL     1       0.722  -0.512  -1.257  0.00  0.00    +0.005 C 
ATOM     14  C   UNL     1       0.743  -2.042  -1.259  0.00  0.00    +0.000 C 
ATOM     15  C   UNL     1       1.481  -2.544  -0.016  0.00  0.00    +0.002 C 
ATOM     16  C   UNL     1       0.764  -2.045   1.240  0.00  0.00    +0.022 C 
ATOM     17  C   UNL     1       0.743  -0.515   1.242  0.00  0.00    +0.077 C 
ENDBRANCH   1  17
BRANCH   7  18
ATOM     18  C   UNL     1       6.975   3.584   2.639  0.00  0.00    +0.214 C 
ATOM     19  O   UNL     1       6.721   4.472   1.853  0.00  0.00    -0.276 OA
ATOM     20  N   UNL     1       7.845   3.804   3.646  0.00  0.00    -0.329 N 
ATOM     21  H   UNL     1       8.048   3.093   4.274  0.00  0.00    +0.145 HD
ATOM     22  H   UNL     1       8.267   4.671   3.741  0.00  0.00    +0.145 HD
ENDBRANCH   7  18
TORSDOF 2
