REMARK  Name = ZINC39686593
REMARK  9 active torsions:
REMARK  status: ('A' for Active; 'I' for Inactive)
REMARK    1  A    between atoms: C_1  and  C_2
REMARK    2  A    between atoms: C_2  and  C_4
REMARK    3  A    between atoms: C_2  and  N_13
REMARK    4  A    between atoms: C_4  and  C_5
REMARK    5  A    between atoms: C_10  and  O_11
REMARK    6  A    between atoms: O_11  and  C_12
REMARK    7  A    between atoms: C_14  and  C_16
REMARK    8  A    between atoms: C_27  and  C_29
REMARK    9  A    between atoms: C_35  and  C_37
REMARK                            x       y       z     vdW  Elec       q    Type
REMARK                         _______ _______ _______ _____ _____    ______ ____
ROOT
ATOM      1  C   UNL     1       0.108  -1.592  -3.768  0.00  0.00    +0.100 C 
ATOM      2  C   UNL     1       0.593  -3.043  -3.546  0.00  0.00    +0.121 C 
ATOM      3  N   UNL     1      -0.218  -3.856  -4.483  0.00  0.00    -0.300 N 
ATOM      4  C   UNL     1      -0.308  -3.026  -5.708  0.00  0.00    +0.115 C 
ATOM      5  C   UNL     1      -0.479  -1.585  -5.189  0.00  0.00    -0.004 C 
ATOM      6  C   UNL     1       0.292  -0.609  -6.074  0.00  0.00    -0.010 C 
ATOM      7  C   UNL     1      -0.346  -0.576  -7.465  0.00  0.00    -0.082 C 
ATOM      8  N   UNL     1      -1.750  -0.161  -7.352  0.00  0.00    +0.379 N 
ATOM      9  C   UNL     1      -2.505  -1.153  -6.577  0.00  0.00    -0.082 C 
ATOM     10  C   UNL     1      -1.958  -1.211  -5.148  0.00  0.00    -0.010 C 
ATOM     11  C   UNL     1      -0.753  -5.074  -4.269  0.00  0.00    +0.219 C 
ATOM     12  O   UNL     1      -1.314  -5.657  -5.173  0.00  0.00    -0.275 OA
ATOM     13  H   UNL     1      -1.798   0.734  -6.888  0.00  0.00    -0.086 HD
ATOM     14  H   UNL     1      -2.151  -0.080  -8.274  0.00  0.00    -0.086 HD
ENDROOT
BRANCH  11  15
ATOM     15  C   UNL     1      -0.655  -5.712  -2.907  0.00  0.00    +0.078 C 
ATOM     16  C   UNL     1       0.798  -6.107  -2.633  0.00  0.00    +0.032 C 
ATOM     17  C   UNL     1       0.900  -6.723  -1.234  0.00  0.00    +0.108 C 
ATOM     18  N   UNL     1      -0.057  -7.834  -1.136  0.00  0.00    -0.302 N 
ATOM     19  C   UNL     1      -1.466  -7.584  -1.467  0.00  0.00    +0.108 C 
ATOM     20  C   UNL     1      -1.542  -6.958  -2.863  0.00  0.00    +0.032 C 
ATOM     21  C   UNL     1       0.351  -9.060  -0.751  0.00  0.00    +0.212 C 
ATOM     22  O   UNL     1      -0.425  -9.991  -0.770  0.00  0.00    -0.276 OA
ATOM     23  C   UNL     1       1.772  -9.273  -0.296  0.00  0.00    +0.109 C 
ENDBRANCH  11  15
BRANCH   1  25
ATOM     24  N   UNL     1      -1.187   0.058  -2.458  0.00  0.00    -0.312 N 
ATOM     25  C   UNL     1      -0.953  -1.234  -2.760  0.00  0.00    +0.218 C 
ATOM     26  O   UNL     1      -1.597  -2.109  -2.220  0.00  0.00    -0.275 OA
ATOM     27  H   UNL     1      -0.725   0.760  -2.941  0.00  0.00    +0.149 HD
BRANCH  24  29
ATOM     28  C   UNL     1      -3.558   0.422  -1.976  0.00  0.00    +0.028 C 
ATOM     29  C   UNL     1      -2.140   0.402  -1.399  0.00  0.00    +0.074 C 
BRANCH  29  30
ATOM     30  C   UNL     1      -1.800   1.783  -0.836  0.00  0.00    +0.060 C 
BRANCH  30  31
ATOM     31  C   UNL     1      -0.482   1.718  -0.108  0.00  0.00    -0.004 A 
ATOM     32  C   UNL     1      -0.454   1.450   1.247  0.00  0.00    +0.007 A 
ATOM     33  C   UNL     1       0.755   1.390   1.916  0.00  0.00    +0.000 A 
ATOM     34  C   UNL     1       1.938   1.598   1.231  0.00  0.00    +0.004 A 
ATOM     35  C   UNL     1       1.915   1.866  -0.124  0.00  0.00    +0.046 A 
ATOM     36  C   UNL     1       0.703   1.921  -0.798  0.00  0.00    +0.123 A 
BRANCH  36  37
ATOM     37  O   UNL     1       0.678   2.179  -2.132  0.00  0.00    -0.495 OA
ATOM     38  C   UNL     1       1.924   2.498  -2.755  0.00  0.00    +0.277 C 
ENDBRANCH  36  37
ENDBRANCH  30  31
ENDBRANCH  29  30
ENDBRANCH  24  29
ENDBRANCH   1  25
TORSDOF 6
