REMARK  Name = ZINC15202447
REMARK  4 active torsions:
REMARK  status: ('A' for Active; 'I' for Inactive)
REMARK    1  A    between atoms: C_1  and  C_2
REMARK    2  A    between atoms: C_2  and  C_15
REMARK    3  A    between atoms: C_4  and  C_10
REMARK    4  A    between atoms: C_4  and  O_14
REMARK                            x       y       z     vdW  Elec       q    Type
REMARK                         _______ _______ _______ _____ _____    ______ ____
ROOT
ATOM      1  C   UNL     1      -0.458   3.064   1.610  0.00  0.00    +0.034 C 
ATOM      2  C   UNL     1      -0.848   1.626   1.264  0.00  0.00    +0.063 C 
ATOM      3  C   UNL     1       0.214   0.970   0.339  0.00  0.00    +0.094 C 
ATOM      4  C   UNL     1      -0.245   1.474  -1.050  0.00  0.00    +0.249 C 
ATOM      5  N   UNL     1      -1.651   1.872  -0.877  0.00  0.00    -0.181 N 
ATOM      6  N   UNL     1      -2.059   1.595   0.402  0.00  0.00    -0.224 NA
ATOM      7  C   UNL     1      -2.423   2.427  -1.833  0.00  0.00    +0.316 C 
ATOM      8  O   UNL     1      -1.965   2.632  -2.940  0.00  0.00    -0.251 OA
ATOM      9  N   UNL     1      -3.702   2.753  -1.561  0.00  0.00    -0.312 N 
ATOM     10  H   UNL     1      -2.514   0.695   0.450  0.00  0.00    +0.146 HD
ATOM     11  H   UNL     1      -4.067   2.589  -0.678  0.00  0.00    +0.147 HD
ATOM     12  H   UNL     1      -4.257   3.152  -2.249  0.00  0.00    +0.147 HD
ENDROOT
BRANCH   2  13
ATOM     13  C   UNL     1      -1.053   0.809   2.514  0.00  0.00    -0.026 A 
ATOM     14  C   UNL     1      -0.012   0.058   3.026  0.00  0.00    +0.005 A 
ATOM     15  C   UNL     1      -0.198  -0.687   4.176  0.00  0.00    +0.000 A 
ATOM     16  C   UNL     1      -1.429  -0.689   4.806  0.00  0.00    +0.000 A 
ATOM     17  C   UNL     1      -2.471   0.058   4.290  0.00  0.00    +0.000 A 
ATOM     18  C   UNL     1      -2.283   0.807   3.144  0.00  0.00    +0.005 A 
ENDBRANCH   2  13
BRANCH   4  19
ATOM     19  C   UNL     1       0.597   2.676  -1.482  0.00  0.00    +0.437 C 
ATOM     20  F   UNL     1       1.954   2.343  -1.416  0.00  0.00    -0.166 F 
ATOM     21  F   UNL     1       0.267   3.029  -2.796  0.00  0.00    -0.166 F 
ATOM     22  F   UNL     1       0.339   3.756  -0.631  0.00  0.00    -0.166 F 
ENDBRANCH   4  19
BRANCH   4  23
ATOM     23  O   UNL     1      -0.142   0.425  -2.016  0.00  0.00    -0.363 OA
ATOM     24  H   UNL     1      -0.416   0.683  -2.907  0.00  0.00    +0.212 HD
ENDBRANCH   4  23
TORSDOF 3
