REMARK  Name = ZINC00002158
REMARK  5 active torsions:
REMARK  status: ('A' for Active; 'I' for Inactive)
REMARK    1  A    between atoms: N_9  and  C1*_12
REMARK    2  A    between atoms: C2*_14  and  O2*_24
REMARK    3  A    between atoms: C3*_16  and  O3*_23
REMARK    4  A    between atoms: C4*_18  and  C5*_21
REMARK    5  A    between atoms: C5*_21  and  O5*_22
REMARK                            x       y       z     vdW  Elec       q    Type
REMARK                         _______ _______ _______ _____ _____    ______ ____
ROOT
ATOM      1  C1* UNL     1      -2.971   5.624   0.061  0.00  0.00    +0.253 C 
ATOM      2  C2* UNL     1      -3.007   6.166   1.508  0.00  0.00    +0.195 C 
ATOM      3  C3* UNL     1      -4.264   7.064   1.541  0.00  0.00    +0.178 C 
ATOM      4  C4* UNL     1      -4.838   6.959   0.110  0.00  0.00    +0.177 C 
ATOM      5  O4* UNL     1      -4.338   5.702  -0.397  0.00  0.00    -0.346 OA
ENDROOT
BRANCH   1  14
ATOM      6  C   UNL     1       1.099   3.774   0.011  0.00  0.00    +0.199 A 
ATOM      7  N   UNL     1       1.129   2.418   0.004  0.00  0.00    -0.338 N 
ATOM      8  H   UNL     1       1.981   1.954  -0.006  0.00  0.00    +0.167 HD
ATOM      9  C   UNL     1      -0.021   1.708   0.011  0.00  0.00    +0.115 A 
ATOM     10  S   UNL     1       0.002  -0.004   0.002  0.00  0.00    -0.030 S 
ATOM     11  C   UNL     1      -1.246   2.418   0.021  0.00  0.00    +0.138 A 
ATOM     12  C   UNL     1      -1.205   3.816   0.034  0.00  0.00    +0.167 A 
ATOM     13  N   UNL     1      -0.019   4.444   0.026  0.00  0.00    -0.218 NA
ATOM     14  N   UNL     1      -2.507   4.235   0.049  0.00  0.00    -0.286 N 
ATOM     15  C   UNL     1      -3.295   3.123   0.050  0.00  0.00    +0.203 A 
ATOM     16  N   UNL     1      -2.549   2.055   0.037  0.00  0.00    -0.231 NA
ENDBRANCH   1  14
BRANCH   3  17
ATOM     17  O3* UNL     1      -3.906   8.415   1.842  0.00  0.00    -0.386 OA
ATOM     18  H3* UNL     1      -4.658   9.022   1.875  0.00  0.00    +0.210 HD
ENDBRANCH   3  17
BRANCH   2  19
ATOM     19  O2* UNL     1      -1.835   6.935   1.784  0.00  0.00    -0.385 OA
ATOM     20  H2* UNL     1      -1.806   7.299   2.679  0.00  0.00    +0.210 HD
ENDBRANCH   2  19
BRANCH   4  21
ATOM     21  C5* UNL     1      -6.367   6.947   0.150  0.00  0.00    +0.190 C 
BRANCH  21  22
ATOM     22  O5* UNL     1      -6.878   6.967  -1.185  0.00  0.00    -0.392 OA
ATOM     23  H5* UNL     1      -7.844   6.961  -1.236  0.00  0.00    +0.210 HD
ENDBRANCH  21  22
ENDBRANCH   4  21
TORSDOF 5
