REMARK  Name = ZINC23479547
REMARK  8 active torsions:
REMARK  status: ('A' for Active; 'I' for Inactive)
REMARK    1  A    between atoms: C_1  and  C_2
REMARK    2  A    between atoms: C_7  and  N_12
REMARK    3  A    between atoms: C_9  and  C_11
REMARK    4  A    between atoms: C_13  and  C_15
REMARK    5  A    between atoms: C_15  and  O_16
REMARK    6  A    between atoms: O_16  and  C_17
REMARK    7  A    between atoms: C_17  and  C_19
REMARK    8  A    between atoms: C_21  and  N_27
REMARK                            x       y       z     vdW  Elec       q    Type
REMARK                         _______ _______ _______ _____ _____    ______ ____
ROOT
ATOM      1  O   UNL     1      -1.190   1.868   0.018  0.00  0.00    -0.451 OA
ENDROOT
BRANCH   1   2
ATOM      2  C   UNL     1      -0.014   1.210   0.009  0.00  0.00    +0.360 C 
ATOM      3  O   UNL     1       0.002  -0.004   0.002  0.00  0.00    -0.243 OA
BRANCH   2   4
ATOM      4  C   UNL     1       1.256   1.967   0.001  0.00  0.00    +0.169 A 
ATOM      5  C   UNL     1       2.468   1.281  -0.009  0.00  0.00    +0.095 A 
ATOM      6  C   UNL     1       3.658   2.010  -0.021  0.00  0.00    +0.067 A 
ATOM      7  C   UNL     1       3.581   3.402  -0.013  0.00  0.00    +0.100 A 
ATOM      8  C   UNL     1       2.337   4.012   0.002  0.00  0.00    +0.150 A 
ATOM      9  N   UNL     1       1.231   3.297   0.008  0.00  0.00    -0.226 NA
ATOM     10 CL   UNL     1       2.234   5.745   0.013  0.00  0.00    -0.060 Cl
ATOM     11 CL   UNL     1       5.028   4.360  -0.021  0.00  0.00    -0.078 Cl
ATOM     12 CL   UNL     1       2.498  -0.455  -0.011  0.00  0.00    -0.079 Cl
BRANCH   6  13
ATOM     13  N   UNL     1       4.892   1.363  -0.036  0.00  0.00    -0.356 N 
ATOM     14  H   UNL     1       5.821   1.951  -0.046  0.00  0.00    +0.142 HD
ATOM     15  H   UNL     1       4.936   0.264  -0.039  0.00  0.00    +0.142 HD
ENDBRANCH   6  13
ENDBRANCH   2   4
ENDBRANCH   1   2
BRANCH   1  16
ATOM     16  C   UNL     1      -2.397   1.061   0.019  0.00  0.00    +0.328 C 
BRANCH  16  18
ATOM     17  N   UNL     1      -4.843   1.430   0.033  0.00  0.00    -0.309 N 
ATOM     18  C   UNL     1      -3.604   1.962   0.030  0.00  0.00    +0.251 C 
ATOM     19  O   UNL     1      -3.462   3.167   0.036  0.00  0.00    -0.272 OA
ATOM     20  H   UNL     1      -4.972   0.338   0.028  0.00  0.00    +0.149 HD
BRANCH  17  26
ATOM     21  C   UNL     1      -9.630   1.744  -1.162  0.00  0.00    +0.008 C 
ATOM     22  C   UNL     1      -8.436   2.483  -0.554  0.00  0.00    -0.009 C 
ATOM     23  C   UNL     1      -8.763   2.881   0.887  0.00  0.00    +0.003 C 
ATOM     24  C   UNL     1      -7.569   3.620   1.495  0.00  0.00    +0.002 C 
ATOM     25  C   UNL     1      -6.343   2.705   1.484  0.00  0.00    +0.022 C 
ATOM     26  C   UNL     1      -6.016   2.307   0.043  0.00  0.00    +0.076 C 
ATOM     27  C   UNL     1      -7.210   1.568  -0.565  0.00  0.00    +0.009 C 
ATOM     28  C   UNL     1      -6.884   1.170  -2.006  0.00  0.00    +0.009 C 
ENDBRANCH  17  26
ENDBRANCH  16  18
ENDBRANCH   1  16
TORSDOF 6
