REMARK  Name = ZINC37063341
REMARK  8 active torsions:
REMARK  status: ('A' for Active; 'I' for Inactive)
REMARK    1  A    between atoms: C_1  and  C_2
REMARK    2  A    between atoms: C_5  and  N_24
REMARK    3  A    between atoms: C_6  and  C_23
REMARK    4  A    between atoms: C_7  and  S_8
REMARK    5  A    between atoms: S_8  and  N_11
REMARK    6  A    between atoms: N_11  and  C_12
REMARK    7  A    between atoms: C_17  and  C_22
REMARK    8  A    between atoms: C_19  and  C_21
REMARK                            x       y       z     vdW  Elec       q    Type
REMARK                         _______ _______ _______ _____ _____    ______ ____
ROOT
ATOM      1  S   UNL     1       0.612   0.012   2.687  0.00  0.00    +0.059 S 
ATOM      2  O   UNL     1       1.344  -0.896   3.499  0.00  0.00    -0.153 OA
ATOM      3  O   UNL     1       1.161   1.242   2.235  0.00  0.00    -0.153 OA
ENDROOT
BRANCH   1  10
ATOM      4  C   UNL     1      -0.340   1.310   0.128  0.00  0.00    +0.046 C 
ATOM      5  C   UNL     1      -0.300  -0.197   0.123  0.00  0.00    -0.024 A 
ATOM      6  C   UNL     1      -0.680  -0.893  -1.010  0.00  0.00    +0.007 A 
ATOM      7  C   UNL     1      -0.645  -2.273  -1.018  0.00  0.00    +0.023 A 
ATOM      8  C   UNL     1      -0.227  -2.963   0.113  0.00  0.00    +0.029 A 
ATOM      9  C   UNL     1       0.154  -2.261   1.249  0.00  0.00    -0.003 A 
ATOM     10  C   UNL     1       0.122  -0.880   1.249  0.00  0.00    +0.113 A 
ATOM     11  C   UNL     1       0.608  -3.004   2.479  0.00  0.00    +0.048 C 
BRANCH   8  12
ATOM     12  N   UNL     1      -0.190  -4.359   0.108  0.00  0.00    -0.358 N 
ATOM     13  H   UNL     1      -0.457  -4.848  -0.686  0.00  0.00    +0.142 HD
ATOM     14  H   UNL     1       0.102  -4.839   0.899  0.00  0.00    +0.142 HD
ENDBRANCH   8  12
ENDBRANCH   1  10
BRANCH   1  15
ATOM     15  N   UNL     1      -0.767   0.389   3.523  0.00  0.00    -0.187 NA
ATOM     16  H   UNL     1      -1.006   1.317   3.673  0.00  0.00    +0.148 HD
BRANCH  15  17
ATOM     17  C   UNL     1      -1.627  -0.680   4.037  0.00  0.00    +0.080 C 
ATOM     18  C   UNL     1      -2.749  -0.959   3.034  0.00  0.00    +0.020 C 
ATOM     19  C   UNL     1      -3.647  -2.076   3.571  0.00  0.00    +0.002 C 
ATOM     20  C   UNL     1      -4.253  -1.644   4.908  0.00  0.00    +0.003 C 
ATOM     21  C   UNL     1      -3.132  -1.366   5.910  0.00  0.00    -0.010 C 
ATOM     22  C   UNL     1      -2.234  -0.249   5.374  0.00  0.00    +0.007 C 
ATOM     23  C   UNL     1      -3.064   1.020   5.171  0.00  0.00    +0.009 C 
ATOM     24  C   UNL     1      -3.738  -0.934   7.247  0.00  0.00    +0.008 C 
ENDBRANCH  15  17
ENDBRANCH   1  15
TORSDOF 4
