REMARK  Name = ZINC33810390
REMARK  8 active torsions:
REMARK  status: ('A' for Active; 'I' for Inactive)
REMARK    1  A    between atoms: C_1  and  C_2
REMARK    2  A    between atoms: C_2  and  C_3
REMARK    3  A    between atoms: C_6  and  C_9
REMARK    4  A    between atoms: C_14  and  S_18
REMARK    5  A    between atoms: S_18  and  C_19
REMARK    6  A    between atoms: C_19  and  C_20
REMARK    7  A    between atoms: C_28  and  C_30
REMARK    8  A    between atoms: C_28  and  C_31
REMARK                            x       y       z     vdW  Elec       q    Type
REMARK                         _______ _______ _______ _____ _____    ______ ____
ROOT
ATOM      1  C   UNL     1       3.687  -0.664  -0.026  0.00  0.00    +0.092 C 
ATOM      2  C   UNL     1       2.358   0.034  -0.017  0.00  0.00    +0.069 A 
ATOM      3  C   UNL     1       1.197  -0.675  -0.011  0.00  0.00    +0.135 A 
ATOM      4  N   UNL     1       0.002  -0.004   0.002  0.00  0.00    -0.208 NA
ATOM      5  C   UNL     1      -0.016   1.358   0.009  0.00  0.00    +0.171 A 
ATOM      6  N   UNL     1       1.101   2.055   0.003  0.00  0.00    -0.302 N 
ATOM      7  C   UNL     1       2.296   1.444  -0.012  0.00  0.00    +0.258 A 
ATOM      8  O   UNL     1       3.324   2.105  -0.021  0.00  0.00    -0.267 OA
ATOM      9  N   UNL     1       1.225  -2.050  -0.022  0.00  0.00    -0.302 N 
ATOM     10  C   UNL     1       2.347  -2.721  -0.426  0.00  0.00    +0.017 C 
ATOM     11  C   UNL     1       3.546  -2.102  -0.456  0.00  0.00    +0.024 C 
ATOM     12  C   UNL     1       4.700  -2.780  -0.885  0.00  0.00    +0.162 C 
ATOM     13  O   UNL     1       5.766  -2.195  -0.893  0.00  0.00    -0.292 OA
ATOM     14  C   UNL     1       4.643  -4.214  -1.333  0.00  0.00    +0.086 C 
ATOM     15  C   UNL     1       3.249  -4.504  -1.901  0.00  0.00    -0.023 C 
ATOM     16  C   UNL     1       2.209  -4.169  -0.830  0.00  0.00    +0.058 C 
ATOM     17  C   UNL     1       3.009  -3.638  -3.140  0.00  0.00    +0.011 C 
ATOM     18  C   UNL     1       3.146  -5.982  -2.280  0.00  0.00    +0.011 C 
ATOM     19  H   UNL     1       0.339  -2.620   0.295  0.00  0.00    +0.153 HD
ATOM     20  H   UNL     1       1.064   3.154   0.009  0.00  0.00    +0.171 HD
ENDROOT
BRANCH   1  24
ATOM     21  C   UNL     1       5.359  -0.534   3.903  0.00  0.00    -0.048 A 
ATOM     22  C   UNL     1       6.019   0.071   2.850  0.00  0.00    +0.004 A 
ATOM     23  C   UNL     1       5.478   0.029   1.579  0.00  0.00    +0.005 A 
ATOM     24  C   UNL     1       4.277  -0.618   1.360  0.00  0.00    -0.035 A 
ATOM     25  C   UNL     1       3.613  -1.219   2.414  0.00  0.00    +0.005 A 
ATOM     26  C   UNL     1       4.157  -1.181   3.684  0.00  0.00    +0.004 A 
BRANCH  21  28
ATOM     27  C   UNL     1       5.439   0.756   6.019  0.00  0.00    +0.009 C 
ATOM     28  C   UNL     1       5.949  -0.488   5.289  0.00  0.00    +0.032 C 
ENDBRANCH  21  28
ENDBRANCH   1  24
BRANCH   5  29
ATOM     29  S   UNL     1      -1.563   2.203   0.021  0.00  0.00    -0.084 S 
BRANCH  29  30
ATOM     30  C   UNL     1      -0.984   3.918   0.028  0.00  0.00    +0.104 C 
BRANCH  30  31
ATOM     31  C   UNL     1      -2.170   4.848   0.039  0.00  0.00    -0.023 C 
ATOM     32  C   UNL     1      -2.384   5.624   1.072  0.00  0.00    +0.005 C 
ENDBRANCH  30  31
ENDBRANCH  29  30
ENDBRANCH   5  29
TORSDOF 5
