REMARK  Name = ZINC20674047
REMARK  4 active torsions:
REMARK  status: ('A' for Active; 'I' for Inactive)
REMARK    1  A    between atoms: C_4  and  N_11
REMARK    2  A    between atoms: C_5  and  C_7
REMARK    3  A    between atoms: C_12  and  C_14
REMARK    4  A    between atoms: C_22  and  N_32
REMARK                            x       y       z     vdW  Elec       q    Type
REMARK                         _______ _______ _______ _____ _____    ______ ____
ROOT
ATOM      1  C   UNL     1       6.083  -0.701  -0.278  0.00  0.00    +0.121 C 
ATOM      2  C   UNL     1       6.294  -1.585   0.952  0.00  0.00    +0.113 C 
ATOM      3  C   UNL     1       6.626  -0.727   2.144  0.00  0.00    +0.219 C 
ATOM      4  O   UNL     1       6.192  -1.025   3.237  0.00  0.00    -0.275 OA
ATOM      5  N   UNL     1       7.400   0.364   2.011  0.00  0.00    -0.270 N 
ATOM      6  C   UNL     1       7.818   0.789   0.758  0.00  0.00    +0.136 A 
ATOM      7  C   UNL     1       7.209   0.291  -0.385  0.00  0.00    +0.045 A 
ATOM      8  C   UNL     1       7.659   0.725  -1.627  0.00  0.00    +0.127 A 
ATOM      9  N   UNL     1       8.646   1.617  -1.676  0.00  0.00    -0.199 NA
ATOM     10  C   UNL     1       9.188   2.090  -0.564  0.00  0.00    +0.221 A 
ATOM     11  N   UNL     1       8.786   1.692   0.633  0.00  0.00    -0.199 NA
ATOM     12  N   UNL     1      10.204   3.025  -0.656  0.00  0.00    -0.300 N 
ATOM     13  C   UNL     1      10.834   3.567   0.556  0.00  0.00    +0.108 C 
ATOM     14  C   UNL     1      12.350   3.377   0.451  0.00  0.00    +0.019 C 
ATOM     15  C   UNL     1      12.850   4.004  -0.852  0.00  0.00    +0.003 C 
ATOM     16  C   UNL     1      12.192   3.304  -2.043  0.00  0.00    +0.019 C 
ATOM     17  C   UNL     1      10.678   3.489  -1.967  0.00  0.00    +0.108 C 
ATOM     18  H   UNL     1       7.669   0.861   2.800  0.00  0.00    +0.156 HD
ENDROOT
BRANCH   1  20
ATOM     19  N   UNL     1       3.622  -0.651  -0.037  0.00  0.00    -0.284 N 
ATOM     20  C   UNL     1       4.775   0.037  -0.147  0.00  0.00    +0.225 C 
ATOM     21  O   UNL     1       4.761   1.250  -0.141  0.00  0.00    -0.275 OA
ATOM     22  H   UNL     1       3.638  -1.619   0.023  0.00  0.00    +0.155 HD
BRANCH  19  26
ATOM     23  C   UNL     1      -0.015   1.381   0.041  0.00  0.00    +0.001 A 
ATOM     24  C   UNL     1       1.104   1.945   0.627  0.00  0.00    +0.002 A 
ATOM     25  C   UNL     1       2.311   1.274   0.603  0.00  0.00    +0.024 A 
ATOM     26  C   UNL     1       2.400   0.031  -0.011  0.00  0.00    +0.045 A 
ATOM     27  C   UNL     1       1.275  -0.532  -0.598  0.00  0.00    +0.076 A 
ATOM     28  C   UNL     1       0.071   0.144  -0.570  0.00  0.00    +0.014 A 
BRANCH  27  29
ATOM     29  C   UNL     1       1.368  -1.881  -1.264  0.00  0.00    +0.419 C 
ATOM     30  F   UNL     1       0.115  -2.234  -1.778  0.00  0.00    -0.166 F 
ATOM     31  F   UNL     1       2.299  -1.822  -2.307  0.00  0.00    -0.166 F 
ATOM     32  F   UNL     1       1.775  -2.837  -0.328  0.00  0.00    -0.166 F 
ENDBRANCH  27  29
ENDBRANCH  19  26
ENDBRANCH   1  20
BRANCH   8  33
ATOM     33  N   UNL     1       7.090   0.237  -2.793  0.00  0.00    -0.343 N 
ATOM     34  H   UNL     1       6.371  -0.413  -2.748  0.00  0.00    +0.144 HD
ATOM     35  H   UNL     1       7.410   0.546  -3.655  0.00  0.00    +0.144 HD
ENDBRANCH   8  33
TORSDOF 4
