REMARK  Name = ZINC39000113
REMARK  7 active torsions:
REMARK  status: ('A' for Active; 'I' for Inactive)
REMARK    1  A    between atoms: C_1  and  C_2
REMARK    2  A    between atoms: C_5  and  C_8
REMARK    3  A    between atoms: C_8  and  S_9
REMARK    4  A    between atoms: S_9  and  C_10
REMARK    5  A    between atoms: C_14  and  C_18
REMARK    6  A    between atoms: N_16  and  N_17
REMARK    7  A    between atoms: C_21  and  C_24
REMARK                            x       y       z     vdW  Elec       q    Type
REMARK                         _______ _______ _______ _____ _____    ______ ____
ROOT
ATOM      1  C   UNL     1       1.628  -6.666  -0.043  0.00  0.00    +0.214 C 
ATOM      2  N   UNL     1       0.855  -7.117   1.137  0.00  0.00    -0.228 NA
ATOM      3  N   UNL     1       0.051  -8.245   0.640  0.00  0.00    -0.234 NA
ATOM      4  C   UNL     1      -0.330  -7.808  -0.728  0.00  0.00    +0.185 C 
ATOM      5  N   UNL     1       0.873  -7.105  -1.235  0.00  0.00    -0.197 NA
ATOM      6  H   UNL     1       1.470  -7.411   1.881  0.00  0.00    +0.143 HD
ATOM      7  H   UNL     1       0.598  -9.093   0.611  0.00  0.00    +0.143 HD
ENDROOT
BRANCH   4   8
ATOM      8  C   UNL     1      -0.654  -9.019  -1.605  0.00  0.00    +0.187 C 
ATOM      9  C   UNL     1      -1.871  -9.756  -1.074  0.00  0.00    +0.034 C 
ATOM     10  C   UNL     1      -1.400 -10.981  -0.771  0.00  0.00    +0.091 C 
ATOM     11  N   UNL     1      -0.073 -11.062  -1.053  0.00  0.00    -0.154 NA
ATOM     12  N   UNL     1       0.417 -10.026  -1.518  0.00  0.00    -0.176 NA
BRANCH  10  13
ATOM     13  C   UNL     1      -2.215 -12.086  -0.209  0.00  0.00    +0.002 A 
ATOM     14  C   UNL     1      -3.573 -11.897   0.038  0.00  0.00    +0.013 A 
ATOM     15  C   UNL     1      -4.327 -12.928   0.560  0.00  0.00    +0.039 A 
ATOM     16  C   UNL     1      -3.736 -14.149   0.840  0.00  0.00    +0.123 A 
ATOM     17  C   UNL     1      -2.385 -14.341   0.597  0.00  0.00    +0.039 A 
ATOM     18  C   UNL     1      -1.625 -13.318   0.068  0.00  0.00    +0.013 A 
ATOM     19  F   UNL     1      -4.478 -15.155   1.352  0.00  0.00    -0.205 F 
ENDBRANCH  10  13
ENDBRANCH   4   8
BRANCH   5  20
ATOM     20  N   UNL     1       1.678  -7.984  -2.068  0.00  0.00    -0.264 NA
ATOM     21  H   UNL     1       2.514  -7.515  -2.384  0.00  0.00    +0.137 HD
ATOM     22  H   UNL     1       1.905  -8.837  -1.580  0.00  0.00    +0.137 HD
ENDBRANCH   5  20
BRANCH   1  23
ATOM     23  S   UNL     1       1.777  -4.858  -0.034  0.00  0.00    -0.119 S 
BRANCH  23  24
ATOM     24  C   UNL     1       0.059  -4.275  -0.021  0.00  0.00    +0.107 C 
BRANCH  24  29
ATOM     25  C   UNL     1      -0.018   1.503   0.010  0.00  0.00    +0.044 C 
ATOM     26  C   UNL     1       0.002  -0.004   0.002  0.00  0.00    -0.050 A 
ATOM     27  C   UNL     1       0.006  -0.689  -1.199  0.00  0.00    +0.003 A 
ATOM     28  C   UNL     1       0.025  -2.071  -1.206  0.00  0.00    +0.005 A 
ATOM     29  C   UNL     1       0.040  -2.768  -0.013  0.00  0.00    -0.037 A 
ATOM     30  C   UNL     1       0.037  -2.084   1.188  0.00  0.00    +0.005 A 
ATOM     31  C   UNL     1       0.023  -0.702   1.195  0.00  0.00    +0.003 A 
ENDBRANCH  24  29
ENDBRANCH  23  24
ENDBRANCH   1  23
TORSDOF 6
