REMARK  Name = ZINC39699851
REMARK  3 active torsions:
REMARK  status: ('A' for Active; 'I' for Inactive)
REMARK    1  A    between atoms: N_15  and  N_16
REMARK    2  A    between atoms: C_17  and  C_18
REMARK    3  A    between atoms: C_23  and  O_24
REMARK                            x       y       z     vdW  Elec       q    Type
REMARK                         _______ _______ _______ _____ _____    ______ ____
ROOT
ATOM      1  C   UNL     1      -0.016   1.348   0.009  0.00  0.00    +0.001 A 
ATOM      2  C   UNL     1       1.156   2.116   0.002  0.00  0.00    +0.002 A 
ATOM      3  C   UNL     1       2.382   1.544  -0.018  0.00  0.00    +0.026 A 
ATOM      4  C   UNL     1       2.490   0.081  -0.034  0.00  0.00    +0.046 A 
ATOM      5  N   UNL     1       3.530  -0.719  -0.023  0.00  0.00    -0.358 N 
ATOM      6  C   UNL     1       3.070  -2.089  -0.174  0.00  0.00    +0.253 C 
ATOM      7  C   UNL     1       1.561  -2.038  -0.014  0.00  0.00    +0.115 C 
ATOM      8  C   UNL     1       1.230  -0.705  -0.014  0.00  0.00    +0.025 A 
ATOM      9  C   UNL     1       0.002  -0.004   0.002  0.00  0.00    +0.012 A 
ATOM     10  N   UNL     1       0.842  -3.139   0.220  0.00  0.00    -0.171 NA
ATOM     11  N   UNL     1       1.473  -4.102   0.821  0.00  0.00    -0.247 N 
ATOM     12  C   UNL     1       2.754  -3.971   1.242  0.00  0.00    +0.227 C 
ATOM     13  N   UNL     1       3.565  -3.019   0.840  0.00  0.00    -0.220 NA
ATOM     14  N   UNL     1       3.237  -4.895   2.147  0.00  0.00    -0.206 N 
ATOM     15  H   UNL     1       2.664  -5.611   2.461  0.00  0.00    +0.177 HD
ATOM     16  H   UNL     1       1.012  -4.942   0.974  0.00  0.00    +0.192 HD
ATOM     17  H   UNL     1       4.455  -0.442   0.071  0.00  0.00    +0.162 HD
ENDROOT
BRANCH  14  18
ATOM     18  N   UNL     1       4.556  -4.798   2.609  0.00  0.00    -0.187 NA
ATOM     19  C   UNL     1       5.011  -5.667   3.460  0.00  0.00    +0.142 C 
BRANCH  19  20
ATOM     20  C   UNL     1       6.398  -5.565   3.947  0.00  0.00    +0.038 A 
ATOM     21  C   UNL     1       6.894  -6.502   4.858  0.00  0.00    +0.028 A 
ATOM     22  C   UNL     1       8.193  -6.401   5.310  0.00  0.00    +0.020 A 
ATOM     23  C   UNL     1       9.009  -5.374   4.865  0.00  0.00    +0.034 A 
ATOM     24  C   UNL     1       8.530  -4.441   3.963  0.00  0.00    +0.061 A 
ATOM     25  C   UNL     1       7.229  -4.532   3.494  0.00  0.00    +0.139 A 
ATOM     26 BR   UNL     1       9.655  -3.043   3.365  0.00  0.00    -0.046 Br
ATOM     27 BR   UNL     1       8.863  -7.669   6.543  0.00  0.00    -0.050 Br
BRANCH  25  28
ATOM     28  O   UNL     1       6.760  -3.619   2.604  0.00  0.00    -0.505 OA
ATOM     29  H   UNL     1       6.352  -2.844   3.014  0.00  0.00    +0.292 HD
ENDBRANCH  25  28
ENDBRANCH  19  20
ENDBRANCH  14  18
TORSDOF 3
