REMARK  Name = ZINC00488152
REMARK  6 active torsions:
REMARK  status: ('A' for Active; 'I' for Inactive)
REMARK    1  A    between atoms: C_1  and  C_2
REMARK    2  A    between atoms: C_2  and  C_5
REMARK    3  A    between atoms: N_3  and  O_4
REMARK    4  A    between atoms: C_10  and  C_29
REMARK    5  A    between atoms: C_21  and  C_28
REMARK    6  A    between atoms: N_25  and  O_26
REMARK                            x       y       z     vdW  Elec       q    Type
REMARK                         _______ _______ _______ _____ _____    ______ ____
ROOT
ATOM      1  C   UNL     1       0.009  -0.014   0.004  0.00  0.00    -0.021 C 
ATOM      2  C   UNL     1       0.021   1.293  -0.268  0.00  0.00    -0.021 C 
ATOM      3  C   UNL     1       1.438   1.830  -0.173  0.00  0.00    +0.032 C 
ATOM      4  C   UNL     1       2.314   0.556  -0.398  0.00  0.00    +0.006 C 
ATOM      5  C   UNL     1       1.411  -0.474   0.308  0.00  0.00    -0.002 C 
ATOM      6  C   UNL     1       1.680  -1.898  -0.110  0.00  0.00    +0.012 C 
ATOM      7  C   UNL     1       1.653  -2.053  -1.630  0.00  0.00    +0.005 C 
ATOM      8  C   UNL     1       2.720  -1.127  -2.226  0.00  0.00    -0.001 C 
ATOM      9  C   UNL     1       2.339   0.316  -1.908  0.00  0.00    -0.003 C 
ATOM     10  C   UNL     1       0.959   0.617  -2.498  0.00  0.00    +0.004 C 
ATOM     11  C   UNL     1       1.011   0.433  -4.015  0.00  0.00    +0.005 C 
ATOM     12  C   UNL     1       1.401  -1.010  -4.349  0.00  0.00    +0.001 C 
ATOM     13  C   UNL     1       2.769  -1.329  -3.744  0.00  0.00    -0.025 C 
ATOM     14  C   UNL     1       3.137  -2.787  -4.033  0.00  0.00    +0.013 C 
ATOM     15  C   UNL     1       3.274  -2.992  -5.544  0.00  0.00    +0.055 C 
ATOM     16  C   UNL     1       1.992  -2.537  -6.206  0.00  0.00    +0.058 C 
ATOM     17  N   UNL     1       1.367  -3.298  -7.023  0.00  0.00    -0.097 NA
ATOM     18  C   UNL     1       1.469  -1.158  -5.874  0.00  0.00    +0.058 C 
ATOM     19  C   UNL     1       3.827  -0.405  -4.348  0.00  0.00    +0.012 C 
ATOM     20  C   UNL     1       1.641  -0.368   1.817  0.00  0.00    +0.016 C 
ENDROOT
BRANCH   1  22
ATOM     21  C   UNL     1      -1.678  -1.480  -1.280  0.00  0.00    +0.069 C 
ATOM     22  C   UNL     1      -1.185  -0.870   0.007  0.00  0.00    +0.080 C 
ATOM     23  N   UNL     1      -1.814  -1.100   1.116  0.00  0.00    -0.092 NA
BRANCH  23  24
ATOM     24  O   UNL     1      -1.422  -0.435   2.303  0.00  0.00    -0.409 OA
ATOM     25  H   UNL     1      -1.899  -0.726   3.093  0.00  0.00    +0.328 HD
ENDBRANCH  23  24
ENDBRANCH   1  22
BRANCH  17  26
ATOM     26  O   UNL     1       0.168  -2.853  -7.630  0.00  0.00    -0.409 OA
ATOM     27  H   UNL     1      -0.231  -3.496  -8.232  0.00  0.00    +0.328 HD
ENDBRANCH  17  26
TORSDOF 3
