REMARK  Name = ZINC54217061
REMARK  4 active torsions:
REMARK  status: ('A' for Active; 'I' for Inactive)
REMARK    1  A    between atoms: C_1  and  C_2
REMARK    2  A    between atoms: C_3  and  C_29
REMARK    3  A    between atoms: C_13  and  C_14
REMARK    4  A    between atoms: C_19  and  C_20
REMARK                            x       y       z     vdW  Elec       q    Type
REMARK                         _______ _______ _______ _____ _____    ______ ____
ROOT
ATOM      1  C   UNL     1      -0.018   1.503   0.010  0.00  0.00    +0.045 C 
ATOM      2  C   UNL     1       0.002  -0.004   0.002  0.00  0.00    -0.026 A 
ATOM      3  C   UNL     1       0.006  -0.677  -1.160  0.00  0.00    -0.008 A 
ATOM      4  S   UNL     1       0.032  -2.385  -0.650  0.00  0.00    -0.073 S 
ATOM      5  C   UNL     1       0.037  -2.147   1.109  0.00  0.00    +0.116 A 
ATOM      6  C   UNL     1       0.024  -0.745   1.250  0.00  0.00    +0.075 A 
ATOM      7  C   UNL     1       0.029  -0.257   2.594  0.00  0.00    +0.263 A 
ATOM      8  O   UNL     1       0.014   0.943   2.810  0.00  0.00    -0.267 OA
ATOM      9  N   UNL     1       0.051  -1.133   3.625  0.00  0.00    -0.292 N 
ATOM     10  C   UNL     1       0.067  -2.482   3.397  0.00  0.00    +0.141 A 
ATOM     11  N   UNL     1       0.053  -2.954   2.155  0.00  0.00    -0.222 NA
ATOM     12  C   UNL     1       0.090  -3.228   4.659  0.00  0.00    -0.002 C 
ATOM     13  C   UNL     1       0.110  -4.571   4.795  0.00  0.00    +0.018 C 
ATOM     14  C   UNL     1       0.086  -2.214   5.778  0.00  0.00    +0.060 C 
ATOM     15  C   UNL     1       0.060  -0.853   5.069  0.00  0.00    +0.131 C 
ATOM     16  C   UNL     1      -0.009  -0.121  -2.561  0.00  0.00    +0.052 C 
ENDROOT
BRANCH  13  17
ATOM     17  C   UNL     1       0.132  -5.173   6.135  0.00  0.00    +0.020 A 
ATOM     18  C   UNL     1       0.128  -4.505   7.343  0.00  0.00    +0.113 A 
ATOM     19  N   UNL     1       0.153  -5.424   8.323  0.00  0.00    -0.284 N 
ATOM     20  H   UNL     1       0.156  -5.229   9.273  0.00  0.00    +0.188 HD
ATOM     21  N   UNL     1       0.174  -6.705   7.765  0.00  0.00    -0.173 NA
ATOM     22  C   UNL     1       0.156  -6.604   6.454  0.00  0.00    +0.100 A 
BRANCH  22  23
ATOM     23  C   UNL     1       0.162  -7.725   5.484  0.00  0.00    +0.003 A 
ATOM     24  C   UNL     1      -0.539  -7.614   4.283  0.00  0.00    +0.013 A 
ATOM     25  C   UNL     1      -0.530  -8.659   3.383  0.00  0.00    +0.039 A 
ATOM     26  C   UNL     1       0.174  -9.818   3.670  0.00  0.00    +0.123 A 
ATOM     27  C   UNL     1       0.871  -9.933   4.862  0.00  0.00    +0.039 A 
ATOM     28  C   UNL     1       0.874  -8.890   5.765  0.00  0.00    +0.013 A 
ATOM     29  F   UNL     1       0.179 -10.839   2.786  0.00  0.00    -0.205 F 
ENDBRANCH  22  23
ENDBRANCH  13  17
TORSDOF 2
