REMARK  Name = ZINC20572314
REMARK  4 active torsions:
REMARK  status: ('A' for Active; 'I' for Inactive)
REMARK    1  A    between atoms: C_1  and  C_2
REMARK    2  A    between atoms: C_6  and  N_8
REMARK    3  A    between atoms: C_13  and  C_31
REMARK    4  A    between atoms: C_31  and  C_32
REMARK                            x       y       z     vdW  Elec       q    Type
REMARK                         _______ _______ _______ _____ _____    ______ ____
ROOT
ATOM      1  N   UNL     1       0.050  -2.798   2.395  0.00  0.00    -0.210 N 
ATOM      2  C   UNL     1       0.141  -2.196   3.587  0.00  0.00    +0.232 C 
ATOM      3  O   UNL     1       0.223  -0.999   3.762  0.00  0.00    -0.274 OA
ATOM      4  C   UNL     1       0.124  -3.240   4.680  0.00  0.00    +0.108 C 
ATOM      5  C   UNL     1       1.501  -3.273   5.375  0.00  0.00    +0.072 C 
ATOM      6  N   UNL     1       2.318  -4.211   4.560  0.00  0.00    -0.295 NA
ATOM      7  C   UNL     1       1.374  -5.279   4.183  0.00  0.00    +0.136 C 
ATOM      8  C   UNL     1       0.022  -4.578   3.896  0.00  0.00    +0.123 C 
ATOM      9  C   UNL     1      -0.030  -4.133   2.452  0.00  0.00    +0.233 C 
ATOM     10  O   UNL     1      -0.127  -4.870   1.494  0.00  0.00    -0.274 OA
ATOM     11  C   UNL     1       1.862  -6.049   2.989  0.00  0.00    +0.006 A 
ATOM     12  C   UNL     1       2.177  -5.694   1.697  0.00  0.00    +0.046 A 
ATOM     13  C   UNL     1       2.615  -6.656   0.801  0.00  0.00    +0.124 A 
ATOM     14  C   UNL     1       2.733  -7.974   1.209  0.00  0.00    +0.040 A 
ATOM     15  C   UNL     1       2.416  -8.332   2.503  0.00  0.00    +0.026 A 
ATOM     16  C   UNL     1       1.976  -7.371   3.410  0.00  0.00    +0.039 A 
ATOM     17  N   UNL     1       1.601  -7.485   4.751  0.00  0.00    -0.283 N 
ATOM     18  C   UNL     1       1.234  -6.301   5.278  0.00  0.00    +0.243 C 
ATOM     19  O   UNL     1       0.862  -6.098   6.415  0.00  0.00    -0.273 OA
ATOM     20  F   UNL     1       2.925  -6.309  -0.468  0.00  0.00    -0.205 F 
ATOM     21  H   UNL     1       2.689  -3.751   3.743  0.00  0.00    +0.124 HD
ATOM     22  H   UNL     1       1.604  -8.320   5.245  0.00  0.00    +0.155 HD
ENDROOT
BRANCH   1  28
ATOM     23  C   UNL     1      -2.370  -1.345  -1.632  0.00  0.00    +0.044 C 
ATOM     24  C   UNL     1      -1.124  -1.368  -0.785  0.00  0.00    -0.049 A 
ATOM     25  C   UNL     1       0.006  -0.689  -1.200  0.00  0.00    +0.003 A 
ATOM     26  C   UNL     1       1.151  -0.708  -0.425  0.00  0.00    +0.002 A 
ATOM     27  C   UNL     1       1.169  -1.406   0.766  0.00  0.00    +0.024 A 
ATOM     28  C   UNL     1       0.035  -2.089   1.186  0.00  0.00    +0.044 A 
ATOM     29  C   UNL     1      -1.115  -2.063   0.409  0.00  0.00    +0.027 A 
ENDBRANCH   1  28
BRANCH   5  30
ATOM     30  C   UNL     1       2.131  -1.879   5.377  0.00  0.00    +0.056 C 
BRANCH  30  31
ATOM     31  C   UNL     1       3.414  -1.908   6.166  0.00  0.00    -0.021 A 
ATOM     32  C   UNL     1       3.562  -1.593   7.462  0.00  0.00    +0.087 A 
ATOM     33  N   UNL     1       4.872  -1.738   7.831  0.00  0.00    -0.360 N 
ATOM     34  H   UNL     1       5.222  -1.568   8.720  0.00  0.00    +0.165 HD
ATOM     35  C   UNL     1       5.617  -2.160   6.754  0.00  0.00    +0.047 A 
ATOM     36  C   UNL     1       4.736  -2.292   5.665  0.00  0.00    +0.003 A 
ATOM     37  C   UNL     1       5.219  -2.716   4.426  0.00  0.00    +0.010 A 
ATOM     38  C   UNL     1       6.546  -3.006   4.278  0.00  0.00    +0.001 A 
ATOM     39  C   UNL     1       7.419  -2.881   5.350  0.00  0.00    +0.002 A 
ATOM     40  C   UNL     1       6.965  -2.455   6.579  0.00  0.00    +0.026 A 
ENDBRANCH  30  31
ENDBRANCH   5  30
TORSDOF 3
