REMARK  Name = ZINC36949406
REMARK  5 active torsions:
REMARK  status: ('A' for Active; 'I' for Inactive)
REMARK    1  A    between atoms: C_1  and  C_2
REMARK    2  A    between atoms: C_2  and  C_4
REMARK    3  A    between atoms: C_2  and  O_16
REMARK    4  A    between atoms: N_6  and  C_7
REMARK    5  A    between atoms: C_10  and  N_14
REMARK                            x       y       z     vdW  Elec       q    Type
REMARK                         _______ _______ _______ _____ _____    ______ ____
ROOT
ATOM      1  C   UNL     1      -3.517  -0.829  -1.115  0.00  0.00    +0.071 A 
ATOM      2  C   UNL     1      -3.924  -1.795  -0.203  0.00  0.00    +0.065 A 
ATOM      3  C   UNL     1      -5.197  -2.326  -0.280  0.00  0.00    +0.044 A 
ATOM      4  C   UNL     1      -6.071  -1.894  -1.270  0.00  0.00    +0.027 A 
ATOM      5  C   UNL     1      -5.664  -0.929  -2.182  0.00  0.00    +0.044 A 
ATOM      6  C   UNL     1      -4.393  -0.393  -2.101  0.00  0.00    +0.065 A 
ATOM      7 CL   UNL     1      -3.887   0.819  -3.237  0.00  0.00    -0.082 Cl
ATOM      8 CL   UNL     1      -2.832  -2.335   1.034  0.00  0.00    -0.082 Cl
ENDROOT
BRANCH   1  11
ATOM      9  C   UNL     1      -1.216  -0.855  -1.729  0.00  0.00    +0.246 C 
ATOM     10  O   UNL     1      -1.405  -1.881  -2.348  0.00  0.00    -0.273 OA
ATOM     11  N   UNL     1      -2.225  -0.290  -1.036  0.00  0.00    -0.281 N 
ATOM     12  H   UNL     1      -2.057   0.488  -0.483  0.00  0.00    +0.155 HD
BRANCH   9  14
ATOM     13  C   UNL     1       0.733  -0.246  -0.322  0.00  0.00    +0.047 C 
ATOM     14  C   UNL     1       0.147  -0.212  -1.735  0.00  0.00    +0.197 C 
BRANCH  14  15
ATOM     15  O   UNL     1       1.007  -0.926  -2.625  0.00  0.00    -0.383 OA
ATOM     16  H   UNL     1       1.903  -0.566  -2.680  0.00  0.00    +0.210 HD
ENDBRANCH  14  15
ENDBRANCH   9  14
ENDBRANCH   1  11
BRANCH   4  17
ATOM     17  N   UNL     1      -7.360  -2.431  -1.349  0.00  0.00    -0.358 N 
ATOM     18  H   UNL     1      -7.644  -3.105  -0.712  0.00  0.00    +0.142 HD
ATOM     19  H   UNL     1      -7.970  -2.130  -2.040  0.00  0.00    +0.142 HD
ENDBRANCH   4  17
TORSDOF 4
