REMARK  Name = ZINC61594350
REMARK  7 active torsions:
REMARK  status: ('A' for Active; 'I' for Inactive)
REMARK    1  A    between atoms: C_1  and  C_2
REMARK    2  A    between atoms: C_2  and  N_3
REMARK    3  A    between atoms: C_9  and  S_10
REMARK    4  A    between atoms: S_10  and  C_11
REMARK    5  A    between atoms: C_11  and  C_13
REMARK    6  A    between atoms: C_11  and  C_15
REMARK    7  A    between atoms: C_13  and  N_14
REMARK                            x       y       z     vdW  Elec       q    Type
REMARK                         _______ _______ _______ _____ _____    ______ ____
ROOT
ATOM      1  C   UNL     1      -3.014  -1.245  -3.728  0.00  0.00    +0.068 C 
ENDROOT
BRANCH   1   2
ATOM      2  C   UNL     1      -2.684  -1.463  -5.182  0.00  0.00    -0.018 A 
ATOM      3  C   UNL     1      -1.717  -0.688  -5.795  0.00  0.00    +0.006 A 
ATOM      4  C   UNL     1      -1.414  -0.887  -7.129  0.00  0.00    +0.000 A 
ATOM      5  C   UNL     1      -2.077  -1.862  -7.851  0.00  0.00    +0.001 A 
ATOM      6  C   UNL     1      -3.044  -2.638  -7.239  0.00  0.00    +0.020 A 
ATOM      7  C   UNL     1      -3.344  -2.442  -5.902  0.00  0.00    +0.045 A 
ATOM      8 CL   UNL     1      -4.553  -3.421  -5.132  0.00  0.00    -0.083 Cl
ENDBRANCH   1   2
BRANCH   1   9
ATOM      9  S   UNL     1      -1.589  -0.500  -2.889  0.00  0.00    -0.080 S 
BRANCH   9  16
ATOM     10  N   UNL     1      -1.222  -0.155  -0.137  0.00  0.00    -0.271 N 
ATOM     11  C   UNL     1      -1.910  -0.320   1.011  0.00  0.00    +0.345 A 
ATOM     12  O   UNL     1      -1.504  -0.076   2.134  0.00  0.00    -0.245 OA
ATOM     13  N   UNL     1      -3.128  -0.802   0.691  0.00  0.00    -0.226 N 
ATOM     14  H   UNL     1      -3.842  -1.018   1.312  0.00  0.00    +0.194 HD
ATOM     15  N   UNL     1      -3.174  -0.932  -0.704  0.00  0.00    -0.145 NA
ATOM     16  C   UNL     1      -2.030  -0.537  -1.184  0.00  0.00    +0.193 A 
BRANCH  10  18
ATOM     17  C   UNL     1       0.122   1.872  -0.392  0.00  0.00    +0.027 C 
ATOM     18  C   UNL     1       0.148   0.348  -0.251  0.00  0.00    +0.125 C 
ENDBRANCH  10  18
ENDBRANCH   9  16
ENDBRANCH   1   9
BRANCH   1  19
ATOM     19  C   UNL     1      -4.220  -0.310  -3.613  0.00  0.00    -0.067 C 
BRANCH  19  20
ATOM     20  N   UNL     1      -3.860   1.018  -4.127  0.00  0.00    +0.379 N 
ATOM     21  H   UNL     1      -4.676   1.612  -4.123  0.00  0.00    -0.090 HD
ATOM     22  H   UNL     1      -3.146   1.423  -3.542  0.00  0.00    -0.090 HD
ATOM     23  H   UNL     1      -3.512   0.931  -5.071  0.00  0.00    -0.090 HD
ENDBRANCH  19  20
ENDBRANCH   1  19
TORSDOF 6
