REMARK  Name = ZINC35545912
REMARK  5 active torsions:
REMARK  status: ('A' for Active; 'I' for Inactive)
REMARK    1  A    between atoms: C_1  and  C_2
REMARK    2  A    between atoms: C_2  and  N_3
REMARK    3  A    between atoms: N_3  and  C_4
REMARK    4  A    between atoms: C_4  and  C_6
REMARK    5  A    between atoms: C_4  and  C_13
REMARK                            x       y       z     vdW  Elec       q    Type
REMARK                         _______ _______ _______ _____ _____    ______ ____
ROOT
ATOM      1  C   UNL     1      -1.356  -1.981   0.004  0.00  0.00    -0.010 C 
ENDROOT
BRANCH   1   2
ATOM      2  C   UNL     1      -0.737  -2.482   1.284  0.00  0.00    -0.055 A 
ATOM      3  C   UNL     1      -1.034  -1.859   2.483  0.00  0.00    +0.004 A 
ATOM      4  C   UNL     1      -0.471  -2.311   3.661  0.00  0.00    +0.028 A 
ATOM      5  C   UNL     1       0.395  -3.394   3.641  0.00  0.00    +0.067 A 
ATOM      6  C   UNL     1       0.695  -4.022   2.431  0.00  0.00    +0.067 A 
ATOM      7  C   UNL     1       0.120  -3.565   1.254  0.00  0.00    +0.030 A 
ATOM      8  N   UNL     1       1.577  -5.060   2.724  0.00  0.00    -0.306 N 
ATOM      9  H   UNL     1       1.962  -5.676   2.081  0.00  0.00    +0.170 HD
ATOM     10  C   UNL     1       1.803  -5.062   4.051  0.00  0.00    +0.325 A 
ATOM     11  O   UNL     1       2.530  -5.843   4.636  0.00  0.00    -0.247 OA
ATOM     12  N   UNL     1       1.105  -4.069   4.632  0.00  0.00    -0.306 N 
ATOM     13  H   UNL     1       1.097  -3.859   5.579  0.00  0.00    +0.170 HD
ENDBRANCH   1   2
BRANCH   1  14
ATOM     14  C   UNL     1      -2.766  -2.502  -0.109  0.00  0.00    -0.057 A 
ATOM     15  C   UNL     1      -3.789  -1.882   0.583  0.00  0.00    +0.003 A 
ATOM     16  C   UNL     1      -5.082  -2.359   0.479  0.00  0.00    +0.015 A 
ATOM     17  C   UNL     1      -5.352  -3.457  -0.317  0.00  0.00    +0.018 A 
ATOM     18  C   UNL     1      -4.328  -4.078  -1.009  0.00  0.00    +0.015 A 
ATOM     19  C   UNL     1      -3.036  -3.597  -0.909  0.00  0.00    +0.003 A 
ATOM     20 BR   UNL     1      -7.121  -4.111  -0.459  0.00  0.00    -0.050 Br
ENDBRANCH   1  14
BRANCH   1  21
ATOM     21  N   UNL     1      -1.376  -0.512   0.012  0.00  0.00    +0.386 N 
ATOM     22  H   UNL     1      -1.848  -0.187   0.843  0.00  0.00    -0.085 HD
ATOM     23  H   UNL     1      -1.864  -0.178  -0.805  0.00  0.00    -0.085 HD
BRANCH  21  25
ATOM     24  C   UNL     1      -0.019   1.526   0.010  0.00  0.00    -0.017 C 
ATOM     25  C   UNL     1       0.002  -0.004   0.002  0.00  0.00    -0.085 C 
ENDBRANCH  21  25
ENDBRANCH   1  21
TORSDOF 4
