REMARK  Name = ZINC16889815
REMARK  7 active torsions:
REMARK  status: ('A' for Active; 'I' for Inactive)
REMARK    1  A    between atoms: C_4  and  S_8
REMARK    2  A    between atoms: S_8  and  C_9
REMARK    3  A    between atoms: C_11  and  O_24
REMARK    4  A    between atoms: C_13  and  O_23
REMARK    5  A    between atoms: C_15  and  O_22
REMARK    6  A    between atoms: C_17  and  C_20
REMARK    7  A    between atoms: C_20  and  O_21
REMARK                            x       y       z     vdW  Elec       q    Type
REMARK                         _______ _______ _______ _____ _____    ______ ____
ROOT
ATOM      1  C   UNL     1       2.194   0.114  -1.186  0.00  0.00    +0.212 C 
ATOM      2  C   UNL     1       0.786  -0.486  -1.222  0.00  0.00    +0.185 C 
ATOM      3  C   UNL     1       0.002  -0.004   0.002  0.00  0.00    +0.177 C 
ATOM      4  C   UNL     1      -0.019   1.528   0.010  0.00  0.00    +0.176 C 
ATOM      5  C   UNL     1       1.420   2.050  -0.001  0.00  0.00    +0.176 C 
ATOM      6  O   UNL     1       2.102   1.539  -1.148  0.00  0.00    -0.355 OA
ENDROOT
BRANCH   4   7
ATOM      7  O   UNL     1      -0.685   1.990   1.187  0.00  0.00    -0.386 OA
ATOM      8  H   UNL     1      -1.602   1.692   1.262  0.00  0.00    +0.210 HD
ENDBRANCH   4   7
BRANCH   3   9
ATOM      9  O   UNL     1      -1.337  -0.500  -0.060  0.00  0.00    -0.386 OA
ATOM     10  H   UNL     1      -1.399  -1.465  -0.068  0.00  0.00    +0.210 HD
ENDBRANCH   3   9
BRANCH   2  11
ATOM     11  O   UNL     1       0.873  -1.913  -1.202  0.00  0.00    -0.386 OA
ATOM     12  H   UNL     1       1.357  -2.288  -1.950  0.00  0.00    +0.210 HD
ENDBRANCH   2  11
BRANCH   1  13
ATOM     13  S   UNL     1       3.107  -0.395  -2.668  0.00  0.00    -0.090 S 
BRANCH  13  17
ATOM     14  C   UNL     1       7.366   0.908  -1.835  0.00  0.00    +0.021 A 
ATOM     15  C   UNL     1       7.058   0.277  -3.027  0.00  0.00    +0.022 A 
ATOM     16  C   UNL     1       5.762  -0.127  -3.282  0.00  0.00    +0.055 A 
ATOM     17  C   UNL     1       4.763   0.112  -2.344  0.00  0.00    +0.030 A 
ATOM     18  C   UNL     1       5.076   0.746  -1.148  0.00  0.00    +0.036 A 
ATOM     19  C   UNL     1       6.376   1.142  -0.897  0.00  0.00    +0.042 A 
ATOM     20 CL   UNL     1       6.768   1.934   0.598  0.00  0.00    -0.084 Cl
ATOM     21 CL   UNL     1       5.378  -0.925  -4.775  0.00  0.00    -0.082 Cl
ENDBRANCH  13  17
ENDBRANCH   1  13
BRANCH   5  22
ATOM     22  C   UNL     1       1.408   3.579  -0.053  0.00  0.00    +0.190 C 
BRANCH  22  23
ATOM     23  O   UNL     1       2.746   4.070   0.054  0.00  0.00    -0.392 OA
ATOM     24  H   UNL     1       2.814   5.034   0.028  0.00  0.00    +0.210 HD
ENDBRANCH  22  23
ENDBRANCH   5  22
TORSDOF 7
