REMARK  Name = ZINC39660453
REMARK  10 active torsions:
REMARK  status: ('A' for Active; 'I' for Inactive)
REMARK    1  A    between atoms: C_1  and  C_2
REMARK    2  A    between atoms: C_2  and  C_3
REMARK    3  A    between atoms: C_3  and  C_4
REMARK    4  A    between atoms: C_4  and  C_5
REMARK    5  A    between atoms: C_5  and  C_6
REMARK    6  A    between atoms: C_6  and  N_7
REMARK    7  A    between atoms: C_8  and  C_10
REMARK    8  A    between atoms: C_21  and  C_23
REMARK    9  A    between atoms: C_30  and  C_34
REMARK   10  A    between atoms: N_32  and  C_33
REMARK                            x       y       z     vdW  Elec       q    Type
REMARK                         _______ _______ _______ _____ _____    ______ ____
ROOT
ATOM      1  C   UNL     1       3.613  -6.442  -5.315  0.00  0.00    +0.100 C 
ATOM      2  C   UNL     1       2.624  -6.021  -6.424  0.00  0.00    +0.121 C 
ATOM      3  N   UNL     1       2.570  -7.184  -7.340  0.00  0.00    -0.296 N 
ATOM      4  C   UNL     1       2.593  -8.363  -6.441  0.00  0.00    +0.115 C 
ATOM      5  C   UNL     1       3.590  -7.980  -5.328  0.00  0.00    -0.004 C 
ATOM      6  C   UNL     1       4.977  -8.527  -5.652  0.00  0.00    -0.010 C 
ATOM      7  C   UNL     1       4.941 -10.057  -5.603  0.00  0.00    -0.082 C 
ATOM      8  N   UNL     1       4.519 -10.496  -4.268  0.00  0.00    +0.379 N 
ATOM      9  C   UNL     1       3.148 -10.044  -4.002  0.00  0.00    -0.082 C 
ATOM     10  C   UNL     1       3.107  -8.514  -3.983  0.00  0.00    -0.010 C 
ATOM     11  C   UNL     1       2.513  -7.174  -8.687  0.00  0.00    +0.250 C 
ATOM     12  O   UNL     1       2.377  -8.216  -9.298  0.00  0.00    -0.270 OA
ATOM     13  H   UNL     1       4.554 -11.504  -4.220  0.00  0.00    -0.086 HD
ATOM     14  H   UNL     1       5.140 -10.107  -3.575  0.00  0.00    -0.086 HD
ENDROOT
BRANCH  11  15
ATOM     15  C   UNL     1       2.616  -5.897  -9.420  0.00  0.00    +0.074 A 
ATOM     16  C   UNL     1       2.057  -4.726  -8.888  0.00  0.00    +0.127 A 
ATOM     17  N   UNL     1       2.137  -3.582  -9.524  0.00  0.00    -0.235 NA
ATOM     18  C   UNL     1       2.750  -3.471 -10.699  0.00  0.00    +0.160 A 
ATOM     19  C   UNL     1       3.338  -4.602 -11.301  0.00  0.00    +0.060 A 
ATOM     20  C   UNL     1       3.276  -5.838 -10.650  0.00  0.00    +0.067 A 
ATOM     21 CL   UNL     1       3.992  -7.256 -11.350  0.00  0.00    -0.082 Cl
ATOM     22  C   UNL     1       3.916  -4.146 -12.561  0.00  0.00    +0.071 A 
ATOM     23  N   UNL     1       3.677  -2.870 -12.664  0.00  0.00    -0.174 NA
ATOM     24  N   UNL     1       2.967  -2.422 -11.547  0.00  0.00    -0.249 N 
ATOM     25  C   UNL     1       2.525  -1.044 -11.320  0.00  0.00    +0.174 C 
ATOM     26  C   UNL     1       4.657  -4.997 -13.561  0.00  0.00    +0.068 C 
ENDBRANCH  11  15
BRANCH   1  28
ATOM     27  N   UNL     1       4.057  -5.645  -3.016  0.00  0.00    -0.315 N 
ATOM     28  C   UNL     1       3.154  -5.922  -3.977  0.00  0.00    +0.218 C 
ATOM     29  O   UNL     1       1.972  -5.754  -3.765  0.00  0.00    -0.275 OA
ATOM     30  H   UNL     1       5.002  -5.780  -3.185  0.00  0.00    +0.149 HD
BRANCH  27  31
ATOM     31  C   UNL     1       3.610  -5.139  -1.715  0.00  0.00    +0.104 C 
BRANCH  31  32
ATOM     32  C   UNL     1       4.824  -4.908  -0.814  0.00  0.00    +0.019 C 
BRANCH  32  33
ATOM     33  C   UNL     1       4.358  -4.380   0.544  0.00  0.00    +0.002 C 
BRANCH  33  34
ATOM     34  C   UNL     1       5.572  -4.148   1.446  0.00  0.00    -0.000 C 
BRANCH  34  36
ATOM     35  C   UNL     1       6.320  -3.389   3.706  0.00  0.00    +0.004 C 
ATOM     36  C   UNL     1       5.106  -3.620   2.804  0.00  0.00    -0.003 C 
ENDBRANCH  34  36
ENDBRANCH  33  34
ENDBRANCH  32  33
ENDBRANCH  31  32
ENDBRANCH  27  31
ENDBRANCH   1  28
TORSDOF 7
