REMARK  Name = ZINC04592577
REMARK  8 active torsions:
REMARK  status: ('A' for Active; 'I' for Inactive)
REMARK    1  A    between atoms: C_1  and  C_2
REMARK    2  A    between atoms: C_2  and  C_3
REMARK    3  A    between atoms: C_3  and  C_4
REMARK    4  A    between atoms: C_11  and  N_30
REMARK    5  A    between atoms: C_12  and  C_28
REMARK    6  A    between atoms: C_13  and  C_15
REMARK    7  A    between atoms: C_16  and  C_27
REMARK    8  A    between atoms: N_18  and  C_21
REMARK                            x       y       z     vdW  Elec       q    Type
REMARK                         _______ _______ _______ _____ _____    ______ ____
ROOT
ATOM      1  C   UNL     1       0.739  -2.004  -1.265  0.00  0.00    +0.044 A 
ATOM      2  C   UNL     1      -0.234  -2.807  -1.723  0.00  0.00    +0.049 A 
ATOM      3  C   UNL     1       0.183  -4.145  -1.549  0.00  0.00    +0.245 A 
ATOM      4  N   UNL     1       1.365  -4.131  -1.004  0.00  0.00    -0.135 NA
ATOM      5  N   UNL     1       1.744  -2.792  -0.818  0.00  0.00    -0.278 N 
ATOM      6  H   UNL     1       2.580  -2.485  -0.433  0.00  0.00    +0.189 HD
ATOM      7  O   UNL     1      -0.594  -5.197  -1.923  0.00  0.00    -0.421 OA
ATOM      8  C   UNL     1      -1.655  -4.935  -2.712  0.00  0.00    +0.201 C 
ATOM      9  C   UNL     1      -2.151  -3.701  -2.942  0.00  0.00    +0.098 C 
ATOM     10  C   UNL     1      -1.567  -2.453  -2.330  0.00  0.00    +0.106 C 
ENDROOT
BRANCH  10  11
ATOM     11  C   UNL     1      -2.491  -1.931  -1.260  0.00  0.00    +0.025 A 
ATOM     12  C   UNL     1      -3.088  -0.666  -1.234  0.00  0.00    +0.066 A 
ATOM     13  N   UNL     1      -3.820  -0.577  -0.153  0.00  0.00    -0.170 NA
ATOM     14  N   UNL     1      -3.715  -1.785   0.549  0.00  0.00    -0.221 N 
ATOM     15  C   UNL     1      -2.895  -2.605  -0.157  0.00  0.00    +0.137 A 
ATOM     16 CL   UNL     1      -2.442  -4.224   0.278  0.00  0.00    -0.062 Cl
ATOM     17  C   UNL     1      -2.917   0.412  -2.274  0.00  0.00    +0.068 C 
BRANCH  14  18
ATOM     18  C   UNL     1      -4.348  -2.094   1.761  0.00  0.00    +0.067 A 
ATOM     19  C   UNL     1      -4.783  -3.389   2.009  0.00  0.00    +0.028 A 
ATOM     20  C   UNL     1      -5.406  -3.690   3.204  0.00  0.00    +0.002 A 
ATOM     21  C   UNL     1      -5.597  -2.703   4.153  0.00  0.00    +0.000 A 
ATOM     22  C   UNL     1      -5.165  -1.412   3.910  0.00  0.00    +0.002 A 
ATOM     23  C   UNL     1      -4.536  -1.106   2.718  0.00  0.00    +0.028 A 
ENDBRANCH  14  18
ENDBRANCH  10  11
BRANCH   8  24
ATOM     24  N   UNL     1      -2.275  -5.997  -3.322  0.00  0.00    -0.328 N 
ATOM     25  H   UNL     1      -1.945  -6.898  -3.180  0.00  0.00    +0.145 HD
ATOM     26  H   UNL     1      -3.042  -5.846  -3.897  0.00  0.00    +0.145 HD
ENDBRANCH   8  24
BRANCH   9  27
ATOM     27  C   UNL     1      -3.284  -3.572  -3.808  0.00  0.00    +0.101 C 
ATOM     28  N   UNL     1      -4.183  -3.469  -4.495  0.00  0.00    -0.191 NA
ENDBRANCH   9  27
BRANCH   1  29
ATOM     29  C   UNL     1       0.718  -0.497  -1.257  0.00  0.00    +0.055 C 
BRANCH  29  31
ATOM     30  C   UNL     1      -0.019   1.526   0.010  0.00  0.00    +0.004 C 
ATOM     31  C   UNL     1       0.002  -0.004   0.002  0.00  0.00    +0.003 C 
ENDBRANCH  29  31
ENDBRANCH   1  29
TORSDOF 6
