REMARK  Name = ZINC39542589
REMARK  7 active torsions:
REMARK  status: ('A' for Active; 'I' for Inactive)
REMARK    1  A    between atoms: C_1  and  C_2
REMARK    2  A    between atoms: C_2  and  C_4
REMARK    3  A    between atoms: C_2  and  O_7
REMARK    4  A    between atoms: O_7  and  C_8
REMARK    5  A    between atoms: C_8  and  C_10
REMARK    6  A    between atoms: C_23  and  C_24
REMARK    7  A    between atoms: C_27  and  O_30
REMARK                            x       y       z     vdW  Elec       q    Type
REMARK                         _______ _______ _______ _____ _____    ______ ____
ROOT
ATOM      1  C   UNL     1      -3.324  -1.200  -1.462  0.00  0.00    +0.073 A 
ATOM      2  C   UNL     1      -4.473  -0.294  -1.467  0.00  0.00    +0.015 A 
ATOM      3  C   UNL     1      -4.311   1.095  -1.476  0.00  0.00    +0.011 A 
ATOM      4  C   UNL     1      -5.411   1.901  -1.481  0.00  0.00    +0.001 A 
ATOM      5  C   UNL     1      -6.694   1.358  -1.478  0.00  0.00    +0.002 A 
ATOM      6  C   UNL     1      -6.886   0.010  -1.470  0.00  0.00    +0.028 A 
ATOM      7  C   UNL     1      -5.775  -0.854  -1.465  0.00  0.00    +0.072 A 
ATOM      8  N   UNL     1      -5.932  -2.176  -1.457  0.00  0.00    -0.247 NA
ATOM      9  C   UNL     1      -4.909  -3.025  -1.452  0.00  0.00    +0.072 A 
ATOM     10  C   UNL     1      -3.583  -2.563  -1.460  0.00  0.00    -0.007 A 
ATOM     11  C   UNL     1      -2.634  -3.737  -1.460  0.00  0.00    +0.043 C 
ATOM     12  C   UNL     1      -3.509  -4.997  -1.458  0.00  0.00    +0.042 C 
ATOM     13  C   UNL     1      -4.933  -4.500  -1.443  0.00  0.00    -0.021 C 
ATOM     14  C   UNL     1      -6.036  -5.270  -1.439  0.00  0.00    +0.013 C 
ENDROOT
BRANCH  14  15
ATOM     15  C   UNL     1      -5.914  -6.732  -1.571  0.00  0.00    -0.024 A 
ATOM     16  C   UNL     1      -7.057  -7.518  -1.744  0.00  0.00    +0.011 A 
ATOM     17  C   UNL     1      -6.938  -8.885  -1.869  0.00  0.00    +0.046 A 
ATOM     18  C   UNL     1      -5.684  -9.482  -1.822  0.00  0.00    +0.117 A 
ATOM     19  C   UNL     1      -4.545  -8.705  -1.650  0.00  0.00    +0.046 A 
ATOM     20  C   UNL     1      -4.654  -7.337  -1.531  0.00  0.00    +0.011 A 
BRANCH  18  21
ATOM     21  O   UNL     1      -5.572 -10.830  -1.944  0.00  0.00    -0.507 OA
ATOM     22  H   UNL     1      -5.466 -11.135  -2.856  0.00  0.00    +0.292 HD
ENDBRANCH  18  21
ENDBRANCH  14  15
BRANCH   1  23
ATOM     23  C   UNL     1      -1.940  -0.683  -1.464  0.00  0.00    +0.341 C 
ATOM     24  O   UNL     1      -1.372  -0.471  -2.517  0.00  0.00    -0.245 OA
BRANCH  23  25
ATOM     25  O   UNL     1      -1.307  -0.446  -0.298  0.00  0.00    -0.449 OA
BRANCH  25  27
ATOM     26  C   UNL     1       0.002   1.583  -0.404  0.00  0.00    +0.062 C 
ATOM     27  C   UNL     1       0.029   0.054  -0.376  0.00  0.00    +0.259 C 
BRANCH  27  28
ATOM     28  C   UNL     1       0.810  -0.412   0.827  0.00  0.00    +0.251 C 
ATOM     29  O   UNL     1       0.252  -1.027   1.711  0.00  0.00    -0.272 OA
ATOM     30  N   UNL     1       2.128  -0.146   0.919  0.00  0.00    -0.326 N 
ATOM     31  H   UNL     1       2.574   0.346   0.212  0.00  0.00    +0.145 HD
ATOM     32  H   UNL     1       2.630  -0.446   1.693  0.00  0.00    +0.145 HD
ENDBRANCH  27  28
ENDBRANCH  25  27
ENDBRANCH  23  25
ENDBRANCH   1  23
TORSDOF 6
