REMARK  Name = ZINC66250492
REMARK  7 active torsions:
REMARK  status: ('A' for Active; 'I' for Inactive)
REMARK    1  A    between atoms: C_1  and  N_2
REMARK    2  A    between atoms: C_4  and  S_10
REMARK    3  A    between atoms: C_6  and  C_7
REMARK    4  A    between atoms: S_10  and  N_13
REMARK    5  A    between atoms: N_13  and  C_14
REMARK    6  A    between atoms: N_18  and  C_19
REMARK    7  A    between atoms: C_19  and  C_20
REMARK                            x       y       z     vdW  Elec       q    Type
REMARK                         _______ _______ _______ _____ _____    ______ ____
ROOT
ATOM      1  N   UNL     1       1.437  -3.856  -2.224  0.00  0.00    -0.200 N 
ATOM      2  H   UNL     1       1.710  -3.772  -3.151  0.00  0.00    +0.175 HD
ENDROOT
BRANCH   1   3
ATOM      3  C   UNL     1       2.351  -4.285  -1.265  0.00  0.00    +0.136 A 
ATOM      4  C   UNL     1       2.104  -4.452   0.064  0.00  0.00    +0.066 A 
ATOM      5  C   UNL     1       3.285  -4.893   0.666  0.00  0.00    +0.136 A 
ATOM      6  N   UNL     1       4.207  -4.989  -0.258  0.00  0.00    -0.178 NA
ATOM      7  N   UNL     1       3.643  -4.616  -1.485  0.00  0.00    -0.245 N 
BRANCH   7   8
ATOM      8  C   UNL     1       4.333  -4.588  -2.777  0.00  0.00    +0.180 C 
BRANCH   8   9
ATOM      9  C   UNL     1       4.955  -3.231  -2.984  0.00  0.00    -0.025 A 
ATOM     10  C   UNL     1       4.233  -2.226  -3.602  0.00  0.00    +0.005 A 
ATOM     11  C   UNL     1       4.803  -0.982  -3.793  0.00  0.00    +0.002 A 
ATOM     12  C   UNL     1       6.096  -0.740  -3.366  0.00  0.00    +0.020 A 
ATOM     13  C   UNL     1       6.818  -1.745  -2.747  0.00  0.00    +0.041 A 
ATOM     14  C   UNL     1       6.245  -2.989  -2.551  0.00  0.00    +0.025 A 
ATOM     15 CL   UNL     1       8.441  -1.442  -2.211  0.00  0.00    -0.084 Cl
ENDBRANCH   8   9
ENDBRANCH   7   8
ENDBRANCH   1   3
BRANCH   1  16
ATOM     16  S   UNL     1      -0.116  -3.489  -1.782  0.00  0.00    +0.075 S 
ATOM     17  O   UNL     1      -0.581  -4.574  -0.993  0.00  0.00    -0.150 OA
ATOM     18  O   UNL     1      -0.784  -3.063  -2.962  0.00  0.00    -0.150 OA
BRANCH  16  22
ATOM     19  C   UNL     1      -0.018   1.461   0.010  0.00  0.00    +0.149 C 
ATOM     20  N   UNL     1       0.001  -0.004   0.002  0.00  0.00    -0.344 N 
ATOM     21  C   UNL     1      -0.090  -0.790  -1.098  0.00  0.00    +0.114 A 
ATOM     22  C   UNL     1      -0.037  -2.088  -0.716  0.00  0.00    +0.127 A 
ATOM     23  C   UNL     1       0.092  -2.120   0.676  0.00  0.00    +0.061 A 
ATOM     24  C   UNL     1       0.120  -0.812   1.111  0.00  0.00    +0.106 A 
BRANCH  24  25
ATOM     25  C   UNL     1       0.249  -0.362   2.501  0.00  0.00    +0.258 C 
ATOM     26  O   UNL     1       0.170   0.823   2.767  0.00  0.00    -0.269 OA
ATOM     27  N   UNL     1       0.456  -1.261   3.483  0.00  0.00    -0.324 N 
ATOM     28  H   UNL     1       0.592  -2.196   3.264  0.00  0.00    +0.145 HD
ATOM     29  H   UNL     1       0.468  -0.973   4.410  0.00  0.00    +0.145 HD
ENDBRANCH  24  25
ENDBRANCH  16  22
ENDBRANCH   1  16
TORSDOF 6
