REMARK  Name = ZINC36129122
REMARK  5 active torsions:
REMARK  status: ('A' for Active; 'I' for Inactive)
REMARK    1  A    between atoms: C_4  and  N_19
REMARK    2  A    between atoms: C_6  and  S_7
REMARK    3  A    between atoms: S_7  and  N_10
REMARK    4  A    between atoms: C_15  and  C_17
REMARK    5  A    between atoms: C_17  and  O_18
REMARK                            x       y       z     vdW  Elec       q    Type
REMARK                         _______ _______ _______ _____ _____    ______ ____
ROOT
ATOM      1  S   UNL     1      -1.999  -1.219   0.086  0.00  0.00    +0.061 S 
ATOM      2  O   UNL     1      -2.469   0.096   0.351  0.00  0.00    -0.153 OA
ATOM      3  O   UNL     1      -0.703  -1.657   0.471  0.00  0.00    -0.153 OA
ENDROOT
BRANCH   1   9
ATOM      4  C   UNL     1      -2.714  -3.543   1.325  0.00  0.00    +0.030 A 
ATOM      5  C   UNL     1      -3.612  -4.414   1.914  0.00  0.00    +0.024 A 
ATOM      6  C   UNL     1      -4.947  -4.070   2.014  0.00  0.00    +0.062 A 
ATOM      7  C   UNL     1      -5.386  -2.846   1.522  0.00  0.00    +0.045 A 
ATOM      8  C   UNL     1      -4.481  -1.974   0.932  0.00  0.00    +0.052 A 
ATOM      9  C   UNL     1      -3.148  -2.325   0.835  0.00  0.00    +0.107 A 
ATOM     10 CL   UNL     1      -6.074  -5.164   2.754  0.00  0.00    -0.082 Cl
BRANCH   7  11
ATOM     11  N   UNL     1      -6.734  -2.494   1.622  0.00  0.00    -0.357 N 
ATOM     12  H   UNL     1      -7.366  -3.104   2.034  0.00  0.00    +0.142 HD
ATOM     13  H   UNL     1      -7.039  -1.639   1.278  0.00  0.00    +0.142 HD
ENDBRANCH   7  11
ENDBRANCH   1   9
BRANCH   1  14
ATOM     14  N   UNL     1      -2.105  -1.438  -1.552  0.00  0.00    -0.171 NA
ATOM     15  C   UNL     1      -2.897  -0.517  -2.381  0.00  0.00    +0.110 C 
ATOM     16  C   UNL     1      -2.010   0.014  -3.512  0.00  0.00    +0.017 C 
ATOM     17  C   UNL     1      -1.410  -1.166  -4.280  0.00  0.00    +0.003 C 
ATOM     18  C   UNL     1      -0.541  -2.002  -3.338  0.00  0.00    +0.023 C 
ATOM     19  C   UNL     1      -1.406  -2.552  -2.206  0.00  0.00    +0.105 C 
BRANCH  19  20
ATOM     20  C   UNL     1      -0.517  -3.268  -1.186  0.00  0.00    +0.176 C 
BRANCH  20  21
ATOM     21  O   UNL     1       0.622  -2.457  -0.895  0.00  0.00    -0.393 OA
ATOM     22  H   UNL     1       1.209  -2.830  -0.222  0.00  0.00    +0.209 HD
ENDBRANCH  20  21
ENDBRANCH  19  20
ENDBRANCH   1  14
TORSDOF 5
