REMARK  Name = ZINC55334373
REMARK  3 active torsions:
REMARK  status: ('A' for Active; 'I' for Inactive)
REMARK    1  A    between atoms: C_5  and  C_7
REMARK    2  A    between atoms: C_8  and  C_13
REMARK    3  A    between atoms: C_11  and  N_12
REMARK                            x       y       z     vdW  Elec       q    Type
REMARK                         _______ _______ _______ _____ _____    ______ ____
ROOT
ATOM      1  C   UNL     1       1.248  -2.163  -0.023  0.00  0.00    +0.075 A 
ATOM      2  C   UNL     1       1.270  -3.046   1.148  0.00  0.00    +0.158 A 
ATOM      3  N   UNL     1       1.289  -4.281   0.700  0.00  0.00    -0.072 NA
ATOM      4  O   UNL     1       1.281  -4.254  -0.713  0.00  0.00    -0.339 OA
ATOM      5  C   UNL     1       1.251  -2.980  -1.135  0.00  0.00    +0.224 A 
ENDROOT
BRANCH   1  10
ATOM      6  C   UNL     1      -0.017   1.375   0.010  0.00  0.00    +0.001 A 
ATOM      7  C   UNL     1       1.170   2.087   0.002  0.00  0.00    +0.001 A 
ATOM      8  C   UNL     1       2.382   1.421  -0.013  0.00  0.00    +0.016 A 
ATOM      9  C   UNL     1       2.414   0.040  -0.022  0.00  0.00    +0.026 A 
ATOM     10  C   UNL     1       1.221  -0.682  -0.014  0.00  0.00    +0.003 A 
ATOM     11  C   UNL     1       0.002  -0.004   0.002  0.00  0.00    +0.010 A 
ATOM     12 BR   UNL     1       4.072  -0.869  -0.044  0.00  0.00    -0.050 Br
ENDBRANCH   1  10
BRANCH   2  13
ATOM     13  C   UNL     1       1.271  -2.626   2.563  0.00  0.00    +0.159 A 
ATOM     14  C   UNL     1       0.661  -3.278   3.590  0.00  0.00    +0.053 A 
ATOM     15  C   UNL     1       0.918  -2.530   4.755  0.00  0.00    +0.057 A 
ATOM     16  C   UNL     1       1.666  -1.469   4.387  0.00  0.00    +0.171 A 
ATOM     17  O   UNL     1       1.881  -1.534   3.064  0.00  0.00    -0.447 OA
ATOM     18 BR   UNL     1       2.310  -0.119   5.545  0.00  0.00    -0.008 Br
ENDBRANCH   2  13
BRANCH   5  19
ATOM     19  N   UNL     1       1.230  -2.562  -2.449  0.00  0.00    -0.327 N 
ATOM     20  H   UNL     1       1.211  -1.614  -2.655  0.00  0.00    +0.145 HD
ATOM     21  H   UNL     1       1.234  -3.215  -3.166  0.00  0.00    +0.145 HD
ENDBRANCH   5  19
TORSDOF 3
