REMARK  Name = ZINC20833042
REMARK  7 active torsions:
REMARK  status: ('A' for Active; 'I' for Inactive)
REMARK    1  A    between atoms: C_7  and  C_11
REMARK    2  A    between atoms: N_12  and  N_13
REMARK    3  A    between atoms: C_16  and  S_19
REMARK    4  A    between atoms: S_19  and  C_20
REMARK    5  A    between atoms: C_20  and  C_21
REMARK    6  A    between atoms: N_23  and  N_24
REMARK    7  A    between atoms: C_25  and  C_27
REMARK                            x       y       z     vdW  Elec       q    Type
REMARK                         _______ _______ _______ _____ _____    ______ ____
ROOT
ATOM      1  N   UNL     1      -4.832   1.765   0.032  0.00  0.00    -0.205 N 
ATOM      2  C   UNL     1      -5.878   2.677   0.041  0.00  0.00    +0.232 A 
ATOM      3  N   UNL     1      -7.210   2.371   0.045  0.00  0.00    -0.186 NA
ATOM      4  C   UNL     1      -7.912   3.543   0.054  0.00  0.00    +0.211 A 
ATOM      5  N   UNL     1      -7.051   4.532   0.056  0.00  0.00    -0.144 NA
ATOM      6  N   UNL     1      -5.762   3.983   0.052  0.00  0.00    -0.245 N 
ATOM      7  H   UNL     1      -5.044   0.686   0.028  0.00  0.00    +0.177 HD
ATOM      8  H   UNL     1      -4.764   4.446   0.058  0.00  0.00    +0.192 HD
ENDROOT
BRANCH   1  10
ATOM      9  C   UNL     1      -2.528   1.366   0.020  0.00  0.00    +0.140 C 
ATOM     10  N   UNL     1      -3.507   2.220   0.029  0.00  0.00    -0.187 NA
BRANCH   9  17
ATOM     11  C   UNL     1      -0.622   5.634   0.036  0.00  0.00    +0.001 A 
ATOM     12  C   UNL     1       0.765   5.599   0.023  0.00  0.00    +0.002 A 
ATOM     13  C   UNL     1       1.437   4.396   0.011  0.00  0.00    +0.026 A 
ATOM     14  C   UNL     1       0.719   3.204   0.012  0.00  0.00    +0.047 A 
ATOM     15  C   UNL     1      -0.685   3.247   0.025  0.00  0.00    +0.008 A 
ATOM     16  C   UNL     1      -1.345   4.474   0.037  0.00  0.00    +0.010 A 
ATOM     17  C   UNL     1      -1.135   1.844   0.017  0.00  0.00    +0.020 A 
ATOM     18  C   UNL     1      -0.013   1.076   0.008  0.00  0.00    +0.093 A 
ATOM     19  N   UNL     1       1.093   1.877   0.002  0.00  0.00    -0.360 N 
ATOM     20  H   UNL     1       2.158   1.605  -0.009  0.00  0.00    +0.165 HD
ENDBRANCH   9  17
ENDBRANCH   1  10
BRANCH   4  21
ATOM     21  S   UNL     1      -9.667   3.699   0.063  0.00  0.00    -0.075 S 
BRANCH  21  22
ATOM     22  C   UNL     1      -9.949   5.491   0.073  0.00  0.00    +0.174 C 
BRANCH  22  23
ATOM     23  C   UNL     1     -11.430   5.767   0.082  0.00  0.00    +0.239 C 
ATOM     24  O   UNL     1     -12.219   4.846   0.081  0.00  0.00    -0.273 OA
ATOM     25  N   UNL     1     -11.879   7.038   0.090  0.00  0.00    -0.233 N 
ATOM     26  H   UNL     1     -11.164   7.874   0.091  0.00  0.00    +0.173 HD
BRANCH  25  27
ATOM     27  N   UNL     1     -13.256   7.295   0.098  0.00  0.00    -0.227 N 
ATOM     28  C   UNL     1     -13.705   8.565   0.106  0.00  0.00    +0.333 C 
ATOM     29  O   UNL     1     -12.916   9.487   0.107  0.00  0.00    -0.264 OA
ATOM     30  H   UNL     1     -13.971   6.459   0.097  0.00  0.00    +0.173 HD
BRANCH  28  31
ATOM     31  C   UNL     1     -15.186   8.841   0.114  0.00  0.00    +0.471 C 
ATOM     32  F   UNL     1     -15.403  10.223   0.122  0.00  0.00    -0.162 F 
ATOM     33  F   UNL     1     -15.771   8.284  -1.028  0.00  0.00    -0.162 F 
ATOM     34  F   UNL     1     -15.760   8.273   1.256  0.00  0.00    -0.162 F 
ENDBRANCH  28  31
ENDBRANCH  25  27
ENDBRANCH  22  23
ENDBRANCH  21  22
ENDBRANCH   4  21
TORSDOF 7
