REMARK  Name = ZINC44776325
REMARK  7 active torsions:
REMARK  status: ('A' for Active; 'I' for Inactive)
REMARK    1  A    between atoms: C_1  and  C_2
REMARK    2  A    between atoms: N_4  and  C_5
REMARK    3  A    between atoms: C_5  and  C_6
REMARK    4  A    between atoms: C_6  and  N_7
REMARK    5  A    between atoms: C_8  and  C_10
REMARK    6  A    between atoms: C_10  and  C_16
REMARK    7  A    between atoms: C_16  and  N_18
REMARK                            x       y       z     vdW  Elec       q    Type
REMARK                         _______ _______ _______ _____ _____    ______ ____
ROOT
ATOM      1  N   UNL     1      -0.857  -4.116  -4.564  0.00  0.00    -0.313 N 
ATOM      2  C   UNL     1       0.035  -4.770  -3.793  0.00  0.00    +0.225 C 
ATOM      3  O   UNL     1       0.866  -4.148  -3.167  0.00  0.00    -0.275 OA
ATOM      4  H   UNL     1      -1.474  -4.615  -5.121  0.00  0.00    +0.149 HD
ENDROOT
BRANCH   2   5
ATOM      5  C   UNL     1      -0.003  -6.274  -3.709  0.00  0.00    +0.091 C 
ATOM      6  C   UNL     1       1.210  -6.771  -2.920  0.00  0.00    +0.023 C 
ATOM      7  C   UNL     1       2.494  -6.332  -3.627  0.00  0.00    +0.001 C 
ATOM      8  C   UNL     1       2.527  -6.922  -5.038  0.00  0.00    +0.000 C 
ATOM      9  C   UNL     1       1.314  -6.425  -5.827  0.00  0.00    +0.001 C 
ATOM     10  C   UNL     1       0.030  -6.865  -5.120  0.00  0.00    +0.023 C 
BRANCH   5  11
ATOM     11  C   UNL     1      -1.267  -6.708  -3.013  0.00  0.00    +0.061 C 
ATOM     12  S   UNL     1      -2.254  -7.747  -3.721  0.00  0.00    -0.040 S 
BRANCH  11  13
ATOM     13  N   UNL     1      -1.566  -6.219  -1.793  0.00  0.00    -0.355 N 
ATOM     14  H   UNL     1      -0.933  -5.646  -1.332  0.00  0.00    +0.143 HD
ATOM     15  H   UNL     1      -2.413  -6.440  -1.376  0.00  0.00    +0.143 HD
ENDBRANCH  11  13
ENDBRANCH   5  11
ENDBRANCH   2   5
BRANCH   1  16
ATOM     16  C   UNL     1      -0.892  -2.651  -4.561  0.00  0.00    +0.123 C 
BRANCH  16  17
ATOM     17  C   UNL     1      -1.986  -2.165  -5.514  0.00  0.00    +0.123 C 
BRANCH  17  21
ATOM     18  C   UNL     1      -2.948   1.460  -6.278  0.00  0.00    +0.109 C 
ATOM     19  C   UNL     1      -2.912  -0.046  -6.281  0.00  0.00    +0.210 C 
ATOM     20  O   UNL     1      -3.685  -0.670  -6.978  0.00  0.00    -0.276 OA
ATOM     21  N   UNL     1      -2.021  -0.701  -5.511  0.00  0.00    -0.314 N 
ATOM     22  H   UNL     1      -1.403  -0.202  -4.954  0.00  0.00    +0.149 HD
ENDBRANCH  17  21
ENDBRANCH  16  17
ENDBRANCH   1  16
TORSDOF 6
