REMARK  Name = ZINC01372271
REMARK  5 active torsions:
REMARK  status: ('A' for Active; 'I' for Inactive)
REMARK    1  A    between atoms: C_1  and  C_2
REMARK    2  A    between atoms: C_15  and  S_18
REMARK    3  A    between atoms: S_18  and  C_19
REMARK    4  A    between atoms: C_19  and  C_20
REMARK    5  A    between atoms: N_22  and  C_23
REMARK                            x       y       z     vdW  Elec       q    Type
REMARK                         _______ _______ _______ _____ _____    ______ ____
ROOT
ATOM      1  C   UNL     1      -8.433   0.258   0.862  0.00  0.00    +0.086 C 
ATOM      2  C   UNL     1      -6.971   0.448   0.549  0.00  0.00    +0.115 A 
ATOM      3  N   UNL     1      -6.149   0.761   1.510  0.00  0.00    -0.226 NA
ATOM      4  C   UNL     1      -4.848   0.943   1.303  0.00  0.00    +0.114 A 
ATOM      5  C   UNL     1      -4.263   0.811   0.035  0.00  0.00    +0.056 A 
ATOM      6  C   UNL     1      -2.865   1.031  -0.049  0.00  0.00    -0.024 A 
ATOM      7  C   UNL     1      -2.210   1.351   1.091  0.00  0.00    -0.004 A 
ATOM      8  S   UNL     1      -3.469   1.366   2.340  0.00  0.00    -0.073 S 
ATOM      9  C   UNL     1      -0.745   1.629   1.257  0.00  0.00    +0.043 C 
ATOM     10  C   UNL     1      -0.018   1.139  -0.004  0.00  0.00    +0.005 C 
ATOM     11  C   UNL     1      -0.771   1.648  -1.237  0.00  0.00    +0.005 C 
ATOM     12  C   UNL     1      -2.107   0.918  -1.370  0.00  0.00    +0.037 C 
ATOM     13  C   UNL     1      -5.205   0.454  -1.049  0.00  0.00    +0.173 A 
ATOM     14  N   UNL     1      -6.536   0.287  -0.734  0.00  0.00    -0.258 N 
ATOM     15  C   UNL     1      -7.151  -0.031  -1.913  0.00  0.00    +0.198 A 
ATOM     16  N   UNL     1      -6.224  -0.044  -2.844  0.00  0.00    -0.122 NA
ATOM     17  N   UNL     1      -5.075   0.242  -2.335  0.00  0.00    -0.128 NA
ENDROOT
BRANCH  15  18
ATOM     18  S   UNL     1      -8.866  -0.360  -2.143  0.00  0.00    -0.076 S 
BRANCH  18  19
ATOM     19  C   UNL     1      -9.014  -0.708  -3.917  0.00  0.00    +0.173 C 
BRANCH  19  20
ATOM     20  C   UNL     1     -10.451  -1.010  -4.252  0.00  0.00    +0.227 C 
ATOM     21  O   UNL     1     -11.294  -0.992  -3.380  0.00  0.00    -0.275 OA
ATOM     22  N   UNL     1     -10.801  -1.300  -5.521  0.00  0.00    -0.285 N 
ATOM     23  H   UNL     1     -10.141  -1.249  -6.229  0.00  0.00    +0.155 HD
BRANCH  22  24
ATOM     24  C   UNL     1     -12.117  -1.675  -5.816  0.00  0.00    +0.034 A 
ATOM     25  C   UNL     1     -12.367  -2.611  -6.810  0.00  0.00    +0.026 A 
ATOM     26  C   UNL     1     -13.666  -2.984  -7.096  0.00  0.00    +0.040 A 
ATOM     27  C   UNL     1     -14.720  -2.416  -6.399  0.00  0.00    +0.124 A 
ATOM     28  C   UNL     1     -14.473  -1.477  -5.412  0.00  0.00    +0.040 A 
ATOM     29  C   UNL     1     -13.175  -1.106  -5.119  0.00  0.00    +0.026 A 
ATOM     30  F   UNL     1     -15.990  -2.778  -6.684  0.00  0.00    -0.205 F 
ENDBRANCH  22  24
ENDBRANCH  19  20
ENDBRANCH  18  19
ENDBRANCH  15  18
TORSDOF 4
