REMARK  Name = ZINC42393407
REMARK  4 active torsions:
REMARK  status: ('A' for Active; 'I' for Inactive)
REMARK    1  A    between atoms: C_1  and  N_2
REMARK    2  A    between atoms: C_3  and  C_5
REMARK    3  A    between atoms: N_10  and  C_11
REMARK    4  A    between atoms: C_16  and  N_17
REMARK                            x       y       z     vdW  Elec       q    Type
REMARK                         _______ _______ _______ _____ _____    ______ ____
ROOT
ATOM      1  C   UNL     1      -3.549  -2.448  -0.757  0.00  0.00    +0.053 A 
ATOM      2  C   UNL     1      -4.312  -1.300  -0.604  0.00  0.00    +0.052 A 
ATOM      3  C   UNL     1      -5.382  -1.065  -1.453  0.00  0.00    +0.078 A 
ATOM      4  C   UNL     1      -5.692  -1.979  -2.458  0.00  0.00    +0.144 A 
ATOM      5  C   UNL     1      -4.931  -3.125  -2.611  0.00  0.00    +0.072 A 
ATOM      6  C   UNL     1      -3.855  -3.359  -1.766  0.00  0.00    +0.050 A 
ATOM      7  O   UNL     1      -6.748  -1.735  -3.281  0.00  0.00    -0.481 OA
ATOM      8  C   UNL     1      -7.860  -1.040  -2.712  0.00  0.00    +0.325 C 
ATOM      9  C   UNL     1      -7.367   0.148  -1.926  0.00  0.00    +0.255 C 
ATOM     10  O   UNL     1      -8.047   1.149  -1.844  0.00  0.00    -0.272 OA
ATOM     11  N   UNL     1      -6.165   0.093  -1.313  0.00  0.00    -0.280 N 
ATOM     12  H   UNL     1      -5.847   0.842  -0.785  0.00  0.00    +0.155 HD
ENDROOT
BRANCH   1  17
ATOM     13  C   UNL     1      -1.064  -2.330  -0.168  0.00  0.00    +0.159 C 
ATOM     14  C   UNL     1      -0.234  -2.763   1.059  0.00  0.00    +0.033 C 
ATOM     15  C   UNL     1      -1.294  -2.827   2.190  0.00  0.00    +0.021 C 
ATOM     16  C   UNL     1      -2.537  -3.342   1.423  0.00  0.00    +0.106 C 
ATOM     17  N   UNL     1      -2.465  -2.688   0.100  0.00  0.00    -0.317 N 
BRANCH  13  20
ATOM     18  C   UNL     1       0.156   1.107  -1.332  0.00  0.00    +0.128 C 
ATOM     19  N   UNL     1       0.041  -0.341  -1.138  0.00  0.00    -0.317 N 
ATOM     20  C   UNL     1      -0.946  -0.841  -0.368  0.00  0.00    +0.233 C 
ATOM     21  O   UNL     1      -1.738  -0.092   0.164  0.00  0.00    -0.274 OA
ATOM     22  H   UNL     1       0.675  -0.939  -1.564  0.00  0.00    +0.148 HD
ENDBRANCH  13  20
ENDBRANCH   1  17
BRANCH   6  23
ATOM     23  N   UNL     1      -3.080  -4.517  -1.924  0.00  0.00    -0.356 N 
ATOM     24  H   UNL     1      -2.391  -4.731  -1.275  0.00  0.00    +0.142 HD
ATOM     25  H   UNL     1      -3.232  -5.103  -2.681  0.00  0.00    +0.142 HD
ENDBRANCH   6  23
TORSDOF 3
