REMARK  Name = ZINC09264470
REMARK  8 active torsions:
REMARK  status: ('A' for Active; 'I' for Inactive)
REMARK    1  A    between atoms: C_1  and  C_2
REMARK    2  A    between atoms: C_6  and  N_9
REMARK    3  A    between atoms: C_7  and  C_8
REMARK    4  A    between atoms: C_13  and  C_14
REMARK    5  A    between atoms: C_16  and  C_27
REMARK    6  A    between atoms: N_17  and  C_20
REMARK    7  A    between atoms: C_18  and  C_19
REMARK    8  A    between atoms: C_23  and  O_26
REMARK                            x       y       z     vdW  Elec       q    Type
REMARK                         _______ _______ _______ _____ _____    ______ ____
ROOT
ATOM      1  N   UNL     1      -1.093   1.884   0.788  0.00  0.00    -0.217 N 
ATOM      2  C   UNL     1       0.012   1.240   0.360  0.00  0.00    +0.262 C 
ATOM      3  O   UNL     1      -0.053   0.101  -0.062  0.00  0.00    -0.269 OA
ATOM      4  C   UNL     1       1.300   1.956   0.413  0.00  0.00    +0.100 C 
ATOM      5  C   UNL     1       2.476   1.361  -0.014  0.00  0.00    +0.028 C 
ATOM      6  C   UNL     1       1.281   3.333   0.940  0.00  0.00    +0.255 C 
ATOM      7  O   UNL     1       2.304   3.988   1.015  0.00  0.00    -0.270 OA
ATOM      8  N   UNL     1       0.099   3.848   1.337  0.00  0.00    -0.263 N 
ATOM      9  C   UNL     1      -1.035   3.138   1.260  0.00  0.00    +0.150 C 
ATOM     10  S   UNL     1      -2.489   3.873   1.786  0.00  0.00    -0.018 S 
ATOM     11  H   UNL     1       0.069   4.752   1.686  0.00  0.00    +0.157 HD
ENDROOT
BRANCH   1  17
ATOM     12  C   UNL     1      -5.211   0.777  -1.662  0.00  0.00    +0.044 C 
ATOM     13  C   UNL     1      -4.345   0.673  -0.433  0.00  0.00    -0.046 A 
ATOM     14  C   UNL     1      -4.771  -0.072   0.652  0.00  0.00    +0.004 A 
ATOM     15  C   UNL     1      -3.979  -0.169   1.781  0.00  0.00    +0.002 A 
ATOM     16  C   UNL     1      -2.757   0.473   1.827  0.00  0.00    +0.024 A 
ATOM     17  C   UNL     1      -2.329   1.227   0.742  0.00  0.00    +0.046 A 
ATOM     18  C   UNL     1      -3.127   1.322  -0.391  0.00  0.00    -0.026 A 
ATOM     19  C   UNL     1      -2.663   2.134  -1.573  0.00  0.00    +0.046 C 
ENDBRANCH   1  17
BRANCH   5  20
ATOM     20  C   UNL     1       3.658   2.132  -0.128  0.00  0.00    -0.003 A 
ATOM     21  C   UNL     1       3.791   3.467  -0.730  0.00  0.00    +0.031 A 
ATOM     22  C   UNL     1       5.085   3.806  -0.617  0.00  0.00    +0.022 A 
ATOM     23  N   UNL     1       5.765   2.794   0.004  0.00  0.00    -0.317 N 
ATOM     24  C   UNL     1       4.928   1.785   0.310  0.00  0.00    +0.028 A 
ATOM     25  C   UNL     1       5.305   0.501   1.004  0.00  0.00    +0.064 C 
ATOM     26  C   UNL     1       5.694   5.098  -1.097  0.00  0.00    +0.064 C 
BRANCH  23  27
ATOM     27  C   UNL     1       7.138   2.808   0.287  0.00  0.00    +0.047 A 
ATOM     28  C   UNL     1       7.983   1.893  -0.327  0.00  0.00    +0.030 A 
ATOM     29  C   UNL     1       9.336   1.911  -0.052  0.00  0.00    +0.047 A 
ATOM     30  C   UNL     1       9.850   2.836   0.846  0.00  0.00    +0.117 A 
ATOM     31  C   UNL     1       9.005   3.746   1.464  0.00  0.00    +0.047 A 
ATOM     32  C   UNL     1       7.652   3.733   1.186  0.00  0.00    +0.030 A 
BRANCH  30  33
ATOM     33  O   UNL     1      11.181   2.850   1.120  0.00  0.00    -0.507 OA
ATOM     34  H   UNL     1      11.436   2.284   1.861  0.00  0.00    +0.292 HD
ENDBRANCH  30  33
ENDBRANCH  23  27
ENDBRANCH   5  20
TORSDOF 4
