REMARK  Name = ZINC12985570
REMARK  6 active torsions:
REMARK  status: ('A' for Active; 'I' for Inactive)
REMARK    1  A    between atoms: C_1  and  C_2
REMARK    2  A    between atoms: C_6  and  C_11
REMARK    3  A    between atoms: N_17  and  C_18
REMARK    4  A    between atoms: C_18  and  C_19
REMARK    5  A    between atoms: C_22  and  S_24
REMARK    6  A    between atoms: S_24  and  N_27
REMARK                            x       y       z     vdW  Elec       q    Type
REMARK                         _______ _______ _______ _____ _____    ______ ____
ROOT
ATOM      1  C   UNL     1       8.495   3.295  -0.397  0.00  0.00    +0.088 C 
ATOM      2  C   UNL     1       7.591   3.089   0.791  0.00  0.00    +0.129 A 
ATOM      3  N   UNL     1       6.362   2.646   0.598  0.00  0.00    -0.217 NA
ATOM      4  C   UNL     1       5.519   2.450   1.599  0.00  0.00    +0.131 A 
ATOM      5  C   UNL     1       5.948   2.713   2.928  0.00  0.00    +0.055 A 
ATOM      6  C   UNL     1       5.221   2.573   4.186  0.00  0.00    +0.002 A 
ATOM      7  C   UNL     1       5.852   2.888   5.341  0.00  0.00    +0.056 A 
ATOM      8  S   UNL     1       7.474   3.396   4.804  0.00  0.00    -0.076 S 
ATOM      9  C   UNL     1       7.273   3.176   3.056  0.00  0.00    +0.114 A 
ATOM     10  N   UNL     1       8.046   3.349   2.001  0.00  0.00    -0.225 NA
ATOM     11  N   UNL     1       4.237   1.991   1.356  0.00  0.00    -0.324 N 
ATOM     12  H   UNL     1       3.597   1.930   2.082  0.00  0.00    +0.148 HD
ENDROOT
BRANCH   6  13
ATOM     13  C   UNL     1       3.818   2.095   4.198  0.00  0.00    -0.017 A 
ATOM     14  C   UNL     1       2.810   2.898   4.729  0.00  0.00    +0.008 A 
ATOM     15  C   UNL     1       1.505   2.450   4.732  0.00  0.00    +0.001 A 
ATOM     16  C   UNL     1       1.198   1.203   4.220  0.00  0.00    +0.000 A 
ATOM     17  C   UNL     1       2.195   0.399   3.697  0.00  0.00    +0.001 A 
ATOM     18  C   UNL     1       3.503   0.838   3.683  0.00  0.00    +0.008 A 
ENDBRANCH   6  13
BRANCH  11  19
ATOM     19  C   UNL     1       3.846   1.595   0.000  0.00  0.00    +0.145 C 
BRANCH  19  20
ATOM     20  C   UNL     1       2.411   1.136   0.006  0.00  0.00    +0.009 A 
ATOM     21  C   UNL     1       1.282   1.861  -0.187  0.00  0.00    +0.015 A 
ATOM     22  C   UNL     1       0.057   1.221  -0.137  0.00  0.00    +0.036 A 
ATOM     23  C   UNL     1       0.022  -0.112   0.104  0.00  0.00    +0.142 A 
ATOM     24  S   UNL     1       1.756  -0.504   0.269  0.00  0.00    -0.072 S 
BRANCH  23  25
ATOM     25  S   UNL     1      -1.373  -1.182   0.223  0.00  0.00    +0.062 S 
ATOM     26  O   UNL     1      -0.967  -2.294   1.008  0.00  0.00    -0.153 OA
ATOM     27  O   UNL     1      -2.482  -0.365   0.574  0.00  0.00    -0.153 OA
BRANCH  25  28
ATOM     28  N   UNL     1      -1.677  -1.762  -1.299  0.00  0.00    -0.203 NA
ATOM     29  H   UNL     1      -2.072  -2.640  -1.413  0.00  0.00    +0.144 HD
ATOM     30  H   UNL     1      -1.459  -1.223  -2.075  0.00  0.00    +0.144 HD
ENDBRANCH  25  28
ENDBRANCH  23  25
ENDBRANCH  19  20
ENDBRANCH  11  19
TORSDOF 5
