REMARK  Name = ZINC44713083
REMARK  2 active torsions:
REMARK  status: ('A' for Active; 'I' for Inactive)
REMARK    1  A    between atoms: C_2  and  C_3
REMARK    2  A    between atoms: C_3  and  O_14
REMARK                            x       y       z     vdW  Elec       q    Type
REMARK                         _______ _______ _______ _____ _____    ______ ____
ROOT
ATOM      1  C   UNL     1      -1.293  -0.775   0.010  0.00  0.00    +0.187 C 
ATOM      2  C   UNL     1      -1.355  -1.718  -1.169  0.00  0.00    +0.018 A 
ATOM      3  C   UNL     1      -1.338  -1.516  -2.531  0.00  0.00    +0.010 A 
ATOM      4  C   UNL     1      -1.411  -2.599  -3.390  0.00  0.00    +0.016 A 
ATOM      5  C   UNL     1      -1.500  -3.880  -2.877  0.00  0.00    +0.020 A 
ATOM      6  C   UNL     1      -1.517  -4.085  -1.512  0.00  0.00    +0.039 A 
ATOM      7  C   UNL     1      -1.444  -3.000  -0.641  0.00  0.00    +0.041 A 
ATOM      8  N   UNL     1      -1.444  -2.948   0.754  0.00  0.00    -0.282 N 
ATOM      9  C   UNL     1      -1.358  -1.689   1.216  0.00  0.00    +0.258 C 
ATOM     10  O   UNL     1      -1.337  -1.349   2.380  0.00  0.00    -0.272 OA
ATOM     11 BR   UNL     1      -1.601  -5.359  -4.051  0.00  0.00    -0.050 Br
ATOM     12  H   UNL     1      -1.499  -3.730   1.324  0.00  0.00    +0.155 HD
ENDROOT
BRANCH   1  14
ATOM     13  C   UNL     1      -0.016   1.306   0.009  0.00  0.00    +0.007 C 
ATOM     14  C   UNL     1       0.002  -0.004   0.002  0.00  0.00    +0.014 C 
ENDBRANCH   1  14
BRANCH   1  15
ATOM     15  O   UNL     1      -2.407   0.119  -0.001  0.00  0.00    -0.372 OA
ATOM     16  H   UNL     1      -2.432   0.726   0.751  0.00  0.00    +0.212 HD
ENDBRANCH   1  15
TORSDOF 2
