REMARK  Name = ZINC38732809
REMARK  7 active torsions:
REMARK  status: ('A' for Active; 'I' for Inactive)
REMARK    1  A    between atoms: C_1  and  C_2
REMARK    2  A    between atoms: C_2  and  C_3
REMARK    3  A    between atoms: C_3  and  N_4
REMARK    4  A    between atoms: C_8  and  C_9
REMARK    5  A    between atoms: C_13  and  C_28
REMARK    6  A    between atoms: C_18  and  N_19
REMARK    7  A    between atoms: C_22  and  C_25
REMARK                            x       y       z     vdW  Elec       q    Type
REMARK                         _______ _______ _______ _____ _____    ______ ____
ROOT
ATOM      1  C   UNL     1      -1.156  -6.435  -1.748  0.00  0.00    +0.017 A 
ATOM      2  C   UNL     1      -1.157  -6.828  -0.413  0.00  0.00    +0.021 A 
ATOM      3  C   UNL     1      -1.152  -8.204  -0.129  0.00  0.00    +0.001 A 
ATOM      4  C   UNL     1      -1.153  -8.671   1.197  0.00  0.00    +0.013 A 
ATOM      5  C   UNL     1      -1.148 -10.011   1.439  0.00  0.00    -0.050 A 
ATOM      6  C   UNL     1      -1.142 -10.926   0.388  0.00  0.00    +0.005 A 
ATOM      7  C   UNL     1      -1.141 -10.509  -0.908  0.00  0.00    +0.028 A 
ATOM      8  C   UNL     1      -1.146  -9.134  -1.199  0.00  0.00    +0.073 A 
ATOM      9  N   UNL     1      -1.145  -8.705  -2.468  0.00  0.00    -0.231 NA
ATOM     10  C   UNL     1      -1.155  -7.424  -2.764  0.00  0.00    +0.129 A 
ATOM     11  C   UNL     1      -1.149 -10.511   2.861  0.00  0.00    +0.044 C 
ENDROOT
BRANCH   1  16
ATOM     12  N   UNL     1      -1.859  -1.947  -0.175  0.00  0.00    -0.255 N 
ATOM     13  C   UNL     1      -1.429  -2.611  -1.235  0.00  0.00    +0.258 C 
ATOM     14  O   UNL     1      -0.981  -2.036  -2.210  0.00  0.00    -0.269 OA
ATOM     15  C   UNL     1      -1.521  -4.083  -1.177  0.00  0.00    +0.077 C 
ATOM     16  C   UNL     1      -1.162  -5.011  -2.101  0.00  0.00    +0.031 C 
ATOM     17  S   UNL     1      -2.235  -4.310   0.447  0.00  0.00    -0.061 S 
ATOM     18  C   UNL     1      -2.350  -2.588   0.905  0.00  0.00    +0.121 C 
ATOM     19  S   UNL     1      -2.944  -1.913   2.362  0.00  0.00    -0.027 S 
BRANCH  12  20
ATOM     20  C   UNL     1      -1.795  -0.484  -0.172  0.00  0.00    +0.115 C 
BRANCH  20  22
ATOM     21  C   UNL     1      -0.381   1.495   0.400  0.00  0.00    +0.005 C 
ATOM     22  C   UNL     1      -0.448  -0.034   0.397  0.00  0.00    +0.016 C 
ENDBRANCH  20  22
ENDBRANCH  12  20
ENDBRANCH   1  16
BRANCH  10  23
ATOM     23  N   UNL     1      -1.160  -7.035  -4.090  0.00  0.00    -0.315 N 
ATOM     24  C   UNL     1       0.102  -6.824  -4.813  0.00  0.00    +0.107 C 
ATOM     25  C   UNL     1       0.083  -7.665  -6.093  0.00  0.00    +0.031 C 
ATOM     26  C   UNL     1      -1.170  -7.325  -6.904  0.00  0.00    +0.078 C 
ATOM     27  C   UNL     1      -2.417  -7.665  -6.085  0.00  0.00    +0.031 C 
ATOM     28  C   UNL     1      -2.427  -6.830  -4.806  0.00  0.00    +0.107 C 
BRANCH  26  29
ATOM     29  C   UNL     1      -1.175  -8.126  -8.181  0.00  0.00    +0.214 C 
ATOM     30  O   UNL     1      -0.266  -8.892  -8.419  0.00  0.00    -0.276 OA
ATOM     31  N   UNL     1      -2.189  -7.990  -9.057  0.00  0.00    -0.329 N 
ATOM     32  H   UNL     1      -2.916  -7.377  -8.867  0.00  0.00    +0.145 HD
ATOM     33  H   UNL     1      -2.192  -8.505  -9.879  0.00  0.00    +0.145 HD
ENDBRANCH  26  29
ENDBRANCH  10  23
TORSDOF 5
