REMARK  Name = ZINC48794814
REMARK  8 active torsions:
REMARK  status: ('A' for Active; 'I' for Inactive)
REMARK    1  A    between atoms: C_1  and  C_2
REMARK    2  A    between atoms: C_2  and  N_3
REMARK    3  A    between atoms: N_3  and  C_4
REMARK    4  A    between atoms: C_4  and  C_5
REMARK    5  A    between atoms: C_10  and  O_11
REMARK    6  A    between atoms: O_11  and  C_12
REMARK    7  A    between atoms: C_12  and  C_14
REMARK    8  A    between atoms: C_12  and  C_15
REMARK                            x       y       z     vdW  Elec       q    Type
REMARK                         _______ _______ _______ _____ _____    ______ ____
ROOT
ATOM      1  C   UNL     1      -2.770  -2.503   0.015  0.00  0.00    -0.022 A 
ATOM      2  C   UNL     1      -3.337  -2.938   1.198  0.00  0.00    +0.005 A 
ATOM      3  C   UNL     1      -4.634  -3.417   1.208  0.00  0.00    +0.002 A 
ATOM      4  C   UNL     1      -5.367  -3.461   0.037  0.00  0.00    +0.019 A 
ATOM      5  C   UNL     1      -4.805  -3.027  -1.148  0.00  0.00    +0.060 A 
ATOM      6  C   UNL     1      -3.504  -2.541  -1.161  0.00  0.00    +0.137 A 
ATOM      7 BR   UNL     1      -5.808  -3.088  -2.750  0.00  0.00    -0.047 Br
ENDROOT
BRANCH   1   8
ATOM      8  C   UNL     1      -1.356  -1.981   0.004  0.00  0.00    -0.043 C 
BRANCH   8   9
ATOM      9  N   UNL     1      -1.376  -0.512   0.012  0.00  0.00    +0.382 N 
ATOM     10  H   UNL     1      -1.848  -0.187   0.843  0.00  0.00    -0.085 HD
ATOM     11  H   UNL     1      -1.864  -0.178  -0.805  0.00  0.00    -0.085 HD
BRANCH   9  13
ATOM     12  C   UNL     1      -0.019   1.526   0.010  0.00  0.00    -0.017 C 
ATOM     13  C   UNL     1       0.002  -0.004   0.002  0.00  0.00    -0.086 C 
ENDBRANCH   9  13
ENDBRANCH   8   9
ENDBRANCH   1   8
BRANCH   6  14
ATOM     14  O   UNL     1      -2.950  -2.108  -2.324  0.00  0.00    -0.479 OA
BRANCH  14  15
ATOM     15  C   UNL     1      -2.254  -3.077  -3.111  0.00  0.00    +0.256 C 
ATOM     16  C   UNL     1      -3.228  -3.735  -4.090  0.00  0.00    +0.062 C 
BRANCH  15  17
ATOM     17  C   UNL     1      -1.149  -2.399  -3.880  0.00  0.00    +0.261 C 
ATOM     18  O   UNL     1      -0.976  -1.205  -3.766  0.00  0.00    -0.271 OA
ATOM     19  N   UNL     1      -0.355  -3.121  -4.695  0.00  0.00    -0.237 N 
ATOM     20  C   UNL     1       0.633  -2.515  -5.383  0.00  0.00    +0.303 C 
ATOM     21  O   UNL     1       0.807  -1.318  -5.268  0.00  0.00    -0.253 OA
ATOM     22  N   UNL     1       1.428  -3.237  -6.197  0.00  0.00    -0.313 N 
ATOM     23  H   UNL     1      -0.494  -4.077  -4.786  0.00  0.00    +0.159 HD
ATOM     24  H   UNL     1       1.289  -4.192  -6.289  0.00  0.00    +0.146 HD
ATOM     25  H   UNL     1       2.139  -2.800  -6.693  0.00  0.00    +0.146 HD
ENDBRANCH  15  17
ENDBRANCH  14  15
ENDBRANCH   6  14
TORSDOF 6
