REMARK  Name = ZINC49458989
REMARK  8 active torsions:
REMARK  status: ('A' for Active; 'I' for Inactive)
REMARK    1  A    between atoms: C_1  and  C_2
REMARK    2  A    between atoms: C_2  and  C_3
REMARK    3  A    between atoms: C_3  and  C_5
REMARK    4  A    between atoms: C_3  and  N_6
REMARK    5  A    between atoms: C_7  and  C_9
REMARK    6  A    between atoms: C_9  and  C_11
REMARK    7  A    between atoms: C_9  and  N_12
REMARK    8  A    between atoms: N_15  and  C_16
REMARK                            x       y       z     vdW  Elec       q    Type
REMARK                         _______ _______ _______ _____ _____    ______ ____
ROOT
ATOM      1  N   UNL     1       4.800   0.538  -3.668  0.00  0.00    -0.288 N 
ATOM      2  C   UNL     1       6.123   0.402  -3.886  0.00  0.00    +0.304 C 
ATOM      3  O   UNL     1       6.877   0.206  -2.952  0.00  0.00    -0.252 OA
ATOM      4  N   UNL     1       6.612   0.484  -5.139  0.00  0.00    -0.269 N 
ATOM      5  H   UNL     1       4.199   0.694  -4.413  0.00  0.00    +0.151 HD
ATOM      6  H   UNL     1       6.005   0.574  -5.891  0.00  0.00    +0.156 HD
ENDROOT
BRANCH   4   7
ATOM      7  C   UNL     1       7.994   0.438  -5.357  0.00  0.00    +0.048 A 
ATOM      8  C   UNL     1       8.799  -0.355  -4.549  0.00  0.00    +0.024 A 
ATOM      9  C   UNL     1      10.162  -0.398  -4.766  0.00  0.00    +0.002 A 
ATOM     10  C   UNL     1      10.726   0.347  -5.785  0.00  0.00    +0.001 A 
ATOM     11  C   UNL     1       9.928   1.137  -6.591  0.00  0.00    +0.016 A 
ATOM     12  C   UNL     1       8.562   1.180  -6.384  0.00  0.00    +0.035 A 
ATOM     13  I   UNL     1       7.351   2.371  -7.611  0.00  0.00    -0.042 I 
ENDBRANCH   4   7
BRANCH   1  14
ATOM     14  C   UNL     1       4.269   0.449  -2.305  0.00  0.00    +0.157 C 
ATOM     15  C   UNL     1       4.372   1.817  -1.628  0.00  0.00    +0.038 C 
BRANCH  14  17
ATOM     16  N   UNL     1       2.127  -0.129  -1.213  0.00  0.00    -0.311 N 
ATOM     17  C   UNL     1       2.825   0.021  -2.356  0.00  0.00    +0.233 C 
ATOM     18  O   UNL     1       2.292  -0.190  -3.425  0.00  0.00    -0.274 OA
ATOM     19  H   UNL     1       2.553   0.040  -0.358  0.00  0.00    +0.149 HD
BRANCH  16  20
ATOM     20  C   UNL     1       0.723  -0.545  -1.262  0.00  0.00    +0.070 C 
ATOM     21  C   UNL     1       0.646  -2.071  -1.336  0.00  0.00    +0.028 C 
BRANCH  20  23
ATOM     22  C   UNL     1      -0.029   1.471   0.007  0.00  0.00    +0.005 C 
ATOM     23  C   UNL     1       0.003  -0.059  -0.003  0.00  0.00    +0.018 C 
ENDBRANCH  20  23
ENDBRANCH  16  20
ENDBRANCH  14  17
ENDBRANCH   1  14
TORSDOF 5
