REMARK  Name = ZINC42747547
REMARK  4 active torsions:
REMARK  status: ('A' for Active; 'I' for Inactive)
REMARK    1  A    between atoms: C_1  and  C_2
REMARK    2  A    between atoms: C_6  and  C_20
REMARK    3  A    between atoms: N_9  and  S_10
REMARK    4  A    between atoms: S_10  and  N_13
REMARK                            x       y       z     vdW  Elec       q    Type
REMARK                         _______ _______ _______ _____ _____    ______ ____
ROOT
ATOM      1  C   UNL     1      -0.200   0.960  -0.037  0.00  0.00    +0.026 C 
ATOM      2  C   UNL     1       0.099  -0.530   0.141  0.00  0.00    +0.078 C 
ATOM      3  C   UNL     1       0.773  -1.073  -1.123  0.00  0.00    +0.021 C 
ATOM      4  C   UNL     1       1.195  -2.525  -0.887  0.00  0.00    +0.015 C 
ATOM      5  C   UNL     1       2.204  -2.584   0.262  0.00  0.00    +0.090 C 
ATOM      6  C   UNL     1       1.546  -2.058   1.541  0.00  0.00    +0.123 C 
ATOM      7  N   UNL     1       1.006  -0.717   1.281  0.00  0.00    -0.163 NA
ENDROOT
BRANCH   5   8
ATOM      8  C   UNL     1       3.401  -1.734  -0.076  0.00  0.00    +0.215 C 
ATOM      9  O   UNL     1       3.702  -0.800   0.637  0.00  0.00    -0.276 OA
ATOM     10  N   UNL     1       4.138  -2.010  -1.170  0.00  0.00    -0.329 N 
ATOM     11  H   UNL     1       3.897  -2.757  -1.740  0.00  0.00    +0.145 HD
ATOM     12  H   UNL     1       4.909  -1.463  -1.387  0.00  0.00    +0.145 HD
ENDBRANCH   5   8
BRANCH   7  13
ATOM     13  S   UNL     1       1.415   0.561   2.252  0.00  0.00    +0.100 S 
ATOM     14  O   UNL     1       2.692   0.263   2.800  0.00  0.00    -0.141 OA
ATOM     15  O   UNL     1       1.165   1.740   1.499  0.00  0.00    -0.141 OA
BRANCH  13  16
ATOM     16  N   UNL     1       0.348   0.574   3.519  0.00  0.00    -0.166 NA
ATOM     17  C   UNL     1      -0.801   1.448   3.449  0.00  0.00    +0.110 C 
ATOM     18  C   UNL     1      -0.439   2.831   4.043  0.00  0.00    +0.017 C 
ATOM     19  C   UNL     1      -0.291   2.737   5.504  0.00  0.00    +0.001 C 
ATOM     20  C   UNL     1       0.839   1.821   5.963  0.00  0.00    +0.001 C 
ATOM     21  C   UNL     1       0.340   0.398   6.016  0.00  0.00    +0.017 C 
ATOM     22  C   UNL     1       0.608  -0.312   4.671  0.00  0.00    +0.110 C 
ENDBRANCH  13  16
ENDBRANCH   7  13
TORSDOF 3
