REMARK  Name = ZINC04741792
REMARK  2 active torsions:
REMARK  status: ('A' for Active; 'I' for Inactive)
REMARK    1  A    between atoms: C_4  and  C_21
REMARK    2  A    between atoms: C_5  and  C_7
REMARK                            x       y       z     vdW  Elec       q    Type
REMARK                         _______ _______ _______ _____ _____    ______ ____
ROOT
ATOM      1  C   UNL     1      -0.224   4.060   0.379  0.00  0.00    +0.218 C 
ATOM      2  C   UNL     1       0.059   6.473   0.596  0.00  0.00    +0.159 C 
ATOM      3  N   UNL     1       1.428   6.411   0.413  0.00  0.00    -0.259 N 
ATOM      4  C   UNL     1       2.013   5.154   0.484  0.00  0.00    +0.205 A 
ATOM      5  N   UNL     1       1.235   4.018   0.476  0.00  0.00    -0.287 N 
ATOM      6  C   UNL     1       2.082   2.952   0.567  0.00  0.00    +0.072 A 
ATOM      7  C   UNL     1       1.874   1.579   0.607  0.00  0.00    +0.028 A 
ATOM      8  C   UNL     1       2.996   0.772   0.704  0.00  0.00    +0.002 A 
ATOM      9  C   UNL     1       4.275   1.298   0.759  0.00  0.00    +0.002 A 
ATOM     10  C   UNL     1       4.510   2.660   0.721  0.00  0.00    +0.030 A 
ATOM     11  C   UNL     1       3.391   3.495   0.624  0.00  0.00    +0.091 A 
ATOM     12  N   UNL     1       3.274   4.833   0.565  0.00  0.00    -0.214 NA
ATOM     13  N   UNL     1      -0.523   7.702   0.792  0.00  0.00    -0.332 N 
ATOM     14  H   UNL     1       1.955   7.208   0.244  0.00  0.00    +0.158 HD
ATOM     15  H   UNL     1      -1.482   7.770   0.923  0.00  0.00    +0.145 HD
ATOM     16  H   UNL     1       0.025   8.503   0.800  0.00  0.00    +0.145 HD
ATOM     17  N   UNL     1      -0.797   5.442   0.607  0.00  0.00    -0.337 N 
ATOM     18  H   UNL     1      -1.802   5.585   0.763  0.00  0.00    +0.164 HD
ENDROOT
BRANCH   1  23
ATOM     19  C   UNL     1      -0.616   1.944   3.481  0.00  0.00    +0.000 A 
ATOM     20  C   UNL     1      -1.915   1.492   3.344  0.00  0.00    +0.001 A 
ATOM     21  C   UNL     1      -2.669   1.875   2.251  0.00  0.00    +0.013 A 
ATOM     22  C   UNL     1      -2.122   2.709   1.293  0.00  0.00    +0.062 A 
ATOM     23  C   UNL     1      -0.821   3.156   1.426  0.00  0.00    +0.007 A 
ATOM     24  C   UNL     1      -0.070   2.777   2.523  0.00  0.00    +0.008 A 
BRANCH  22  25
ATOM     25  C   UNL     1      -2.944   3.126   0.100  0.00  0.00    +0.418 C 
ATOM     26  F   UNL     1      -4.223   2.568   0.197  0.00  0.00    -0.166 F 
ATOM     27  F   UNL     1      -2.326   2.676  -1.072  0.00  0.00    -0.166 F 
ATOM     28  F   UNL     1      -3.045   4.521   0.068  0.00  0.00    -0.166 F 
ENDBRANCH  22  25
ENDBRANCH   1  23
TORSDOF 2
