REMARK  Name = ZINC14151986
REMARK  9 active torsions:
REMARK  status: ('A' for Active; 'I' for Inactive)
REMARK    1  A    between atoms: C_1  and  C_2
REMARK    2  A    between atoms: C_4  and  C_31
REMARK    3  A    between atoms: C_8  and  N_30
REMARK    4  A    between atoms: C_9  and  C_11
REMARK    5  A    between atoms: C_11  and  O_13
REMARK    6  A    between atoms: O_13  and  C_14
REMARK    7  A    between atoms: C_14  and  C_15
REMARK    8  A    between atoms: N_20  and  C_21
REMARK    9  A    between atoms: C_27  and  C_29
REMARK                            x       y       z     vdW  Elec       q    Type
REMARK                         _______ _______ _______ _____ _____    ______ ____
ROOT
ATOM      1  O   UNL     1       3.650   5.787  -0.574  0.00  0.00    -0.451 OA
ENDROOT
BRANCH   1   2
ATOM      2  C   UNL     1       4.080   4.507  -0.574  0.00  0.00    +0.348 C 
ATOM      3  O   UNL     1       5.271   4.266  -0.631  0.00  0.00    -0.244 OA
BRANCH   2  12
ATOM      4  C   UNL     1       3.552  -0.999  -0.447  0.00  0.00    +0.044 C 
ATOM      5  C   UNL     1       2.256  -0.233  -0.392  0.00  0.00    -0.037 A 
ATOM      6  C   UNL     1       1.054  -0.897  -0.317  0.00  0.00    +0.027 A 
ATOM      7  C   UNL     1      -0.137  -0.190  -0.267  0.00  0.00    +0.040 A 
ATOM      8  N   UNL     1      -0.133   1.129  -0.291  0.00  0.00    -0.245 NA
ATOM      9  C   UNL     1       0.991   1.810  -0.363  0.00  0.00    +0.111 A 
ATOM     10  C   UNL     1       2.257   1.184  -0.418  0.00  0.00    +0.032 A 
ATOM     11  C   UNL     1       3.392   2.091  -0.494  0.00  0.00    +0.056 A 
ATOM     12  C   UNL     1       3.146   3.447  -0.505  0.00  0.00    +0.119 A 
ATOM     13  S   UNL     1       1.369   3.545  -0.414  0.00  0.00    -0.060 S 
ATOM     14  C   UNL     1      -1.446  -0.932  -0.185  0.00  0.00    +0.065 C 
BRANCH  11  15
ATOM     15  N   UNL     1       4.689   1.603  -0.554  0.00  0.00    -0.356 N 
ATOM     16  H   UNL     1       4.858   0.718  -0.913  0.00  0.00    +0.142 HD
ATOM     17  H   UNL     1       5.427   2.147  -0.237  0.00  0.00    +0.142 HD
ENDBRANCH  11  15
ENDBRANCH   2  12
ENDBRANCH   1   2
BRANCH   1  18
ATOM     18  C   UNL     1       4.648   6.807  -0.644  0.00  0.00    +0.328 C 
BRANCH  18  19
ATOM     19  C   UNL     1       3.985   8.160  -0.634  0.00  0.00    +0.258 C 
ATOM     20  O   UNL     1       2.777   8.243  -0.572  0.00  0.00    -0.272 OA
ATOM     21  N   UNL     1       4.735   9.278  -0.693  0.00  0.00    -0.237 N 
ATOM     22  C   UNL     1       4.142  10.489  -0.684  0.00  0.00    +0.306 C 
ATOM     23  O   UNL     1       2.931  10.572  -0.622  0.00  0.00    -0.252 OA
ATOM     24  N   UNL     1       4.892  11.607  -0.743  0.00  0.00    -0.296 N 
ATOM     25  H   UNL     1       5.701   9.212  -0.743  0.00  0.00    +0.159 HD
ATOM     26  H   UNL     1       5.859  11.541  -0.793  0.00  0.00    +0.151 HD
BRANCH  24  27
ATOM     27  C   UNL     1       4.247  12.923  -0.733  0.00  0.00    +0.077 C 
ATOM     28  C   UNL     1       3.986  13.351   0.712  0.00  0.00    +0.022 C 
ATOM     29  C   UNL     1       3.312  14.725   0.723  0.00  0.00    +0.002 C 
ATOM     30  C   UNL     1       4.228  15.747   0.046  0.00  0.00    +0.000 C 
ATOM     31  C   UNL     1       4.490  15.318  -1.399  0.00  0.00    +0.005 C 
ATOM     32  C   UNL     1       5.163  13.944  -1.410  0.00  0.00    +0.006 C 
ATOM     33  C   UNL     1       5.425  13.516  -2.855  0.00  0.00    +0.009 C 
ENDBRANCH  24  27
ENDBRANCH  18  19
ENDBRANCH   1  18
TORSDOF 6
