REMARK  Name = ZINC37392209
REMARK  2 active torsions:
REMARK  status: ('A' for Active; 'I' for Inactive)
REMARK    1  A    between atoms: C_11  and  N_13
REMARK    2  A    between atoms: N_13  and  C_14
REMARK                            x       y       z     vdW  Elec       q    Type
REMARK                         _______ _______ _______ _____ _____    ______ ____
ROOT
ATOM      1  C   UNL     1      -0.017   1.381   0.010  0.00  0.00    +0.039 A 
ATOM      2  C   UNL     1       1.175   2.085   0.002  0.00  0.00    +0.010 A 
ATOM      3  C   UNL     1       2.373   1.408  -0.013  0.00  0.00    +0.003 A 
ATOM      4  C   UNL     1       2.406   0.018  -0.021  0.00  0.00    +0.042 A 
ATOM      5  C   UNL     1       1.204  -0.685  -0.013  0.00  0.00    +0.062 A 
ATOM      6  C   UNL     1       0.002  -0.004   0.002  0.00  0.00    +0.125 A 
ATOM      7  F   UNL     1      -1.161  -0.692   0.010  0.00  0.00    -0.205 F 
ATOM      8  N   UNL     1       3.727  -0.432  -0.035  0.00  0.00    -0.283 N 
ATOM      9  C   UNL     1       4.610   0.580  -0.038  0.00  0.00    +0.242 C 
ATOM     10  O   UNL     1       5.819   0.482  -0.049  0.00  0.00    -0.273 OA
ATOM     11  C   UNL     1       3.813   1.867  -0.024  0.00  0.00    +0.190 C 
ATOM     12  H   UNL     1       3.978  -1.369  -0.042  0.00  0.00    +0.155 HD
ENDROOT
BRANCH  11  13
ATOM     13  N   UNL     1       4.091   2.656  -1.226  0.00  0.00    -0.328 N 
ATOM     14  H   UNL     1       3.556   2.528  -2.025  0.00  0.00    +0.147 HD
BRANCH  13  15
ATOM     15  C   UNL     1       5.127   3.595  -1.223  0.00  0.00    +0.047 A 
ATOM     16  C   UNL     1       5.898   3.775  -0.082  0.00  0.00    +0.025 A 
ATOM     17  C   UNL     1       6.922   4.703  -0.081  0.00  0.00    +0.017 A 
ATOM     18  C   UNL     1       7.180   5.451  -1.216  0.00  0.00    +0.019 A 
ATOM     19  C   UNL     1       6.414   5.274  -2.354  0.00  0.00    +0.037 A 
ATOM     20  C   UNL     1       5.392   4.344  -2.363  0.00  0.00    +0.063 A 
ATOM     21 CL   UNL     1       4.436   4.117  -3.794  0.00  0.00    -0.082 Cl
ATOM     22 BR   UNL     1       8.583   6.720  -1.210  0.00  0.00    -0.050 Br
ENDBRANCH  13  15
ENDBRANCH  11  13
TORSDOF 2
