REMARK  Name = ZINC65371856
REMARK  7 active torsions:
REMARK  status: ('A' for Active; 'I' for Inactive)
REMARK    1  A    between atoms: C_1  and  C_2
REMARK    2  A    between atoms: C_5  and  C_8
REMARK    3  A    between atoms: C_8  and  C_10
REMARK    4  A    between atoms: C_8  and  N_11
REMARK    5  A    between atoms: C_20  and  C_22
REMARK    6  A    between atoms: C_22  and  C_23
REMARK    7  A    between atoms: C_23  and  N_24
REMARK                            x       y       z     vdW  Elec       q    Type
REMARK                         _______ _______ _______ _____ _____    ______ ____
ROOT
ATOM      1  N   UNL     1       0.958  -4.666   1.149  0.00  0.00    -0.322 N 
ATOM      2  C   UNL     1       1.547  -5.911   1.090  0.00  0.00    +0.130 A 
ATOM      3  C   UNL     1       2.415  -6.355   2.118  0.00  0.00    +0.040 A 
ATOM      4  C   UNL     1       2.715  -5.564   3.232  0.00  0.00    +0.013 A 
ATOM      5  C   UNL     1       3.557  -6.045   4.190  0.00  0.00    +0.001 A 
ATOM      6  C   UNL     1       4.122  -7.312   4.075  0.00  0.00    +0.002 A 
ATOM      7  C   UNL     1       3.850  -8.107   3.002  0.00  0.00    +0.028 A 
ATOM      8  C   UNL     1       2.988  -7.644   1.998  0.00  0.00    +0.076 A 
ATOM      9  N   UNL     1       2.686  -8.387   0.923  0.00  0.00    -0.232 NA
ATOM     10  C   UNL     1       1.876  -7.924   0.001  0.00  0.00    +0.130 A 
ATOM     11  N   UNL     1       1.312  -6.728   0.072  0.00  0.00    -0.217 NA
ATOM     12  H   UNL     1       1.139  -4.079   1.899  0.00  0.00    +0.148 HD
ENDROOT
BRANCH   1  13
ATOM     13  C   UNL     1       0.059  -4.229   0.077  0.00  0.00    +0.100 C 
ATOM     14  C   UNL     1      -1.353  -4.748   0.354  0.00  0.00    +0.033 C 
BRANCH  13  19
ATOM     15  C   UNL     1      -0.018   1.503   0.010  0.00  0.00    +0.065 C 
ATOM     16  C   UNL     1       0.002  -0.004   0.002  0.00  0.00    +0.038 A 
ATOM     17  C   UNL     1       0.005  -0.681  -1.203  0.00  0.00    +0.023 A 
ATOM     18  C   UNL     1       0.024  -2.067  -1.200  0.00  0.00    +0.008 A 
ATOM     19  C   UNL     1       0.039  -2.724   0.021  0.00  0.00    -0.009 A 
ATOM     20  C   UNL     1       0.035  -1.980   1.186  0.00  0.00    +0.116 A 
ATOM     21  N   UNL     1       0.022  -0.662   1.145  0.00  0.00    -0.260 NA
ENDBRANCH  13  19
ENDBRANCH   1  13
BRANCH  10  22
ATOM     22  C   UNL     1       1.567  -8.795  -1.189  0.00  0.00    +0.057 C 
BRANCH  22  23
ATOM     23  C   UNL     1       0.338  -9.655  -0.887  0.00  0.00    -0.079 C 
BRANCH  23  24
ATOM     24  N   UNL     1       0.037 -10.504  -2.047  0.00  0.00    +0.378 N 
ATOM     25  H   UNL     1      -0.773 -11.071  -1.848  0.00  0.00    -0.090 HD
ATOM     26  H   UNL     1      -0.149  -9.923  -2.850  0.00  0.00    -0.090 HD
ATOM     27  H   UNL     1       0.827 -11.102  -2.240  0.00  0.00    -0.090 HD
ENDBRANCH  23  24
ENDBRANCH  22  23
ENDBRANCH  10  22
TORSDOF 5
