REMARK  Name = ZINC43298019
REMARK  5 active torsions:
REMARK  status: ('A' for Active; 'I' for Inactive)
REMARK    1  A    between atoms: C_1  and  C_2
REMARK    2  A    between atoms: C_3  and  C_19
REMARK    3  A    between atoms: C_7  and  C_8
REMARK    4  A    between atoms: C_8  and  N_9
REMARK    5  A    between atoms: C_13  and  C_15
REMARK                            x       y       z     vdW  Elec       q    Type
REMARK                         _______ _______ _______ _____ _____    ______ ____
ROOT
ATOM      1  C   UNL     1       0.178   1.499   0.003  0.00  0.00    +0.046 C 
ATOM      2  C   UNL     1       0.096  -0.006  -0.002  0.00  0.00    -0.020 A 
ATOM      3  C   UNL     1      -0.036  -0.711  -1.189  0.00  0.00    +0.064 A 
ATOM      4  N   UNL     1      -0.105  -2.027  -1.170  0.00  0.00    -0.152 NA
ATOM      5  N   UNL     1      -0.055  -2.700  -0.078  0.00  0.00    -0.129 NA
ATOM      6  C   UNL     1       0.070  -2.116   1.103  0.00  0.00    +0.181 A 
ATOM      7  C   UNL     1       0.157  -0.728   1.181  0.00  0.00    +0.017 A 
ATOM      8  N   UNL     1       0.121  -2.889   2.267  0.00  0.00    -0.219 N 
ATOM      9  C   UNL     1       0.543  -4.177   2.355  0.00  0.00    +0.117 A 
ATOM     10  C   UNL     1       0.436  -4.555   3.650  0.00  0.00    +0.054 A 
ATOM     11  C   UNL     1      -0.066  -3.470   4.377  0.00  0.00    +0.166 A 
ATOM     12  N   UNL     1      -0.250  -2.471   3.552  0.00  0.00    -0.161 NA
ATOM     13  C   UNL     1      -0.101   0.028  -2.501  0.00  0.00    +0.068 C 
ENDROOT
BRANCH  11  14
ATOM     14  C   UNL     1      -0.343  -3.453   5.858  0.00  0.00    +0.436 C 
ATOM     15  F   UNL     1       0.802  -3.030   6.542  0.00  0.00    -0.164 F 
ATOM     16  F   UNL     1      -1.398  -2.574   6.125  0.00  0.00    -0.164 F 
ATOM     17  F   UNL     1      -0.690  -4.741   6.282  0.00  0.00    -0.164 F 
ENDBRANCH  11  14
BRANCH   7  18
ATOM     18  C   UNL     1       0.306  -0.031   2.509  0.00  0.00    +0.117 C 
BRANCH  18  19
ATOM     19  N   UNL     1      -1.022   0.196   3.095  0.00  0.00    -0.326 NA
ATOM     20  H   UNL     1      -0.949   0.662   3.987  0.00  0.00    +0.119 HD
ATOM     21  H   UNL     1      -1.612   0.717   2.462  0.00  0.00    +0.119 HD
ENDBRANCH  18  19
ENDBRANCH   7  18
TORSDOF 3
