REMARK  Name = ZINC00718174
REMARK  2 active torsions:
REMARK  status: ('A' for Active; 'I' for Inactive)
REMARK    1  A    between atoms: C_5  and  C_7
REMARK    2  A    between atoms: C_12  and  C_22
REMARK                            x       y       z     vdW  Elec       q    Type
REMARK                         _______ _______ _______ _____ _____    ______ ____
ROOT
ATOM      1  C   UNL     1       7.098  -1.380  -1.791  0.00  0.00    +0.033 C 
ATOM      2  C   UNL     1       5.659  -1.772  -1.459  0.00  0.00    +0.059 C 
ATOM      3  C   UNL     1       4.869  -0.541  -1.047  0.00  0.00    +0.017 C 
ATOM      4  C   UNL     1       5.149   0.660  -1.581  0.00  0.00    +0.036 C 
ATOM      5  C   UNL     1       4.432   1.954  -1.279  0.00  0.00    +0.136 C 
ATOM      6  N   UNL     1       3.543   1.896  -0.138  0.00  0.00    -0.331 N 
ATOM      7  C   UNL     1       2.411   1.081  -0.147  0.00  0.00    +0.049 A 
ATOM      8  C   UNL     1       1.133   1.615  -0.132  0.00  0.00    +0.025 A 
ATOM      9  C   UNL     1       0.042   0.768  -0.229  0.00  0.00    +0.002 A 
ATOM     10  C   UNL     1       0.225  -0.598  -0.340  0.00  0.00    +0.002 A 
ATOM     11  C   UNL     1       1.501  -1.136  -0.339  0.00  0.00    +0.025 A 
ATOM     12  C   UNL     1       2.592  -0.292  -0.225  0.00  0.00    +0.052 A 
ATOM     13  N   UNL     1       3.893  -0.771  -0.133  0.00  0.00    -0.316 N 
ATOM     14  C   UNL     1       6.201   0.794  -2.518  0.00  0.00    +0.163 C 
ATOM     15  O   UNL     1       6.421   1.889  -2.998  0.00  0.00    -0.292 OA
ATOM     16  C   UNL     1       7.052  -0.365  -2.940  0.00  0.00    +0.088 C 
ATOM     17  H   UNL     1       3.737   2.433   0.646  0.00  0.00    +0.147 HD
ATOM     18  H   UNL     1       4.120  -1.310   0.641  0.00  0.00    +0.152 HD
ENDROOT
BRANCH   1  23
ATOM     19  C   UNL     1       8.180  -4.446  -3.710  0.00  0.00    +0.000 A 
ATOM     20  C   UNL     1       9.298  -4.838  -2.998  0.00  0.00    +0.001 A 
ATOM     21  C   UNL     1       9.705  -4.112  -1.895  0.00  0.00    +0.020 A 
ATOM     22  C   UNL     1       8.996  -2.989  -1.507  0.00  0.00    +0.044 A 
ATOM     23  C   UNL     1       7.874  -2.600  -2.217  0.00  0.00    -0.025 A 
ATOM     24  C   UNL     1       7.468  -3.328  -3.320  0.00  0.00    +0.005 A 
ATOM     25 CL   UNL     1       9.511  -2.071  -0.126  0.00  0.00    -0.083 Cl
ENDBRANCH   1  23
BRANCH   5  26
ATOM     26  C   UNL     1       3.629   2.350  -2.491  0.00  0.00    -0.016 A 
ATOM     27  C   UNL     1       3.980   3.463  -3.231  0.00  0.00    +0.013 A 
ATOM     28  C   UNL     1       3.236   3.791  -4.316  0.00  0.00    +0.045 A 
ATOM     29  S   UNL     1       1.996   2.507  -4.316  0.00  0.00    -0.105 S 
ATOM     30  C   UNL     1       2.555   1.616  -2.874  0.00  0.00    +0.051 A 
ENDBRANCH   5  26
TORSDOF 2
