REMARK  Name = ZINC40761251
REMARK  5 active torsions:
REMARK  status: ('A' for Active; 'I' for Inactive)
REMARK    1  A    between atoms: C_3  and  C_6
REMARK    2  A    between atoms: C_6  and  N_7
REMARK    3  A    between atoms: C_9  and  N_23
REMARK    4  A    between atoms: C_10  and  N_14
REMARK    5  A    between atoms: N_14  and  C_15
REMARK                            x       y       z     vdW  Elec       q    Type
REMARK                         _______ _______ _______ _____ _____    ______ ____
ROOT
ATOM      1  N   UNL     1       4.192   1.553   1.418  0.00  0.00    -0.320 N 
ATOM      2  C   UNL     1       5.536   1.273   1.639  0.00  0.00    +0.145 A 
ATOM      3  C   UNL     1       6.005   1.024   2.930  0.00  0.00    +0.105 A 
ATOM      4  C   UNL     1       7.363   0.747   3.096  0.00  0.00    +0.149 A 
ATOM      5  N   UNL     1       8.153   0.732   2.025  0.00  0.00    -0.219 NA
ATOM      6  C   UNL     1       7.670   0.973   0.823  0.00  0.00    +0.225 A 
ATOM      7  N   UNL     1       6.394   1.233   0.623  0.00  0.00    -0.219 NA
ATOM      8  H   UNL     1       3.574   1.580   2.165  0.00  0.00    +0.148 HD
ENDROOT
BRANCH   3   9
ATOM      9  N   UNL     1       5.135   1.051   4.032  0.00  0.00    -0.353 N 
ATOM     10  H   UNL     1       4.193   1.244   3.902  0.00  0.00    +0.143 HD
ATOM     11  H   UNL     1       5.475   0.875   4.923  0.00  0.00    +0.143 HD
ENDBRANCH   3   9
BRANCH   4  12
ATOM     12  N   UNL     1       7.883   0.492   4.360  0.00  0.00    -0.297 N 
ATOM     13  H   UNL     1       7.287   0.411   5.122  0.00  0.00    +0.154 HD
BRANCH  12  14
ATOM     14  C   UNL     1       9.263   0.354   4.534  0.00  0.00    +0.052 A 
ATOM     15  C   UNL     1      10.140   0.934   3.627  0.00  0.00    +0.044 A 
ATOM     16  C   UNL     1      11.504   0.795   3.802  0.00  0.00    +0.043 A 
ATOM     17  C   UNL     1      11.996   0.079   4.879  0.00  0.00    +0.021 A 
ATOM     18  C   UNL     1      11.125  -0.499   5.784  0.00  0.00    +0.023 A 
ATOM     19  C   UNL     1       9.760  -0.360   5.618  0.00  0.00    +0.062 A 
ATOM     20 CL   UNL     1       8.668  -1.081   6.759  0.00  0.00    -0.082 Cl
ATOM     21 CL   UNL     1      12.602   1.519   2.668  0.00  0.00    -0.083 Cl
ENDBRANCH  12  14
ENDBRANCH   4  12
BRANCH   1  22
ATOM     22  C   UNL     1       3.711   1.807   0.058  0.00  0.00    +0.177 C 
BRANCH  22  25
ATOM     23  C   UNL     1       0.259   3.087   0.215  0.00  0.00    +0.041 A 
ATOM     24  C   UNL     1       1.658   3.291   0.238  0.00  0.00    +0.046 A 
ATOM     25  C   UNL     1       2.230   2.082   0.093  0.00  0.00    +0.122 A 
ATOM     26  O   UNL     1       1.257   1.163  -0.017  0.00  0.00    -0.466 OA
ATOM     27  C   UNL     1       0.060   1.766   0.056  0.00  0.00    +0.195 A 
ENDBRANCH  22  25
ENDBRANCH   1  22
TORSDOF 5
