REMARK  Name = ZINC05852751
REMARK  7 active torsions:
REMARK  status: ('A' for Active; 'I' for Inactive)
REMARK    1  A    between atoms: C_1  and  C_2
REMARK    2  A    between atoms: C_12  and  C_18
REMARK    3  A    between atoms: C_24  and  C_26
REMARK    4  A    between atoms: N_28  and  C_29
REMARK    5  A    between atoms: C_29  and  C_30
REMARK    6  A    between atoms: C_29  and  C_31
REMARK    7  A    between atoms: C_29  and  C_32
REMARK                            x       y       z     vdW  Elec       q    Type
REMARK                         _______ _______ _______ _____ _____    ______ ____
ROOT
ATOM      1  C   UNL     1      -2.114  -0.971  -2.639  0.00  0.00    +0.012 C 
ATOM      2  C   UNL     1      -2.283  -0.206  -1.325  0.00  0.00    -0.018 C 
ATOM      3  C   UNL     1      -1.387  -0.769  -0.221  0.00  0.00    +0.012 C 
ATOM      4  C   UNL     1       0.079  -0.422  -0.473  0.00  0.00    +0.004 C 
ATOM      5  C   UNL     1       0.226   1.106  -0.449  0.00  0.00    -0.007 C 
ATOM      6  C   UNL     1       1.694   1.493  -0.635  0.00  0.00    +0.005 C 
ATOM      7  C   UNL     1       2.548   0.868   0.472  0.00  0.00    +0.023 C 
ATOM      8  C   UNL     1       2.404  -0.652   0.406  0.00  0.00    +0.083 C 
ATOM      9  C   UNL     1       0.938  -1.023   0.639  0.00  0.00    +0.008 C 
ATOM     10  C   UNL     1       0.804  -2.522   0.665  0.00  0.00    -0.013 C 
ATOM     11  C   UNL     1       1.773  -3.234   1.268  0.00  0.00    +0.063 C 
ATOM     12  C   UNL     1       2.924  -2.528   1.859  0.00  0.00    +0.237 C 
ATOM     13  O   UNL     1       3.586  -3.057   2.731  0.00  0.00    -0.271 OA
ATOM     14  N   UNL     1       3.238  -1.287   1.424  0.00  0.00    -0.308 N 
ATOM     15  C   UNL     1       0.483  -0.464   1.988  0.00  0.00    +0.017 C 
ATOM     16  C   UNL     1      -0.593   1.680  -1.606  0.00  0.00    +0.008 C 
ATOM     17  C   UNL     1      -2.051   1.306  -1.495  0.00  0.00    -0.004 C 
ATOM     18  C   UNL     1      -2.726   1.914  -0.252  0.00  0.00    +0.005 C 
ATOM     19  C   UNL     1      -4.007   1.065  -0.086  0.00  0.00    +0.013 C 
ATOM     20  C   UNL     1      -3.740  -0.276  -0.794  0.00  0.00    +0.081 C 
ATOM     21  H   UNL     1       4.010  -0.823   1.784  0.00  0.00    +0.149 HD
ENDROOT
BRANCH  20  22
ATOM     22  C   UNL     1      -3.880  -1.415   0.183  0.00  0.00    +0.217 C 
ATOM     23  O   UNL     1      -3.762  -1.210   1.373  0.00  0.00    -0.275 OA
ATOM     24  N   UNL     1      -4.138  -2.659  -0.264  0.00  0.00    -0.310 N 
ATOM     25  H   UNL     1      -4.233  -2.823  -1.216  0.00  0.00    +0.149 HD
BRANCH  24  26
ATOM     26  C   UNL     1      -4.274  -3.766   0.686  0.00  0.00    +0.026 C 
ATOM     27  C   UNL     1      -5.428  -3.473   1.648  0.00  0.00    +0.031 C 
ATOM     28  C   UNL     1      -4.562  -5.061  -0.076  0.00  0.00    +0.031 C 
ATOM     29  C   UNL     1      -2.975  -3.920   1.480  0.00  0.00    +0.031 C 
ENDBRANCH  24  26
ENDBRANCH  20  22
TORSDOF 2
