REMARK  Name = ZINC06545789
REMARK  7 active torsions:
REMARK  status: ('A' for Active; 'I' for Inactive)
REMARK    1  A    between atoms: C_1  and  C_2
REMARK    2  A    between atoms: C_2  and  O_3
REMARK    3  A    between atoms: O_3  and  C_4
REMARK    4  A    between atoms: C_4  and  C_6
REMARK    5  A    between atoms: C_7  and  N_34
REMARK    6  A    between atoms: C_24  and  C_27
REMARK    7  A    between atoms: C_32  and  C_33
REMARK                            x       y       z     vdW  Elec       q    Type
REMARK                         _______ _______ _______ _____ _____    ______ ____
ROOT
ATOM      1  C   UNL     1      -0.671   1.558   3.639  0.00  0.00    +0.117 C 
ATOM      2  C   UNL     1      -0.210   1.123   4.842  0.00  0.00    +0.195 C 
ATOM      3  O   UNL     1      -0.784   1.511   5.990  0.00  0.00    -0.446 OA
ATOM      4  C   UNL     1      -1.531   2.631   6.029  0.00  0.00    +0.116 C 
ATOM      5  C   UNL     1      -2.073   3.150   4.911  0.00  0.00    +0.057 C 
ATOM      6  C   UNL     1      -1.847   2.488   3.576  0.00  0.00    +0.141 C 
ATOM      7  C   UNL     1      -3.081   1.770   3.127  0.00  0.00    -0.002 A 
ATOM      8  C   UNL     1      -3.774   0.715   3.680  0.00  0.00    +0.007 A 
ATOM      9  C   UNL     1      -4.906   0.278   2.999  0.00  0.00    +0.000 A 
ATOM     10  C   UNL     1      -5.313   0.877   1.825  0.00  0.00    +0.002 A 
ATOM     11  C   UNL     1      -4.621   1.939   1.263  0.00  0.00    +0.023 A 
ATOM     12  C   UNL     1      -3.483   2.386   1.936  0.00  0.00    +0.038 A 
ATOM     13  N   UNL     1      -2.614   3.411   1.608  0.00  0.00    -0.284 N 
ATOM     14  C   UNL     1      -1.622   3.543   2.513  0.00  0.00    +0.237 C 
ATOM     15  O   UNL     1      -0.720   4.354   2.482  0.00  0.00    -0.274 OA
ATOM     16  C   UNL     1      -2.864   4.315   4.953  0.00  0.00    +0.165 C 
ATOM     17  O   UNL     1      -3.319   4.763   3.920  0.00  0.00    -0.292 OA
ATOM     18  C   UNL     1      -3.153   5.014   6.253  0.00  0.00    +0.088 C 
ATOM     19  C   UNL     1      -3.109   3.986   7.389  0.00  0.00    +0.034 C 
ATOM     20  C   UNL     1      -1.743   3.298   7.368  0.00  0.00    +0.083 C 
ATOM     21  H   UNL     1      -2.706   3.969   0.820  0.00  0.00    +0.155 HD
ENDROOT
BRANCH  19  22
ATOM     22  C   UNL     1      -3.306   4.680   8.713  0.00  0.00    -0.041 A 
ATOM     23  C   UNL     1      -2.487   5.735   9.069  0.00  0.00    +0.004 A 
ATOM     24  C   UNL     1      -2.670   6.374  10.281  0.00  0.00    +0.000 A 
ATOM     25  C   UNL     1      -3.667   5.951  11.141  0.00  0.00    +0.000 A 
ATOM     26  C   UNL     1      -4.482   4.892  10.787  0.00  0.00    +0.003 A 
ATOM     27  C   UNL     1      -4.302   4.257   9.573  0.00  0.00    -0.047 A 
ATOM     28  C   UNL     1      -5.191   3.103   9.187  0.00  0.00    +0.044 C 
ENDBRANCH  19  22
BRANCH   2  29
ATOM     29  N   UNL     1       0.864   0.275   4.882  0.00  0.00    -0.329 N 
ATOM     30  H   UNL     1       1.334   0.049   4.065  0.00  0.00    +0.145 HD
ATOM     31  H   UNL     1       1.155  -0.099   5.729  0.00  0.00    +0.145 HD
ENDBRANCH   2  29
BRANCH   1  32
ATOM     32  C   UNL     1      -0.051   1.131   2.454  0.00  0.00    +0.342 C 
ATOM     33  O   UNL     1      -0.548   0.236   1.795  0.00  0.00    -0.245 OA
BRANCH  32  34
ATOM     34  O   UNL     1       1.097   1.713   2.046  0.00  0.00    -0.462 OA
BRANCH  34  36
ATOM     35  C   UNL     1       2.960   2.002   0.534  0.00  0.00    +0.048 C 
ATOM     36  C   UNL     1       1.674   1.229   0.832  0.00  0.00    +0.229 C 
ENDBRANCH  34  36
ENDBRANCH  32  34
ENDBRANCH   1  32
TORSDOF 5
