REMARK  Name = ZINC30499601
REMARK  10 active torsions:
REMARK  status: ('A' for Active; 'I' for Inactive)
REMARK    1  A    between atoms: C_1  and  C_2
REMARK    2  A    between atoms: C_2  and  C_3
REMARK    3  A    between atoms: N_5  and  C_6
REMARK    4  A    between atoms: C_9  and  C_12
REMARK    5  A    between atoms: C_12  and  C_14
REMARK    6  A    between atoms: C_12  and  N_15
REMARK    7  A    between atoms: N_15  and  C_16
REMARK    8  A    between atoms: C_16  and  C_18
REMARK    9  A    between atoms: C_16  and  C_19
REMARK   10  A    between atoms: N_21  and  C_22
REMARK                            x       y       z     vdW  Elec       q    Type
REMARK                         _______ _______ _______ _____ _____    ______ ____
ROOT
ATOM      1  N   UNL     1      -1.773   3.268  -0.953  0.00  0.00    +0.391 N 
ATOM      2  H   UNL     1      -1.097   4.048  -0.575  0.00  0.00    -0.084 HD
ATOM      3  H   UNL     1      -1.395   2.888  -1.914  0.00  0.00    -0.084 HD
ENDROOT
BRANCH   1   4
ATOM      4  C   UNL     1      -1.839   2.166   0.017  0.00  0.00    -0.043 C 
ATOM      5  C   UNL     1      -1.747   2.730   1.436  0.00  0.00    -0.009 C 
BRANCH   4   9
ATOM      6  C   UNL     1       1.408  -0.526  -0.673  0.00  0.00    +0.033 A 
ATOM      7  C   UNL     1       0.151  -1.020  -0.351  0.00  0.00    +0.023 A 
ATOM      8  C   UNL     1      -0.896  -0.148  -0.127  0.00  0.00    +0.004 A 
ATOM      9  C   UNL     1      -0.693   1.217  -0.223  0.00  0.00    -0.062 A 
ATOM     10  C   UNL     1       0.557   1.712  -0.543  0.00  0.00    +0.004 A 
ATOM     11  C   UNL     1       1.609   0.845  -0.768  0.00  0.00    +0.023 A 
BRANCH   6  14
ATOM     12  C   UNL     1       2.240  -2.608  -1.466  0.00  0.00    +0.217 C 
ATOM     13  O   UNL     1       1.129  -2.888  -1.865  0.00  0.00    -0.275 OA
ATOM     14  N   UNL     1       2.471  -1.407  -0.901  0.00  0.00    -0.286 N 
ATOM     15  H   UNL     1       3.494  -1.119  -0.619  0.00  0.00    +0.155 HD
BRANCH  12  17
ATOM     16  C   UNL     1       2.838  -4.876  -2.273  0.00  0.00    +0.013 C 
ATOM     17  C   UNL     1       3.363  -3.605  -1.603  0.00  0.00    +0.093 C 
ENDBRANCH  12  17
ENDBRANCH   6  14
ENDBRANCH   4   9
ENDBRANCH   1   4
BRANCH   1  18
ATOM     18  C   UNL     1      -3.101   3.859  -1.169  0.00  0.00    +0.014 C 
ATOM     19  C   UNL     1      -3.850   3.054  -2.233  0.00  0.00    -0.004 C 
BRANCH  18  20
ATOM     20  C   UNL     1      -2.946   5.284  -1.633  0.00  0.00    +0.203 C 
ATOM     21  O   UNL     1      -1.839   5.761  -1.771  0.00  0.00    -0.277 OA
ATOM     22  N   UNL     1      -4.038   6.029  -1.896  0.00  0.00    -0.286 N 
ATOM     23  H   UNL     1      -5.041   5.628  -1.688  0.00  0.00    +0.155 HD
BRANCH  22  24
ATOM     24  C   UNL     1      -3.896   7.314  -2.434  0.00  0.00    +0.052 A 
ATOM     25  C   UNL     1      -2.720   7.671  -3.080  0.00  0.00    +0.025 A 
ATOM     26  C   UNL     1      -2.585   8.938  -3.615  0.00  0.00    +0.002 A 
ATOM     27  C   UNL     1      -3.614   9.853  -3.498  0.00  0.00    +0.002 A 
ATOM     28  C   UNL     1      -4.785   9.503  -2.850  0.00  0.00    +0.022 A 
ATOM     29  C   UNL     1      -4.929   8.236  -2.318  0.00  0.00    +0.062 A 
ATOM     30 CL   UNL     1      -6.398   7.796  -1.505  0.00  0.00    -0.082 Cl
ENDBRANCH  22  24
ENDBRANCH  18  20
ENDBRANCH   1  18
TORSDOF 7
