REMARK  Name = ZINC16040631
REMARK  10 active torsions:
REMARK  status: ('A' for Active; 'I' for Inactive)
REMARK    1  A    between atoms: C_1  and  C_2
REMARK    2  A    between atoms: N_4  and  C_17
REMARK    3  A    between atoms: C_5  and  O_16
REMARK    4  A    between atoms: C_13  and  C_14
REMARK    5  A    between atoms: C_13  and  C_15
REMARK    6  A    between atoms: C_17  and  N_19
REMARK    7  A    between atoms: N_19  and  C_20
REMARK    8  A    between atoms: C_20  and  C_21
REMARK    9  A    between atoms: C_20  and  C_22
REMARK   10  A    between atoms: C_20  and  C_23
REMARK                            x       y       z     vdW  Elec       q    Type
REMARK                         _______ _______ _______ _____ _____    ______ ____
ROOT
ATOM      1  C   UNL     1      -4.494   2.006  -1.935  0.00  0.00    +0.063 C 
ATOM      2  C   UNL     1      -3.063   1.539  -1.879  0.00  0.00    +0.042 C 
ATOM      3  N   UNL     1      -2.239   1.398  -2.886  0.00  0.00    -0.184 NA
ATOM      4  N   UNL     1      -0.929   0.983  -2.456  0.00  0.00    -0.173 N 
ATOM      5  C   UNL     1      -0.850   1.564  -1.132  0.00  0.00    +0.163 C 
ATOM      6  C   UNL     1      -2.308   1.149  -0.687  0.00  0.00    +0.091 C 
ATOM      7  C   UNL     1      -2.367   1.641   0.724  0.00  0.00    +0.012 C 
ATOM      8  C   UNL     1      -0.902   1.513   1.251  0.00  0.00    +0.004 C 
ATOM      9  C   UNL     1      -0.082   0.983   0.037  0.00  0.00    +0.062 C 
ATOM     10  C   UNL     1      -2.036   0.652   1.855  0.00  0.00    -0.028 C 
ATOM     11  C   UNL     1      -2.507   1.012   3.265  0.00  0.00    +0.011 C 
ATOM     12  C   UNL     1      -2.060  -0.840   1.515  0.00  0.00    +0.011 C 
ENDROOT
BRANCH   5  13
ATOM     13  O   UNL     1      -0.696   2.983  -1.198  0.00  0.00    -0.369 OA
ATOM     14  H   UNL     1       0.218   3.274  -1.321  0.00  0.00    +0.212 HD
ENDBRANCH   5  13
BRANCH   4  15
ATOM     15  C   UNL     1      -0.012   0.242  -3.109  0.00  0.00    +0.156 C 
ATOM     16  S   UNL     1       1.485  -0.121  -2.361  0.00  0.00    -0.017 S 
BRANCH  15  17
ATOM     17  N   UNL     1      -0.273  -0.213  -4.350  0.00  0.00    -0.320 N 
ATOM     18  H   UNL     1      -1.148  -0.072  -4.744  0.00  0.00    +0.148 HD
BRANCH  17  19
ATOM     19  C   UNL     1       0.764  -0.922  -5.104  0.00  0.00    +0.025 C 
ATOM     20  C   UNL     1       1.139  -2.211  -4.369  0.00  0.00    +0.031 C 
ATOM     21  C   UNL     1       0.237  -1.264  -6.499  0.00  0.00    +0.031 C 
ATOM     22  C   UNL     1       2.001  -0.030  -5.231  0.00  0.00    +0.031 C 
ENDBRANCH  17  19
ENDBRANCH  15  17
ENDBRANCH   4  15
TORSDOF 4
