REMARK  Name = ZINC49569879
REMARK  5 active torsions:
REMARK  status: ('A' for Active; 'I' for Inactive)
REMARK    1  A    between atoms: C_1  and  O_2
REMARK    2  A    between atoms: O_2  and  C_3
REMARK    3  A    between atoms: C_8  and  N_9
REMARK    4  A    between atoms: C_10  and  C_12
REMARK    5  A    between atoms: C_12  and  N_18
REMARK                            x       y       z     vdW  Elec       q    Type
REMARK                         _______ _______ _______ _____ _____    ______ ____
ROOT
ATOM      1  N   UNL     1       0.097  -2.778   0.085  0.00  0.00    -0.284 N 
ATOM      2  C   UNL     1       0.239  -4.118   0.087  0.00  0.00    +0.206 C 
ATOM      3  O   UNL     1       0.796  -4.667   1.014  0.00  0.00    -0.277 OA
ATOM      4  H   UNL     1      -0.418  -2.347  -0.615  0.00  0.00    +0.155 HD
ENDROOT
BRANCH   1  10
ATOM      5  C   UNL     1       0.172  -0.757   1.415  0.00  0.00    +0.141 A 
ATOM      6  C   UNL     1       0.761  -0.002   2.416  0.00  0.00    +0.048 A 
ATOM      7  C   UNL     1       1.866  -0.489   3.090  0.00  0.00    +0.019 A 
ATOM      8  C   UNL     1       2.387  -1.729   2.767  0.00  0.00    +0.020 A 
ATOM      9  C   UNL     1       1.805  -2.488   1.768  0.00  0.00    +0.042 A 
ATOM     10  C   UNL     1       0.692  -2.008   1.093  0.00  0.00    +0.077 A 
ATOM     11 BR   UNL     1       3.899  -2.388   3.692  0.00  0.00    -0.050 Br
BRANCH   5  13
ATOM     12  C   UNL     1      -1.393   1.012   1.134  0.00  0.00    +0.277 C 
ATOM     13  O   UNL     1      -0.914  -0.279   0.751  0.00  0.00    -0.493 OA
ENDBRANCH   5  13
ENDBRANCH   1  10
BRANCH   2  14
ATOM     14  C   UNL     1      -0.294  -4.935  -1.062  0.00  0.00    +0.007 C 
ATOM     15  C   UNL     1      -1.802  -5.133  -0.890  0.00  0.00    -0.004 C 
ATOM     16  C   UNL     1      -2.074  -5.865   0.425  0.00  0.00    -0.001 C 
ATOM     17  C   UNL     1      -1.379  -7.229   0.403  0.00  0.00    -0.000 C 
ATOM     18  C   UNL     1       0.128  -7.030   0.232  0.00  0.00    -0.001 C 
ATOM     19  C   UNL     1       0.400  -6.298  -1.084  0.00  0.00    -0.004 C 
BRANCH  14  20
ATOM     20  N   UNL     1      -0.033  -4.232  -2.325  0.00  0.00    +0.388 N 
ATOM     21  H   UNL     1       0.961  -4.102  -2.438  0.00  0.00    -0.089 HD
ATOM     22  H   UNL     1      -0.390  -4.779  -3.094  0.00  0.00    -0.089 HD
ATOM     23  H   UNL     1      -0.491  -3.333  -2.310  0.00  0.00    -0.089 HD
ENDBRANCH  14  20
ENDBRANCH   2  14
TORSDOF 4
