REMARK  Name = ZINC50635773
REMARK  5 active torsions:
REMARK  status: ('A' for Active; 'I' for Inactive)
REMARK    1  A    between atoms: C_1  and  C_2
REMARK    2  A    between atoms: C_7  and  C_21
REMARK    3  A    between atoms: N_9  and  S_10
REMARK    4  A    between atoms: S_10  and  C_13
REMARK    5  A    between atoms: C_18  and  N_19
REMARK                            x       y       z     vdW  Elec       q    Type
REMARK                         _______ _______ _______ _____ _____    ______ ____
ROOT
ATOM      1  S   UNL     1       1.706   0.572   2.126  0.00  0.00    +0.065 S 
ATOM      2  O   UNL     1       0.892   1.504   2.824  0.00  0.00    -0.153 OA
ATOM      3  O   UNL     1       2.567  -0.339   2.795  0.00  0.00    -0.153 OA
ENDROOT
BRANCH   1  10
ATOM      4  C   UNL     1      -0.636   1.717   1.021  0.00  0.00    +0.026 C 
ATOM      5  C   UNL     1      -0.485   0.269   0.548  0.00  0.00    +0.077 C 
ATOM      6  C   UNL     1      -1.735  -0.529   0.931  0.00  0.00    +0.020 C 
ATOM      7  C   UNL     1      -1.522  -2.003   0.581  0.00  0.00    +0.003 C 
ATOM      8  C   UNL     1      -0.335  -2.552   1.377  0.00  0.00    +0.020 C 
ATOM      9  C   UNL     1       0.931  -1.776   0.999  0.00  0.00    +0.077 C 
ATOM     10  N   UNL     1       0.685  -0.341   1.193  0.00  0.00    -0.171 NA
ATOM     11  C   UNL     1       1.276  -2.043  -0.468  0.00  0.00    +0.026 C 
ENDBRANCH   1  10
BRANCH   1  12
ATOM     12  C   UNL     1       2.717   1.508   1.028  0.00  0.00    +0.146 A 
ATOM     13  C   UNL     1       2.596   2.885   0.966  0.00  0.00    +0.048 A 
ATOM     14  C   UNL     1       3.414   3.583   0.086  0.00  0.00    +0.038 A 
ATOM     15  C   UNL     1       4.316   2.888  -0.695  0.00  0.00    +0.128 A 
ATOM     16  N   UNL     1       4.409   1.574  -0.614  0.00  0.00    -0.238 NA
ATOM     17  C   UNL     1       3.651   0.874   0.216  0.00  0.00    +0.143 A 
ATOM     18 BR   UNL     1       3.292   5.466  -0.041  0.00  0.00    -0.049 Br
BRANCH  17  19
ATOM     19  N   UNL     1       3.787  -0.509   0.273  0.00  0.00    -0.342 N 
ATOM     20  H   UNL     1       3.269  -1.021   0.914  0.00  0.00    +0.144 HD
ATOM     21  H   UNL     1       4.400  -0.961  -0.328  0.00  0.00    +0.144 HD
ENDBRANCH  17  19
ENDBRANCH   1  12
TORSDOF 3
