REMARK  Name = ZINC20617544
REMARK  10 active torsions:
REMARK  status: ('A' for Active; 'I' for Inactive)
REMARK    1  A    between atoms: C_1  and  C_2
REMARK    2  A    between atoms: C_6  and  C_20
REMARK    3  A    between atoms: N_8  and  C_9
REMARK    4  A    between atoms: C_11  and  O_17
REMARK    5  A    between atoms: C_13  and  O_15
REMARK    6  A    between atoms: O_15  and  C_16
REMARK    7  A    between atoms: O_17  and  C_18
REMARK    8  A    between atoms: N_22  and  C_23
REMARK    9  A    between atoms: C_33  and  C_36
REMARK   10  A    between atoms: C_36  and  O_37
REMARK                            x       y       z     vdW  Elec       q    Type
REMARK                         _______ _______ _______ _____ _____    ______ ____
ROOT
ATOM      1  C   UNL     1       8.671  -1.908   0.969  0.00  0.00    +0.069 C 
ATOM      2  C   UNL     1       7.450  -2.749   0.699  0.00  0.00    +0.081 A 
ATOM      3  C   UNL     1       6.202  -2.148   0.621  0.00  0.00    +0.159 A 
ATOM      4  C   UNL     1       5.076  -2.954   0.365  0.00  0.00    +0.027 A 
ATOM      5  C   UNL     1       3.751  -2.338   0.279  0.00  0.00    +0.030 A 
ATOM      6  C   UNL     1       3.697  -0.966   0.176  0.00  0.00    +0.098 A 
ATOM      7  C   UNL     1       4.982  -0.237   0.170  0.00  0.00    +0.212 A 
ATOM      8  N   UNL     1       5.091   0.936  -0.413  0.00  0.00    -0.325 N 
ATOM      9  O   UNL     1       6.048  -0.813   0.784  0.00  0.00    -0.437 OA
ATOM     10  C   UNL     1       5.262  -4.332   0.204  0.00  0.00    +0.007 A 
ATOM     11  C   UNL     1       6.541  -4.839   0.301  0.00  0.00    +0.117 A 
ATOM     12  N   UNL     1       7.573  -4.051   0.539  0.00  0.00    -0.256 NA
ATOM     13  H   UNL     1       4.201   1.425  -0.834  0.00  0.00    +0.169 HD
ENDROOT
BRANCH   8  14
ATOM     14  C   UNL     1       6.312   1.547  -0.497  0.00  0.00    +0.049 A 
ATOM     15  C   UNL     1       6.779   2.328   0.562  0.00  0.00    +0.071 A 
ATOM     16  C   UNL     1       8.017   2.941   0.475  0.00  0.00    +0.126 A 
ATOM     17  C   UNL     1       8.790   2.789  -0.668  0.00  0.00    +0.091 A 
ATOM     18  C   UNL     1       8.328   2.018  -1.726  0.00  0.00    +0.126 A 
ATOM     19  C   UNL     1       7.093   1.397  -1.645  0.00  0.00    +0.071 A 
BRANCH  18  20
ATOM     20  O   UNL     1       9.088   1.873  -2.843  0.00  0.00    -0.495 OA
ATOM     21  C   UNL     1      10.351   2.542  -2.858  0.00  0.00    +0.277 C 
ENDBRANCH  18  20
BRANCH  16  22
ATOM     22  O   UNL     1       8.474   3.696   1.507  0.00  0.00    -0.495 OA
ATOM     23  C   UNL     1       9.758   4.304   1.347  0.00  0.00    +0.277 C 
ENDBRANCH  16  22
ENDBRANCH   8  14
BRANCH   6  24
ATOM     24  C   UNL     1       2.411  -0.252   0.082  0.00  0.00    +0.253 C 
ATOM     25  O   UNL     1       1.367  -0.877   0.088  0.00  0.00    -0.270 OA
ATOM     26  N   UNL     1       2.391   1.092  -0.012  0.00  0.00    -0.281 N 
ATOM     27  H   UNL     1       3.334   1.652  -0.093  0.00  0.00    +0.155 HD
BRANCH  26  28
ATOM     28  C   UNL     1       1.174   1.774  -0.007  0.00  0.00    +0.041 A 
ATOM     29  C   UNL     1       0.062   1.216  -0.602  0.00  0.00    +0.024 A 
ATOM     30  C   UNL     1      -1.155   1.889  -0.607  0.00  0.00    +0.002 A 
ATOM     31  C   UNL     1      -1.286   3.110  -0.017  0.00  0.00    +0.008 A 
ATOM     32  C   UNL     1      -0.177   3.714   0.599  0.00  0.00    -0.016 A 
ATOM     33  C   UNL     1       1.069   3.040   0.606  0.00  0.00    +0.003 A 
ATOM     34  C   UNL     1       2.176   3.644   1.222  0.00  0.00    +0.010 A 
ATOM     35  C   UNL     1       2.039   4.868   1.804  0.00  0.00    +0.001 A 
ATOM     36  C   UNL     1       0.814   5.531   1.798  0.00  0.00    +0.001 A 
ATOM     37  C   UNL     1      -0.281   4.976   1.210  0.00  0.00    +0.008 A 
ENDBRANCH  26  28
ENDBRANCH   6  24
BRANCH  10  38
ATOM     38  C   UNL     1       4.091  -5.241  -0.068  0.00  0.00    +0.193 C 
BRANCH  38  39
ATOM     39  O   UNL     1       4.552  -6.588  -0.190  0.00  0.00    -0.390 OA
ATOM     40  H   UNL     1       3.836  -7.399  -0.391  0.00  0.00    +0.210 HD
ENDBRANCH  38  39
ENDBRANCH  10  38
TORSDOF 7
