REMARK  Name = ZINC09114374
REMARK  5 active torsions:
REMARK  status: ('A' for Active; 'I' for Inactive)
REMARK    1  A    between atoms: C_1  and  C_2
REMARK    2  A    between atoms: C_7  and  N_12
REMARK    3  A    between atoms: C_9  and  C_11
REMARK    4  A    between atoms: C_16  and  C_18
REMARK    5  A    between atoms: C_18  and  N_19
REMARK                            x       y       z     vdW  Elec       q    Type
REMARK                         _______ _______ _______ _____ _____    ______ ____
ROOT
ATOM      1  N   UNL     1       2.116  -0.004   1.231  0.00  0.00    -0.296 N 
ATOM      2  C   UNL     1       2.795   0.128   2.388  0.00  0.00    +0.306 C 
ATOM      3  O   UNL     1       2.267  -0.174   3.440  0.00  0.00    -0.252 OA
ATOM      4  N   UNL     1       4.059   0.594   2.379  0.00  0.00    -0.239 N 
ATOM      5  C   UNL     1       4.738   0.726   3.536  0.00  0.00    +0.240 C 
ATOM      6  O   UNL     1       4.211   0.424   4.585  0.00  0.00    -0.273 OA
ATOM      7  H   UNL     1       2.538   0.237   0.392  0.00  0.00    +0.151 HD
ATOM      8  H   UNL     1       4.481   0.835   1.539  0.00  0.00    +0.159 HD
ENDROOT
BRANCH   1  14
ATOM      9  C   UNL     1      -2.173  -0.027  -1.227  0.00  0.00    +0.008 C 
ATOM     10  C   UNL     1      -1.433  -0.534   0.013  0.00  0.00    -0.009 C 
ATOM     11  C   UNL     1      -1.413  -2.063   0.004  0.00  0.00    +0.003 C 
ATOM     12  C   UNL     1      -0.673  -2.570   1.244  0.00  0.00    +0.002 C 
ATOM     13  C   UNL     1       0.763  -2.041   1.233  0.00  0.00    +0.022 C 
ATOM     14  C   UNL     1       0.742  -0.511   1.242  0.00  0.00    +0.078 C 
ATOM     15  C   UNL     1       0.002  -0.004   0.002  0.00  0.00    +0.009 C 
ATOM     16  C   UNL     1      -0.019   1.526   0.010  0.00  0.00    +0.009 C 
ENDBRANCH   1  14
BRANCH   5  17
ATOM     17  C   UNL     1       6.152   1.247   3.525  0.00  0.00    +0.218 C 
BRANCH  17  18
ATOM     18  N   UNL     1       6.665   1.296   4.896  0.00  0.00    -0.328 N 
ATOM     19  C   UNL     1       7.328   0.294   5.552  0.00  0.00    +0.107 A 
ATOM     20  C   UNL     1       7.617   0.758   6.782  0.00  0.00    +0.130 A 
ATOM     21  N   UNL     1       7.143   2.009   6.876  0.00  0.00    -0.244 NA
ATOM     22  C   UNL     1       6.577   2.340   5.748  0.00  0.00    +0.199 A 
ENDBRANCH  17  18
ENDBRANCH   5  17
TORSDOF 3
