REMARK  Name = ZINC50251339
REMARK  6 active torsions:
REMARK  status: ('A' for Active; 'I' for Inactive)
REMARK    1  A    between atoms: C_1  and  C_2
REMARK    2  A    between atoms: C_2  and  C_3
REMARK    3  A    between atoms: C_6  and  C_9
REMARK    4  A    between atoms: C_6  and  N_12
REMARK    5  A    between atoms: C_18  and  C_21
REMARK    6  A    between atoms: C_21  and  N_22
REMARK                            x       y       z     vdW  Elec       q    Type
REMARK                         _______ _______ _______ _____ _____    ______ ____
ROOT
ATOM      1  N   UNL     1       3.501  -2.565  -3.743  0.00  0.00    -0.283 N 
ATOM      2  C   UNL     1       3.552  -3.884  -4.016  0.00  0.00    +0.303 C 
ATOM      3  O   UNL     1       3.030  -4.681  -3.262  0.00  0.00    -0.253 OA
ATOM      4  N   UNL     1       4.183  -4.318  -5.125  0.00  0.00    -0.285 N 
ATOM      5  C   UNL     1       4.860  -3.467  -6.115  0.00  0.00    +0.109 C 
ATOM      6  C   UNL     1       5.457  -4.401  -7.189  0.00  0.00    +0.022 C 
ATOM      7  C   UNL     1       5.569  -5.758  -6.447  0.00  0.00    -0.010 C 
ATOM      8  C   UNL     1       4.314  -5.726  -5.543  0.00  0.00    +0.111 C 
ATOM      9  H   UNL     1       3.918  -1.928  -4.345  0.00  0.00    +0.151 HD
ENDROOT
BRANCH   1  13
ATOM     10  C   UNL     1       0.718  -0.497  -1.257  0.00  0.00    -0.011 C 
ATOM     11  C   UNL     1       2.187  -0.073  -1.207  0.00  0.00    +0.006 C 
ATOM     12  C   UNL     1       2.904  -0.566  -2.466  0.00  0.00    +0.038 C 
ATOM     13  C   UNL     1       2.816  -2.092  -2.538  0.00  0.00    +0.137 C 
ATOM     14  C   UNL     1       1.347  -2.517  -2.587  0.00  0.00    +0.038 C 
ATOM     15  C   UNL     1       0.630  -2.023  -1.329  0.00  0.00    +0.006 C 
BRANCH  13  16
ATOM     16  C   UNL     1       3.471  -2.691  -1.320  0.00  0.00    +0.379 C 
ATOM     17  O   UNL     1       3.049  -2.424  -0.207  0.00  0.00    -0.244 OA
ATOM     18  O   UNL     1       4.422  -3.443  -1.447  0.00  0.00    -0.244 OA
ENDBRANCH  13  16
BRANCH  10  20
ATOM     19  C   UNL     1      -0.019   1.526   0.010  0.00  0.00    +0.004 C 
ATOM     20  C   UNL     1       0.002  -0.004   0.002  0.00  0.00    -0.000 C 
ENDBRANCH  10  20
ENDBRANCH   1  13
BRANCH   7  21
ATOM     21  C   UNL     1       5.511  -6.928  -7.431  0.00  0.00    -0.081 C 
BRANCH  21  22
ATOM     22  N   UNL     1       5.739  -8.187  -6.709  0.00  0.00    +0.378 N 
ATOM     23  H   UNL     1       6.647  -8.163  -6.270  0.00  0.00    -0.090 HD
ATOM     24  H   UNL     1       5.027  -8.305  -6.004  0.00  0.00    -0.090 HD
ATOM     25  H   UNL     1       5.700  -8.959  -7.358  0.00  0.00    -0.090 HD
ENDBRANCH  21  22
ENDBRANCH   7  21
TORSDOF 5
