REMARK  Name = ZINC39638677
REMARK  10 active torsions:
REMARK  status: ('A' for Active; 'I' for Inactive)
REMARK    1  A    between atoms: C_1  and  C_2
REMARK    2  A    between atoms: C_2  and  O_3
REMARK    3  A    between atoms: O_3  and  C_4
REMARK    4  A    between atoms: C_9  and  C_10
REMARK    5  A    between atoms: C_10  and  N_11
REMARK    6  A    between atoms: C_12  and  C_14
REMARK    7  A    between atoms: C_25  and  C_27
REMARK    8  A    between atoms: C_30  and  O_37
REMARK    9  A    between atoms: C_31  and  C_33
REMARK   10  A    between atoms: O_37  and  C_38
REMARK                            x       y       z     vdW  Elec       q    Type
REMARK                         _______ _______ _______ _____ _____    ______ ____
ROOT
ATOM      1  C   UNL     1       0.459   0.775   5.791  0.00  0.00    +0.100 C 
ATOM      2  C   UNL     1      -0.765   1.542   5.242  0.00  0.00    +0.121 C 
ATOM      3  N   UNL     1      -1.097   2.523   6.302  0.00  0.00    -0.296 N 
ATOM      4  C   UNL     1       0.220   2.996   6.793  0.00  0.00    +0.115 C 
ATOM      5  C   UNL     1       1.103   1.733   6.807  0.00  0.00    -0.004 C 
ATOM      6  C   UNL     1       2.526   2.079   6.379  0.00  0.00    -0.010 C 
ATOM      7  C   UNL     1       3.165   2.986   7.435  0.00  0.00    -0.082 C 
ATOM      8  N   UNL     1       3.177   2.298   8.731  0.00  0.00    +0.379 N 
ATOM      9  C   UNL     1       1.801   2.051   9.180  0.00  0.00    -0.082 C 
ATOM     10  C   UNL     1       1.104   1.105   8.198  0.00  0.00    -0.010 C 
ATOM     11  C   UNL     1      -2.320   2.901   6.724  0.00  0.00    +0.247 C 
ATOM     12  O   UNL     1      -3.309   2.327   6.312  0.00  0.00    -0.270 OA
ATOM     13  H   UNL     1       3.662   1.418   8.639  0.00  0.00    -0.086 HD
ATOM     14  H   UNL     1       3.653   2.872   9.411  0.00  0.00    -0.086 HD
ENDROOT
BRANCH  11  15
ATOM     15  C   UNL     1      -2.458   4.010   7.688  0.00  0.00    +0.038 A 
ATOM     16  C   UNL     1      -1.427   4.943   7.835  0.00  0.00    +0.016 A 
ATOM     17  C   UNL     1      -1.561   5.977   8.734  0.00  0.00    +0.047 A 
ATOM     18  C   UNL     1      -2.718   6.094   9.495  0.00  0.00    +0.132 A 
ATOM     19  C   UNL     1      -3.745   5.169   9.351  0.00  0.00    +0.097 A 
ATOM     20  C   UNL     1      -3.622   4.135   8.450  0.00  0.00    +0.029 A 
BRANCH  19  21
ATOM     21  C   UNL     1      -4.998   5.301  10.179  0.00  0.00    +0.421 C 
ATOM     22  F   UNL     1      -5.879   4.262   9.860  0.00  0.00    -0.166 F 
ATOM     23  F   UNL     1      -4.669   5.233  11.537  0.00  0.00    -0.166 F 
ATOM     24  F   UNL     1      -5.609   6.530   9.908  0.00  0.00    -0.166 F 
ENDBRANCH  19  21
BRANCH  18  25
ATOM     25  O   UNL     1      -2.845   7.115  10.381  0.00  0.00    -0.495 OA
ATOM     26  C   UNL     1      -1.752   8.029  10.478  0.00  0.00    +0.277 C 
ENDBRANCH  18  25
ENDBRANCH  11  15
BRANCH   1  28
ATOM     27  N   UNL     1       2.197  -0.639   4.743  0.00  0.00    -0.311 N 
ATOM     28  C   UNL     1       1.426   0.464   4.677  0.00  0.00    +0.218 C 
ATOM     29  O   UNL     1       1.510   1.206   3.722  0.00  0.00    -0.275 OA
ATOM     30  H   UNL     1       2.131  -1.233   5.507  0.00  0.00    +0.149 HD
BRANCH  27  31
ATOM     31  C   UNL     1       3.137  -0.941   3.661  0.00  0.00    +0.143 C 
BRANCH  31  37
ATOM     32  C   UNL     1       3.266  -3.444   3.744  0.00  0.00    +0.125 A 
ATOM     33  C   UNL     1       3.947  -4.618   4.030  0.00  0.00    +0.046 A 
ATOM     34  C   UNL     1       5.226  -4.564   4.550  0.00  0.00    +0.004 A 
ATOM     35  C   UNL     1       5.827  -3.341   4.785  0.00  0.00    +0.001 A 
ATOM     36  C   UNL     1       5.149  -2.170   4.501  0.00  0.00    +0.009 A 
ATOM     37  C   UNL     1       3.873  -2.219   3.976  0.00  0.00    +0.011 A 
BRANCH  32  38
ATOM     38  O   UNL     1       2.008  -3.495   3.232  0.00  0.00    -0.492 OA
BRANCH  38  40
ATOM     39  C   UNL     1       0.036  -4.647   2.443  0.00  0.00    +0.048 C 
ATOM     40  C   UNL     1       1.446  -4.791   3.019  0.00  0.00    +0.225 C 
ENDBRANCH  38  40
ENDBRANCH  32  38
ENDBRANCH  31  37
ENDBRANCH  27  31
ENDBRANCH   1  28
TORSDOF 8
