REMARK  Name = ZINC40479562
REMARK  4 active torsions:
REMARK  status: ('A' for Active; 'I' for Inactive)
REMARK    1  A    between atoms: C_4  and  C_7
REMARK    2  A    between atoms: C_4  and  N_10
REMARK    3  A    between atoms: C_11  and  C_13
REMARK    4  A    between atoms: C_16  and  O_20
REMARK                            x       y       z     vdW  Elec       q    Type
REMARK                         _______ _______ _______ _____ _____    ______ ____
ROOT
ATOM      1  N   UNL     1       2.863  -0.454   0.025  0.00  0.00    -0.301 N 
ATOM      2  C   UNL     1       3.002  -1.776  -0.196  0.00  0.00    +0.200 C 
ATOM      3  O   UNL     1       2.560  -2.575   0.602  0.00  0.00    -0.278 OA
ATOM      4  H   UNL     1       3.217   0.185  -0.613  0.00  0.00    +0.150 HD
ENDROOT
BRANCH   2   5
ATOM      5  C   UNL     1       3.708  -2.262  -1.436  0.00  0.00    +0.018 C 
ATOM      6  C   UNL     1       2.745  -2.213  -2.641  0.00  0.00    +0.023 C 
ATOM      7  C   UNL     1       3.108  -3.498  -3.431  0.00  0.00    +0.097 C 
ATOM      8  C   UNL     1       3.436  -4.488  -2.285  0.00  0.00    -0.050 C 
ATOM      9  N   UNL     1       4.122  -3.666  -1.260  0.00  0.00    +0.388 N 
ATOM     10  H   UNL     1       5.122  -3.742  -1.374  0.00  0.00    -0.085 HD
ATOM     11  H   UNL     1       3.861  -3.984  -0.338  0.00  0.00    -0.085 HD
BRANCH   7  12
ATOM     12  O   UNL     1       1.996  -3.958  -4.201  0.00  0.00    -0.394 OA
ATOM     13  H   UNL     1       2.175  -4.759  -4.712  0.00  0.00    +0.210 HD
ENDBRANCH   7  12
ENDBRANCH   2   5
BRANCH   1  17
ATOM     14  C   UNL     1      -0.019   1.526   0.010  0.00  0.00    +0.000 C 
ATOM     15  C   UNL     1       1.417   2.055  -0.000  0.00  0.00    +0.003 C 
ATOM     16  C   UNL     1       2.157   1.548   1.239  0.00  0.00    +0.037 C 
ATOM     17  C   UNL     1       2.178   0.019   1.231  0.00  0.00    +0.136 C 
ATOM     18  C   UNL     1       0.742  -0.511   1.242  0.00  0.00    +0.037 C 
ATOM     19  C   UNL     1       0.002  -0.004   0.002  0.00  0.00    +0.003 C 
BRANCH  17  20
ATOM     20  C   UNL     1       2.906  -0.480   2.452  0.00  0.00    +0.379 C 
ATOM     21  O   UNL     1       2.496  -0.198   3.564  0.00  0.00    -0.244 OA
ATOM     22  O   UNL     1       3.906  -1.167   2.326  0.00  0.00    -0.244 OA
ENDBRANCH  17  20
ENDBRANCH   1  17
TORSDOF 4
