REMARK  Name = ZINC44844780
REMARK  8 active torsions:
REMARK  status: ('A' for Active; 'I' for Inactive)
REMARK    1  A    between atoms: C_1  and  C_2
REMARK    2  A    between atoms: C_2  and  C_3
REMARK    3  A    between atoms: C_2  and  C_4
REMARK    4  A    between atoms: C_4  and  C_6
REMARK    5  A    between atoms: C_4  and  C_9
REMARK    6  A    between atoms: C_6  and  N_8
REMARK    7  A    between atoms: C_14  and  C_17
REMARK    8  A    between atoms: N_19  and  C_20
REMARK                            x       y       z     vdW  Elec       q    Type
REMARK                         _______ _______ _______ _____ _____    ______ ____
ROOT
ATOM      1  C   UNL     1      -2.095   0.219  -1.008  0.00  0.00    +0.225 C 
ATOM      2  O   UNL     1      -2.705  -0.437  -1.825  0.00  0.00    -0.275 OA
ATOM      3  N   UNL     1      -2.091   1.564  -1.090  0.00  0.00    -0.301 N 
ATOM      4  C   UNL     1      -1.264   2.368  -0.180  0.00  0.00    +0.108 C 
ATOM      5  C   UNL     1      -2.156   3.407   0.508  0.00  0.00    +0.032 C 
ATOM      6  C   UNL     1      -2.894   4.223  -0.555  0.00  0.00    +0.078 C 
ATOM      7  C   UNL     1      -3.785   3.295  -1.385  0.00  0.00    +0.032 C 
ATOM      8  C   UNL     1      -2.908   2.255  -2.097  0.00  0.00    +0.108 C 
ENDROOT
BRANCH   6   9
ATOM      9  C   UNL     1      -3.747   5.269   0.117  0.00  0.00    +0.216 C 
ATOM     10  O   UNL     1      -3.761   5.353   1.326  0.00  0.00    -0.276 OA
ATOM     11  N   UNL     1      -4.492   6.110  -0.627  0.00  0.00    -0.318 N 
ATOM     12  C   UNL     1      -5.320   7.127   0.026  0.00  0.00    +0.128 C 
ATOM     13  H   UNL     1      -4.480   6.042  -1.594  0.00  0.00    +0.148 HD
ENDBRANCH   6   9
BRANCH   1  14
ATOM     14  C   UNL     1      -1.341  -0.470   0.101  0.00  0.00    +0.129 C 
BRANCH  14  16
ATOM     15  C   UNL     1      -0.049  -1.855  -1.528  0.00  0.00    +0.008 C 
ATOM     16  C   UNL     1      -0.996  -1.897  -0.327  0.00  0.00    +0.001 C 
ATOM     17  C   UNL     1      -0.316  -2.628   0.833  0.00  0.00    +0.008 C 
ENDBRANCH  14  16
BRANCH  14  18
ATOM     18  C   UNL     1      -2.198  -0.510   1.341  0.00  0.00    +0.058 C 
ATOM     19  S   UNL     1      -3.787  -0.388   1.219  0.00  0.00    -0.040 S 
BRANCH  18  20
ATOM     20  N   UNL     1      -1.623  -0.650   2.552  0.00  0.00    -0.355 N 
ATOM     21  H   UNL     1      -0.659  -0.725   2.626  0.00  0.00    +0.143 HD
ATOM     22  H   UNL     1      -2.175  -0.676   3.350  0.00  0.00    +0.143 HD
ENDBRANCH  18  20
ENDBRANCH  14  18
ENDBRANCH   1  14
TORSDOF 5
