REMARK  Name = ZINC03401988
REMARK  7 active torsions:
REMARK  status: ('A' for Active; 'I' for Inactive)
REMARK    1  A    between atoms: C_10  and  C_11
REMARK    2  A    between atoms: C_11  and  C_12
REMARK    3  A    between atoms: C_15  and  S_18
REMARK    4  A    between atoms: N_16  and  N_17
REMARK    5  A    between atoms: S_18  and  C_19
REMARK    6  A    between atoms: C_19  and  C_20
REMARK    7  A    between atoms: N_22  and  C_23
REMARK                            x       y       z     vdW  Elec       q    Type
REMARK                         _______ _______ _______ _____ _____    ______ ____
ROOT
ATOM      1  C   UNL     1      -0.562  11.742   3.099  0.00  0.00    +0.155 A 
ATOM      2  N   UNL     1      -1.137  10.833   3.834  0.00  0.00    -0.132 NA
ATOM      3  N   UNL     1      -1.325   9.764   3.145  0.00  0.00    -0.121 NA
ATOM      4  C   UNL     1      -0.869   9.933   1.926  0.00  0.00    +0.209 A 
ATOM      5  N   UNL     1      -0.370  11.202   1.858  0.00  0.00    -0.228 N 
ENDROOT
BRANCH   5   6
ATOM      6  N   UNL     1       0.201  11.806   0.774  0.00  0.00    -0.295 N 
ATOM      7  H   UNL     1      -0.493  12.283   0.218  0.00  0.00    +0.163 HD
ATOM      8  H   UNL     1       0.935  12.438   1.058  0.00  0.00    +0.163 HD
ENDBRANCH   5   6
BRANCH   1   9
ATOM      9  C   UNL     1      -0.179  13.133   3.537  0.00  0.00    +0.113 C 
BRANCH   9  19
ATOM     10  C   UNL     1      -4.418  14.508   6.055  0.00  0.00    +0.001 A 
ATOM     11  C   UNL     1      -3.365  13.631   6.312  0.00  0.00    +0.001 A 
ATOM     12  C   UNL     1      -2.349  13.475   5.420  0.00  0.00    +0.009 A 
ATOM     13  C   UNL     1      -2.360  14.205   4.219  0.00  0.00    -0.014 A 
ATOM     14  C   UNL     1      -3.428  15.100   3.960  0.00  0.00    -0.018 A 
ATOM     15  C   UNL     1      -4.460  15.234   4.905  0.00  0.00    +0.008 A 
ATOM     16  C   UNL     1      -3.437  15.832   2.761  0.00  0.00    +0.008 A 
ATOM     17  C   UNL     1      -2.420  15.677   1.869  0.00  0.00    +0.001 A 
ATOM     18  C   UNL     1      -1.368  14.801   2.127  0.00  0.00    +0.004 A 
ATOM     19  C   UNL     1      -1.326  14.075   3.277  0.00  0.00    -0.032 A 
ENDBRANCH   9  19
ENDBRANCH   1   9
BRANCH   4  20
ATOM     20  S   UNL     1      -0.901   8.748   0.622  0.00  0.00    -0.075 S 
BRANCH  20  21
ATOM     21  C   UNL     1      -1.692   7.362   1.476  0.00  0.00    +0.173 C 
BRANCH  21  22
ATOM     22  C   UNL     1      -1.828   6.199   0.527  0.00  0.00    +0.224 C 
ATOM     23  O   UNL     1      -1.429   6.297  -0.614  0.00  0.00    -0.275 OA
ATOM     24  N   UNL     1      -2.393   5.050   0.947  0.00  0.00    -0.308 N 
ATOM     25  H   UNL     1      -2.712   4.971   1.860  0.00  0.00    +0.149 HD
BRANCH  24  26
ATOM     26  C   UNL     1      -2.525   3.919   0.025  0.00  0.00    +0.103 C 
ATOM     27  C   UNL     1      -3.702   3.046   0.444  0.00  0.00    +0.027 C 
ATOM     28  C   UNL     1      -3.687   1.763  -0.395  0.00  0.00    +0.007 C 
ATOM     29  C   UNL     1      -2.487   0.921   0.032  0.00  0.00    +0.035 C 
ATOM     30  C   UNL     1      -1.228   1.748   0.017  0.00  0.00    -0.042 A 
ATOM     31  C   UNL     1      -1.245   3.125   0.026  0.00  0.00    -0.024 A 
ATOM     32  C   UNL     1      -0.048   3.828   0.021  0.00  0.00    +0.006 A 
ATOM     33  C   UNL     1       1.158   3.158   0.008  0.00  0.00    +0.000 A 
ATOM     34  C   UNL     1       1.176   1.776   0.000  0.00  0.00    +0.000 A 
ATOM     35  C   UNL     1      -0.013   1.076   0.008  0.00  0.00    +0.004 A 
ENDBRANCH  24  26
ENDBRANCH  21  22
ENDBRANCH  20  21
ENDBRANCH   4  20
TORSDOF 7
