REMARK  Name = ZINC43666575
REMARK  3 active torsions:
REMARK  status: ('A' for Active; 'I' for Inactive)
REMARK    1  A    between atoms: C_4  and  C_7
REMARK    2  A    between atoms: C_10  and  N_13
REMARK    3  A    between atoms: C_14  and  N_19
REMARK                            x       y       z     vdW  Elec       q    Type
REMARK                         _______ _______ _______ _____ _____    ______ ____
ROOT
ATOM      1  C   UNL     1       3.711  -0.707  -0.038  0.00  0.00    +0.019 C 
ATOM      2  C   UNL     1       3.817  -1.592   1.206  0.00  0.00    +0.010 C 
ATOM      3  C   UNL     1       5.152  -2.339   1.188  0.00  0.00    +0.027 C 
ATOM      4  C   UNL     1       5.232  -3.211  -0.066  0.00  0.00    +0.109 C 
ATOM      5  C   UNL     1       5.126  -2.326  -1.310  0.00  0.00    +0.027 C 
ATOM      6  C   UNL     1       3.791  -1.579  -1.292  0.00  0.00    +0.010 C 
ENDROOT
BRANCH   1  10
ATOM      7  C   UNL     1      -0.017   1.378   0.010  0.00  0.00    +0.000 A 
ATOM      8  C   UNL     1       1.171   2.086   0.002  0.00  0.00    +0.000 A 
ATOM      9  C   UNL     1       2.377   1.411  -0.013  0.00  0.00    +0.004 A 
ATOM     10  C   UNL     1       2.396   0.029  -0.020  0.00  0.00    -0.044 A 
ATOM     11  C   UNL     1       1.208  -0.679  -0.012  0.00  0.00    +0.004 A 
ATOM     12  C   UNL     1       0.002  -0.004   0.002  0.00  0.00    +0.000 A 
ENDBRANCH   1  10
BRANCH   4  13
ATOM     13  N   UNL     1       6.511  -3.926  -0.083  0.00  0.00    -0.247 N 
ATOM     14  C   UNL     1       6.673  -5.274  -0.097  0.00  0.00    +0.128 A 
ATOM     15  C   UNL     1       8.012  -5.525  -0.111  0.00  0.00    +0.072 A 
ATOM     16  C   UNL     1       8.678  -4.296  -0.105  0.00  0.00    +0.150 A 
ATOM     17  N   UNL     1       7.783  -3.341  -0.094  0.00  0.00    -0.177 NA
ATOM     18  I   UNL     1       8.913  -7.416  -0.135  0.00  0.00    -0.039 I 
BRANCH  14  19
ATOM     19  N   UNL     1       5.657  -6.226  -0.097  0.00  0.00    -0.343 N 
ATOM     20  H   UNL     1       4.729  -5.945  -0.087  0.00  0.00    +0.144 HD
ATOM     21  H   UNL     1       5.877  -7.171  -0.108  0.00  0.00    +0.144 HD
ENDBRANCH  14  19
ENDBRANCH   4  13
TORSDOF 3
