REMARK  Name = ZINC48576526
REMARK  3 active torsions:
REMARK  status: ('A' for Active; 'I' for Inactive)
REMARK    1  A    between atoms: C_3  and  N_9
REMARK    2  A    between atoms: C_4  and  O_8
REMARK    3  A    between atoms: C_10  and  C_12
REMARK                            x       y       z     vdW  Elec       q    Type
REMARK                         _______ _______ _______ _____ _____    ______ ____
ROOT
ATOM      1  N   UNL     1       3.584   2.134  -0.021  0.00  0.00    -0.279 N 
ATOM      2  C   UNL     1       3.565   3.478  -0.116  0.00  0.00    +0.250 C 
ATOM      3  O   UNL     1       2.505   4.074  -0.103  0.00  0.00    -0.270 OA
ATOM      4  H   UNL     1       4.430   1.664   0.049  0.00  0.00    +0.155 HD
ENDROOT
BRANCH   2   5
ATOM      5  C   UNL     1       4.830   4.226  -0.236  0.00  0.00    +0.053 A 
ATOM      6  C   UNL     1       6.067   3.538  -0.257  0.00  0.00    +0.020 A 
ATOM      7  C   UNL     1       7.218   4.253  -0.368  0.00  0.00    +0.071 A 
ATOM      8  C   UNL     1       7.156   5.656  -0.459  0.00  0.00    +0.249 A 
ATOM      9  N   UNL     1       5.970   6.290  -0.436  0.00  0.00    -0.328 N 
ATOM     10  C   UNL     1       4.817   5.603  -0.333  0.00  0.00    +0.099 A 
ATOM     11  O   UNL     1       8.186   6.302  -0.559  0.00  0.00    -0.268 OA
ATOM     12  H   UNL     1       5.945   7.258  -0.499  0.00  0.00    +0.168 HD
ENDBRANCH   2   5
BRANCH   1  15
ATOM     13  C   UNL     1       0.065   1.243  -0.621  0.00  0.00    +0.017 A 
ATOM     14  C   UNL     1       1.250   1.955  -0.618  0.00  0.00    +0.028 A 
ATOM     15  C   UNL     1       2.381   1.415  -0.024  0.00  0.00    +0.076 A 
ATOM     16  C   UNL     1       2.320   0.155   0.568  0.00  0.00    +0.139 A 
ATOM     17  C   UNL     1       1.129  -0.552   0.562  0.00  0.00    +0.062 A 
ATOM     18  C   UNL     1       0.004  -0.007  -0.032  0.00  0.00    +0.021 A 
ATOM     19 BR   UNL     1      -1.621  -0.974  -0.039  0.00  0.00    -0.050 Br
BRANCH  16  20
ATOM     20  O   UNL     1       3.426  -0.379   1.151  0.00  0.00    -0.505 OA
ATOM     21  H   UNL     1       3.521  -0.161   2.088  0.00  0.00    +0.292 HD
ENDBRANCH  16  20
ENDBRANCH   1  15
TORSDOF 3
