REMARK  Name = ZINC09936856
REMARK  5 active torsions:
REMARK  status: ('A' for Active; 'I' for Inactive)
REMARK    1  A    between atoms: C_1  and  C_2
REMARK    2  A    between atoms: C_2  and  C_30
REMARK    3  A    between atoms: C_8  and  C_22
REMARK    4  A    between atoms: C_18  and  C_20
REMARK    5  A    between atoms: C_20  and  S_21
REMARK                            x       y       z     vdW  Elec       q    Type
REMARK                         _______ _______ _______ _____ _____    ______ ____
ROOT
ATOM      1  C   UNL     1       0.447   6.229   1.575  0.00  0.00    +0.011 C 
ATOM      2  C   UNL     1       0.709   4.867   0.928  0.00  0.00    -0.027 C 
ATOM      3  C   UNL     1       2.067   4.888   0.225  0.00  0.00    +0.029 C 
ATOM      4  C   UNL     1       2.300   3.562  -0.500  0.00  0.00    +0.083 C 
ATOM      5  C   UNL     1       2.335   2.416   0.499  0.00  0.00    +0.104 C 
ATOM      6  C   UNL     1       2.416   1.058  -0.185  0.00  0.00    +0.159 C 
ATOM      7  N   UNL     1       3.680   0.908  -0.908  0.00  0.00    -0.258 N 
ATOM      8  C   UNL     1       3.784   1.441  -2.206  0.00  0.00    +0.058 A 
ATOM      9  C   UNL     1       3.941   0.616  -3.305  0.00  0.00    +0.025 A 
ATOM     10  C   UNL     1       4.046   1.171  -4.568  0.00  0.00    +0.002 A 
ATOM     11  C   UNL     1       3.996   2.543  -4.734  0.00  0.00    +0.002 A 
ATOM     12  C   UNL     1       3.837   3.374  -3.639  0.00  0.00    +0.025 A 
ATOM     13  C   UNL     1       3.729   2.825  -2.373  0.00  0.00    +0.049 A 
ATOM     14  N   UNL     1       3.563   3.637  -1.243  0.00  0.00    -0.339 N 
ATOM     15  C   UNL     1       4.724   0.271  -0.341  0.00  0.00    +0.230 C 
ATOM     16  O   UNL     1       4.660  -0.090   0.815  0.00  0.00    -0.274 OA
ATOM     17  C   UNL     1       1.092   2.467   1.361  0.00  0.00    +0.141 C 
ATOM     18  O   UNL     1       0.415   1.480   1.527  0.00  0.00    -0.297 OA
ATOM     19  C   UNL     1       0.714   3.782   2.004  0.00  0.00    +0.081 C 
ATOM     20  C   UNL     1      -0.390   4.565  -0.092  0.00  0.00    +0.011 C 
ATOM     21  H   UNL     1       4.270   4.238  -0.958  0.00  0.00    +0.146 HD
ENDROOT
BRANCH   6  22
ATOM     22  C   UNL     1       2.310  -0.027   0.856  0.00  0.00    +0.126 A 
ATOM     23  C   UNL     1       1.930  -1.298   0.631  0.00  0.00    +0.046 A 
ATOM     24  C   UNL     1       1.972  -1.964   1.877  0.00  0.00    +0.041 A 
ATOM     25  C   UNL     1       2.374  -1.061   2.789  0.00  0.00    +0.195 A 
ATOM     26  O   UNL     1       2.583   0.109   2.163  0.00  0.00    -0.466 OA
ENDBRANCH   6  22
BRANCH  15  27
ATOM     27  C   UNL     1       5.972   0.006  -1.145  0.00  0.00    +0.161 C 
BRANCH  27  28
ATOM     28  S   UNL     1       7.184  -0.860  -0.110  0.00  0.00    -0.169 S 
ATOM     29  H   UNL     1       8.239  -1.038  -0.926  0.00  0.00    +0.102 HD
ENDBRANCH  27  28
ENDBRANCH  15  27
TORSDOF 3
