REMARK  Name = ZINC35659394
REMARK  6 active torsions:
REMARK  status: ('A' for Active; 'I' for Inactive)
REMARK    1  A    between atoms: C_1  and  C_2
REMARK    2  A    between atoms: C_2  and  C_4
REMARK    3  A    between atoms: C_2  and  O_19
REMARK    4  A    between atoms: C_4  and  C_6
REMARK    5  A    between atoms: C_4  and  N_18
REMARK    6  A    between atoms: C_8  and  C_11
REMARK                            x       y       z     vdW  Elec       q    Type
REMARK                         _______ _______ _______ _____ _____    ______ ____
ROOT
ATOM      1  C   UNL     1      -1.413  -2.041   0.005  0.00  0.00    +0.216 A 
ATOM      2  N   UNL     1      -1.671  -2.811   1.023  0.00  0.00    -0.193 NA
ATOM      3  C   UNL     1      -1.562  -4.102   0.663  0.00  0.00    +0.202 A 
ATOM      4  N   UNL     1      -1.228  -4.157  -0.603  0.00  0.00    -0.056 NA
ATOM      5  O   UNL     1      -1.131  -2.813  -1.052  0.00  0.00    -0.339 OA
ENDROOT
BRANCH   3   6
ATOM      6  C   UNL     1      -1.781  -5.270   1.551  0.00  0.00    +0.023 A 
ATOM      7  C   UNL     1      -2.139  -5.077   2.884  0.00  0.00    +0.013 A 
ATOM      8  C   UNL     1      -2.342  -6.166   3.707  0.00  0.00    +0.016 A 
ATOM      9  C   UNL     1      -2.190  -7.449   3.210  0.00  0.00    +0.018 A 
ATOM     10  C   UNL     1      -1.834  -7.647   1.887  0.00  0.00    +0.016 A 
ATOM     11  C   UNL     1      -1.635  -6.564   1.054  0.00  0.00    +0.013 A 
ATOM     12 BR   UNL     1      -2.469  -8.938   4.342  0.00  0.00    -0.050 Br
ENDBRANCH   3   6
BRANCH   1  13
ATOM     13  C   UNL     1      -1.433  -0.534   0.013  0.00  0.00    +0.044 C 
BRANCH  13  14
ATOM     14  N   UNL     1      -2.144  -0.047  -1.177  0.00  0.00    +0.388 N 
ATOM     15  H   UNL     1      -2.158   0.962  -1.172  0.00  0.00    -0.089 HD
ATOM     16  H   UNL     1      -1.671  -0.372  -2.007  0.00  0.00    -0.089 HD
ATOM     17  H   UNL     1      -3.090  -0.396  -1.170  0.00  0.00    -0.089 HD
ENDBRANCH  13  14
BRANCH  13  19
ATOM     18  C   UNL     1      -0.019   1.526   0.010  0.00  0.00    +0.036 C 
ATOM     19  C   UNL     1       0.002  -0.004   0.002  0.00  0.00    +0.106 C 
BRANCH  19  20
ATOM     20  O   UNL     1       0.693  -0.477   1.160  0.00  0.00    -0.393 OA
ATOM     21  H   UNL     1       1.611  -0.180   1.219  0.00  0.00    +0.210 HD
ENDBRANCH  19  20
ENDBRANCH  13  19
ENDBRANCH   1  13
TORSDOF 5
