REMARK  Name = ZINC67176022
REMARK  1 active torsions:
REMARK  status: ('A' for Active; 'I' for Inactive)
REMARK    1  A    between atoms: N_9  and  N_10
REMARK                            x       y       z     vdW  Elec       q    Type
REMARK                         _______ _______ _______ _____ _____    ______ ____
ROOT
ATOM      1  C   UNL     1      -0.018   1.468   0.010  0.00  0.00    +0.258 C 
ATOM      2  N   UNL     1       1.403   1.845  -0.001  0.00  0.00    -0.270 N 
ATOM      3  C   UNL     1       2.037   3.058  -0.001  0.00  0.00    +0.078 C 
ATOM      4  C   UNL     1       3.377   3.144  -0.014  0.00  0.00    +0.017 C 
ATOM      5  C   UNL     1       4.180   1.983  -0.029  0.00  0.00    +0.020 C 
ATOM      6  C   UNL     1       3.603   0.757  -0.030  0.00  0.00    +0.060 C 
ATOM      7  C   UNL     1       2.137   0.664  -0.015  0.00  0.00    +0.160 C 
ATOM      8  N   UNL     1       1.350  -0.378  -0.013  0.00  0.00    -0.151 NA
ATOM      9  N   UNL     1       0.002  -0.004   0.002  0.00  0.00    -0.172 N 
ATOM     10 BR   UNL     1       4.667  -0.806  -0.050  0.00  0.00    -0.047 Br
ENDROOT
BRANCH   9  11
ATOM     11  N   UNL     1      -1.080  -0.838   0.008  0.00  0.00    -0.237 NA
ATOM     12  H   UNL     1      -0.791  -1.805  -0.000  0.00  0.00    +0.142 HD
ATOM     13  H   UNL     1      -1.680  -0.647   0.796  0.00  0.00    +0.142 HD
ENDBRANCH   9  11
TORSDOF 1
