REMARK  Name = ZINC02300631
REMARK  11 active torsions:
REMARK  status: ('A' for Active; 'I' for Inactive)
REMARK    1  A    between atoms: C_1  and  C_2
REMARK    2  A    between atoms: C_2  and  O_3
REMARK    3  A    between atoms: O_3  and  C_4
REMARK    4  A    between atoms: C_4  and  C_6
REMARK    5  A    between atoms: C_6  and  C_7
REMARK    6  A    between atoms: C_6  and  N_11
REMARK    7  A    between atoms: C_6  and  N_18
REMARK    8  A    between atoms: N_11  and  C_12
REMARK    9  A    between atoms: C_14  and  C_17
REMARK   10  A    between atoms: C_19  and  C_21
REMARK   11  A    between atoms: C_25  and  C_27
REMARK                            x       y       z     vdW  Elec       q    Type
REMARK                         _______ _______ _______ _____ _____    ______ ____
ROOT
ATOM      1  C   UNL     1       1.092   7.512  -0.049  0.00  0.00    +0.296 C 
ENDROOT
BRANCH   1   2
ATOM      2  C   UNL     1       0.772   8.593   0.985  0.00  0.00    +0.438 C 
ATOM      3  F   UNL     1       1.348   8.250   2.212  0.00  0.00    -0.166 F 
ATOM      4  F   UNL     1       1.291   9.819   0.553  0.00  0.00    -0.166 F 
ATOM      5  F   UNL     1      -0.615   8.701   1.134  0.00  0.00    -0.166 F 
ENDBRANCH   1   2
BRANCH   1   6
ATOM      6  N   UNL     1       0.670   6.206   0.464  0.00  0.00    -0.274 N 
ATOM      7  C   UNL     1      -0.640   5.941   0.639  0.00  0.00    +0.246 C 
ATOM      8  O   UNL     1      -1.466   6.814   0.455  0.00  0.00    -0.270 OA
ATOM      9  H   UNL     1       1.334   5.532   0.678  0.00  0.00    +0.152 HD
BRANCH   7  10
ATOM     10  C   UNL     1      -1.072   4.590   1.056  0.00  0.00    +0.037 A 
ATOM     11  C   UNL     1      -0.126   3.586   1.269  0.00  0.00    +0.013 A 
ATOM     12  C   UNL     1      -0.536   2.328   1.657  0.00  0.00    +0.001 A 
ATOM     13  C   UNL     1      -1.882   2.060   1.835  0.00  0.00    +0.003 A 
ATOM     14  C   UNL     1      -2.825   3.049   1.621  0.00  0.00    -0.050 A 
ATOM     15  C   UNL     1      -2.428   4.313   1.238  0.00  0.00    +0.016 A 
ATOM     16  C   UNL     1      -4.289   2.746   1.812  0.00  0.00    +0.044 C 
ENDBRANCH   7  10
ENDBRANCH   1   6
BRANCH   1  17
ATOM     17  C   UNL     1       0.357   7.809  -1.331  0.00  0.00    +0.359 C 
ATOM     18  O   UNL     1      -0.385   6.982  -1.807  0.00  0.00    -0.246 OA
BRANCH  17  19
ATOM     19  O   UNL     1       0.527   8.991  -1.943  0.00  0.00    -0.462 OA
BRANCH  19  21
ATOM     20  C   UNL     1       0.106  10.600  -3.722  0.00  0.00    +0.048 C 
ATOM     21  C   UNL     1      -0.213   9.208  -3.174  0.00  0.00    +0.229 C 
ENDBRANCH  19  21
ENDBRANCH  17  19
ENDBRANCH   1  17
BRANCH   1  22
ATOM     22  N   UNL     1       2.534   7.493  -0.306  0.00  0.00    -0.294 N 
ATOM     23  H   UNL     1       3.097   8.205   0.035  0.00  0.00    +0.150 HD
BRANCH  22  24
ATOM     24  C   UNL     1       3.096   6.454  -1.039  0.00  0.00    +0.098 A 
ATOM     25  C   UNL     1       2.272   5.486  -1.605  0.00  0.00    +0.045 A 
ATOM     26  C   UNL     1       2.845   4.461  -2.337  0.00  0.00    -0.046 A 
ATOM     27  C   UNL     1       4.227   4.432  -2.469  0.00  0.00    +0.021 A 
ATOM     28  C   UNL     1       4.983   5.422  -1.875  0.00  0.00    +0.084 A 
ATOM     29  C   UNL     1       1.988   3.396  -2.971  0.00  0.00    +0.044 C 
ATOM     30  N   UNL     1       4.455   6.447  -1.154  0.00  0.00    -0.350 N 
ATOM     31  H   UNL     1       5.043   7.171  -0.724  0.00  0.00    +0.166 HD
ENDBRANCH  22  24
ENDBRANCH   1  22
TORSDOF 8
