REMARK  Name = ZINC59424729
REMARK  9 active torsions:
REMARK  status: ('A' for Active; 'I' for Inactive)
REMARK    1  A    between atoms: C_1  and  C_2
REMARK    2  A    between atoms: C_2  and  O_3
REMARK    3  A    between atoms: O_3  and  C_4
REMARK    4  A    between atoms: C_4  and  C_6
REMARK    5  A    between atoms: C_7  and  C_15
REMARK    6  A    between atoms: C_12  and  C_14
REMARK    7  A    between atoms: C_15  and  N_16
REMARK    8  A    between atoms: N_20  and  C_23
REMARK    9  A    between atoms: C_23  and  C_24
REMARK                            x       y       z     vdW  Elec       q    Type
REMARK                         _______ _______ _______ _____ _____    ______ ____
ROOT
ATOM      1  C   UNL     1       1.153  -4.593  -1.536  0.00  0.00    +0.135 C 
ENDROOT
BRANCH   1   3
ATOM      2  C   UNL     1       1.353  -2.336  -2.516  0.00  0.00    +0.075 C 
ATOM      3  C   UNL     1       1.628  -3.654  -2.615  0.00  0.00    +0.038 C 
ATOM      4  N   UNL     1       2.329  -4.151  -3.677  0.00  0.00    -0.271 N 
ATOM      5  C   UNL     1       2.790  -3.395  -4.681  0.00  0.00    +0.304 C 
ATOM      6  O   UNL     1       3.405  -3.928  -5.584  0.00  0.00    -0.253 OA
ATOM      7  N   UNL     1       2.596  -2.062  -4.723  0.00  0.00    -0.292 N 
ATOM      8  C   UNL     1       1.844  -1.428  -3.626  0.00  0.00    +0.110 C 
ATOM      9  C   UNL     1       0.629  -0.719  -4.228  0.00  0.00    +0.033 C 
ATOM     10  H   UNL     1       2.502  -5.105  -3.705  0.00  0.00    +0.156 HD
ATOM     11  H   UNL     1       2.939  -1.533  -5.460  0.00  0.00    +0.151 HD
BRANCH   2  12
ATOM     12  C   UNL     1       0.627  -1.820  -1.418  0.00  0.00    +0.338 C 
ATOM     13  O   UNL     1      -0.560  -1.579  -1.532  0.00  0.00    -0.245 OA
BRANCH  12  14
ATOM     14  O   UNL     1       1.250  -1.596  -0.242  0.00  0.00    -0.462 OA
BRANCH  14  16
ATOM     15  C   UNL     1       1.329  -0.888   2.067  0.00  0.00    +0.048 C 
ATOM     16  C   UNL     1       0.455  -1.074   0.825  0.00  0.00    +0.229 C 
ENDBRANCH  14  16
ENDBRANCH  12  14
ENDBRANCH   2  12
ENDBRANCH   1   3
BRANCH   1  17
ATOM     17  N   UNL     1       0.182  -5.539  -2.102  0.00  0.00    -0.299 NA
ATOM     18  C   UNL     1      -1.021  -4.831  -2.600  0.00  0.00    +0.083 C 
ATOM     19  C   UNL     1      -1.675  -5.685  -3.657  0.00  0.00    -0.003 C 
ATOM     20  C   UNL     1      -2.759  -6.610  -3.082  0.00  0.00    -0.078 C 
ATOM     21  N   UNL     1      -2.358  -7.232  -1.800  0.00  0.00    +0.381 N 
ATOM     22  C   UNL     1      -0.981  -7.670  -1.812  0.00  0.00    -0.063 C 
ATOM     23  C   UNL     1      -0.109  -6.561  -1.193  0.00  0.00    +0.066 C 
ATOM     24  H   UNL     1      -2.481  -6.560  -1.058  0.00  0.00    -0.082 HD
BRANCH  21  25
ATOM     25  C   UNL     1      -3.224  -8.390  -1.540  0.00  0.00    -0.075 C 
BRANCH  25  26
ATOM     26  C   UNL     1      -4.663  -7.914  -1.334  0.00  0.00    -0.028 C 
ATOM     27  C   UNL     1      -4.741  -7.059  -0.068  0.00  0.00    +0.002 C 
ATOM     28  C   UNL     1      -6.180  -6.583   0.139  0.00  0.00    +0.000 C 
ATOM     29  C   UNL     1      -7.102  -7.795   0.285  0.00  0.00    +0.000 C 
ATOM     30  C   UNL     1      -7.025  -8.651  -0.981  0.00  0.00    +0.000 C 
ATOM     31  C   UNL     1      -5.585  -9.127  -1.188  0.00  0.00    +0.002 C 
ENDBRANCH  25  26
ENDBRANCH  21  25
ENDBRANCH   1  17
TORSDOF 7
