REMARK  Name = ZINC39774422
REMARK  4 active torsions:
REMARK  status: ('A' for Active; 'I' for Inactive)
REMARK    1  A    between atoms: C_1  and  C_2
REMARK    2  A    between atoms: N_16  and  N_17
REMARK    3  A    between atoms: C_18  and  C_19
REMARK    4  A    between atoms: C_22  and  O_26
REMARK                            x       y       z     vdW  Elec       q    Type
REMARK                         _______ _______ _______ _____ _____    ______ ____
ROOT
ATOM      1  C   UNL     1       1.232   1.924   0.869  0.00  0.00    +0.046 C 
ATOM      2  C   UNL     1       0.709   0.569   0.464  0.00  0.00    -0.027 A 
ATOM      3  C   UNL     1       0.547   0.261  -0.842  0.00  0.00    +0.005 A 
ATOM      4  C   UNL     1       0.066  -0.990  -1.251  0.00  0.00    +0.001 A 
ATOM      5  C   UNL     1      -0.293  -1.951  -0.370  0.00  0.00    +0.012 A 
ATOM      6  C   UNL     1      -0.194  -1.725   1.021  0.00  0.00    +0.025 A 
ATOM      7  C   UNL     1      -0.579  -2.431   2.133  0.00  0.00    +0.115 C 
ATOM      8  C   UNL     1       0.069  -1.713   3.311  0.00  0.00    +0.253 C 
ATOM      9  N   UNL     1       0.460  -0.409   2.792  0.00  0.00    -0.358 N 
ATOM     10  C   UNL     1       0.376  -0.433   1.484  0.00  0.00    +0.049 A 
ATOM     11  N   UNL     1      -0.948  -1.662   4.363  0.00  0.00    -0.220 NA
ATOM     12  C   UNL     1      -1.862  -2.600   4.385  0.00  0.00    +0.227 C 
ATOM     13  N   UNL     1      -1.956  -3.583   3.458  0.00  0.00    -0.247 N 
ATOM     14  N   UNL     1      -1.349  -3.505   2.319  0.00  0.00    -0.171 NA
ATOM     15  N   UNL     1      -2.783  -2.587   5.413  0.00  0.00    -0.206 N 
ATOM     16  H   UNL     1      -3.472  -3.268   5.457  0.00  0.00    +0.177 HD
ATOM     17  H   UNL     1      -2.501  -4.362   3.650  0.00  0.00    +0.192 HD
ATOM     18  H   UNL     1       0.740   0.351   3.327  0.00  0.00    +0.162 HD
ENDROOT
BRANCH  15  19
ATOM     19  N   UNL     1      -2.723  -1.589   6.395  0.00  0.00    -0.188 NA
ATOM     20  C   UNL     1      -3.512  -1.642   7.425  0.00  0.00    +0.138 C 
BRANCH  20  21
ATOM     21  C   UNL     1      -4.113  -2.926   7.826  0.00  0.00    -0.003 A 
ATOM     22  C   UNL     1      -5.172  -2.950   8.738  0.00  0.00    +0.028 A 
ATOM     23  C   UNL     1      -5.732  -4.154   9.111  0.00  0.00    +0.061 A 
ATOM     24  C   UNL     1      -5.245  -5.342   8.582  0.00  0.00    +0.145 A 
ATOM     25  C   UNL     1      -4.191  -5.324   7.676  0.00  0.00    +0.061 A 
ATOM     26  C   UNL     1      -3.630  -4.124   7.292  0.00  0.00    +0.028 A 
ATOM     27 BR   UNL     1      -3.532  -6.946   6.961  0.00  0.00    -0.046 Br
ATOM     28 BR   UNL     1      -7.165  -4.187  10.344  0.00  0.00    -0.046 Br
BRANCH  24  29
ATOM     29  O   UNL     1      -5.799  -6.526   8.952  0.00  0.00    -0.505 OA
ATOM     30  H   UNL     1      -6.535  -6.808   8.392  0.00  0.00    +0.292 HD
ENDBRANCH  24  29
ENDBRANCH  20  21
ENDBRANCH  15  19
TORSDOF 3
