REMARK  Name = ZINC16827662
REMARK  7 active torsions:
REMARK  status: ('A' for Active; 'I' for Inactive)
REMARK    1  A    between atoms: C_1  and  C_2
REMARK    2  A    between atoms: C_2  and  C_4
REMARK    3  A    between atoms: C_2  and  S_17
REMARK    4  A    between atoms: N_6  and  C_7
REMARK    5  A    between atoms: C_11  and  S_13
REMARK    6  A    between atoms: S_13  and  N_16
REMARK    7  A    between atoms: S_17  and  C_18
REMARK                            x       y       z     vdW  Elec       q    Type
REMARK                         _______ _______ _______ _____ _____    ______ ____
ROOT
ATOM      1  C   UNL     1       5.084   2.642  -0.154  0.00  0.00    +0.230 C 
ATOM      2  O   UNL     1       5.570   1.566   0.123  0.00  0.00    -0.274 OA
ATOM      3  N   UNL     1       5.874   3.648  -0.579  0.00  0.00    -0.285 N 
ATOM      4  H   UNL     1       5.479   4.487  -0.865  0.00  0.00    +0.155 HD
ENDROOT
BRANCH   3   5
ATOM      5  C   UNL     1       7.263   3.483  -0.608  0.00  0.00    +0.035 A 
ATOM      6  C   UNL     1       7.810   2.247  -0.923  0.00  0.00    +0.023 A 
ATOM      7  C   UNL     1       9.182   2.087  -0.951  0.00  0.00    +0.004 A 
ATOM      8  C   UNL     1      10.010   3.158  -0.666  0.00  0.00    +0.028 A 
ATOM      9  C   UNL     1       9.468   4.390  -0.353  0.00  0.00    +0.107 A 
ATOM     10  C   UNL     1       8.097   4.558  -0.328  0.00  0.00    +0.051 A 
BRANCH   9  11
ATOM     11  S   UNL     1      10.527   5.751   0.009  0.00  0.00    +0.056 S 
ATOM     12  O   UNL     1       9.771   6.654   0.804  0.00  0.00    -0.153 OA
ATOM     13  O   UNL     1      11.761   5.200   0.447  0.00  0.00    -0.153 OA
BRANCH  11  14
ATOM     14  N   UNL     1      10.836   6.525  -1.422  0.00  0.00    -0.204 NA
ATOM     15  H   UNL     1      11.007   7.480  -1.431  0.00  0.00    +0.144 HD
ATOM     16  H   UNL     1      10.847   6.023  -2.252  0.00  0.00    +0.144 HD
ENDBRANCH  11  14
ENDBRANCH   9  11
ENDBRANCH   3   5
BRANCH   1  18
ATOM     17  C   UNL     1       3.301   3.589   1.285  0.00  0.00    +0.029 C 
ATOM     18  C   UNL     1       3.598   2.854  -0.023  0.00  0.00    +0.137 C 
BRANCH  18  19
ATOM     19  S   UNL     1       2.758   1.250  -0.019  0.00  0.00    -0.075 S 
BRANCH  19  20
ATOM     20  C   UNL     1       1.079   1.784  -0.011  0.00  0.00    +0.168 A 
ATOM     21  N   UNL     1      -0.008   0.957  -0.006  0.00  0.00    -0.333 N 
ATOM     22  H   UNL     1       0.007  -0.043  -0.003  0.00  0.00    +0.168 HD
ATOM     23  C   UNL     1      -1.136   1.761  -0.007  0.00  0.00    +0.068 A 
ATOM     24  C   UNL     1      -2.499   1.505   0.006  0.00  0.00    +0.047 A 
ATOM     25  C   UNL     1      -3.396   2.555   0.011  0.00  0.00    +0.043 A 
ATOM     26  C   UNL     1      -2.941   3.866   0.008  0.00  0.00    +0.022 A 
ATOM     27  C   UNL     1      -1.591   4.138   0.002  0.00  0.00    +0.031 A 
ATOM     28  C   UNL     1      -0.672   3.086  -0.003  0.00  0.00    +0.090 A 
ATOM     29  N   UNL     1       0.686   3.034  -0.009  0.00  0.00    -0.222 NA
ATOM     30 CL   UNL     1      -5.101   2.232   0.020  0.00  0.00    -0.083 Cl
ENDBRANCH  19  20
ENDBRANCH  18  19
ENDBRANCH   1  18
TORSDOF 6
