REMARK  Name = ZINC05323487
REMARK  3 active torsions:
REMARK  status: ('A' for Active; 'I' for Inactive)
REMARK    1  A    between atoms: C_1  and  C_2
REMARK    2  A    between atoms: C_9  and  C_13
REMARK    3  A    between atoms: C_13  and  C_14
REMARK                            x       y       z     vdW  Elec       q    Type
REMARK                         _______ _______ _______ _____ _____    ______ ____
ROOT
ATOM      1  C   UNL     1       1.216  -2.194  -0.021  0.00  0.00    +0.045 C 
ATOM      2  C   UNL     1       1.211  -0.687  -0.013  0.00  0.00    -0.029 A 
ATOM      3  C   UNL     1       2.406  -0.001  -0.021  0.00  0.00    +0.051 A 
ATOM      4  C   UNL     1       2.409   1.388  -0.014  0.00  0.00    +0.137 A 
ATOM      5  C   UNL     1       1.186   2.079   0.002  0.00  0.00    +0.026 A 
ATOM      6  C   UNL     1      -0.017   1.375   0.010  0.00  0.00    +0.032 A 
ATOM      7  C   UNL     1       0.002  -0.004   0.002  0.00  0.00    +0.045 A 
ATOM      8 CL   UNL     1      -1.491  -0.889   0.012  0.00  0.00    -0.083 Cl
ATOM      9  C   UNL     1       1.540   3.504   0.006  0.00  0.00    +0.021 A 
ATOM     10  C   UNL     1       2.880   3.556  -0.007  0.00  0.00    +0.175 A 
ATOM     11  O   UNL     1       3.392   2.312  -0.019  0.00  0.00    -0.448 OA
ATOM     12 BR   UNL     1       3.902   5.147  -0.009  0.00  0.00    -0.008 Br
ENDROOT
BRANCH   9  13
ATOM     13  C   UNL     1       0.589   4.673   0.022  0.00  0.00    +0.135 C 
BRANCH  13  14
ATOM     14  C   UNL     1       0.258   5.071  -1.393  0.00  0.00    +0.215 C 
ATOM     15  O   UNL     1       0.747   4.465  -2.323  0.00  0.00    -0.276 OA
ATOM     16  N   UNL     1      -0.581   6.100  -1.625  0.00  0.00    -0.329 N 
ATOM     17  H   UNL     1      -0.971   6.584  -0.881  0.00  0.00    +0.145 HD
ATOM     18  H   UNL     1      -0.793   6.356  -2.536  0.00  0.00    +0.145 HD
ENDBRANCH  13  14
ENDBRANCH   9  13
TORSDOF 2
