REMARK  Name = ZINC37318384
REMARK  5 active torsions:
REMARK  status: ('A' for Active; 'I' for Inactive)
REMARK    1  A    between atoms: C_1  and  C_2
REMARK    2  A    between atoms: C_7  and  N_11
REMARK    3  A    between atoms: N_11  and  C_12
REMARK    4  A    between atoms: C_12  and  C_13
REMARK    5  A    between atoms: C_12  and  C_14
REMARK                            x       y       z     vdW  Elec       q    Type
REMARK                         _______ _______ _______ _____ _____    ______ ____
ROOT
ATOM      1  C   UNL     1      -0.018   1.503   0.010  0.00  0.00    +0.086 C 
ATOM      2  C   UNL     1       0.002  -0.004   0.002  0.00  0.00    +0.105 A 
ATOM      3  N   UNL     1       0.008  -0.743  -1.068  0.00  0.00    -0.233 NA
ATOM      4  C   UNL     1       0.027  -2.056  -0.717  0.00  0.00    +0.089 A 
ATOM      5  C   UNL     1       0.041  -3.247  -1.448  0.00  0.00    +0.031 A 
ATOM      6  C   UNL     1       0.060  -4.447  -0.796  0.00  0.00    +0.025 A 
ATOM      7  C   UNL     1       0.067  -4.498   0.597  0.00  0.00    +0.030 A 
ATOM      8  C   UNL     1       0.054  -3.329   1.339  0.00  0.00    +0.050 A 
ATOM      9  C   UNL     1       0.034  -2.103   0.688  0.00  0.00    +0.068 A 
ATOM     10  N   UNL     1       0.023  -0.790   1.114  0.00  0.00    -0.342 N 
ATOM     11  H   UNL     1       0.028  -0.484   2.034  0.00  0.00    +0.167 HD
ENDROOT
BRANCH   7  12
ATOM     12  N   UNL     1       0.086  -5.735   1.247  0.00  0.00    -0.337 N 
ATOM     13  H   UNL     1       0.090  -5.774   2.217  0.00  0.00    +0.147 HD
BRANCH  12  14
ATOM     14  C   UNL     1       0.099  -6.974   0.466  0.00  0.00    +0.105 C 
ATOM     15  C   UNL     1      -1.334  -7.358   0.093  0.00  0.00    +0.033 C 
BRANCH  14  16
ATOM     16  C   UNL     1       0.718  -8.078   1.284  0.00  0.00    +0.024 A 
ATOM     17  C   UNL     1       1.643  -8.998   0.916  0.00  0.00    +0.030 A 
ATOM     18  C   UNL     1       2.071  -9.928   1.846  0.00  0.00    +0.023 A 
ATOM     19  C   UNL     1       1.552  -9.892   3.098  0.00  0.00    +0.046 A 
ATOM     20  S   UNL     1       0.428  -8.509   2.992  0.00  0.00    -0.099 S 
ATOM     21 BR   UNL     1       2.337  -9.011  -0.843  0.00  0.00    -0.049 Br
ENDBRANCH  14  16
ENDBRANCH  12  14
ENDBRANCH   7  12
TORSDOF 3
