REMARK  Name = ZINC48469457
REMARK  4 active torsions:
REMARK  status: ('A' for Active; 'I' for Inactive)
REMARK    1  A    between atoms: C_1  and  C_2
REMARK    2  A    between atoms: C_5  and  N_9
REMARK    3  A    between atoms: N_12  and  C_13
REMARK    4  A    between atoms: C_13  and  C_14
REMARK                            x       y       z     vdW  Elec       q    Type
REMARK                         _______ _______ _______ _____ _____    ______ ____
ROOT
ATOM      1  N   UNL     1       0.059  -4.171  -0.023  0.00  0.00    -0.268 N 
ATOM      2  C   UNL     1      -0.040  -4.839  -1.190  0.00  0.00    +0.304 C 
ATOM      3  O   UNL     1      -0.054  -4.229  -2.241  0.00  0.00    -0.252 OA
ATOM      4  N   UNL     1      -0.124  -6.184  -1.190  0.00  0.00    -0.295 N 
ATOM      5  H   UNL     1       0.152  -4.660   0.809  0.00  0.00    +0.156 HD
ATOM      6  H   UNL     1      -0.113  -6.672  -0.352  0.00  0.00    +0.151 HD
ENDROOT
BRANCH   1  11
ATOM      7  C   UNL     1      -0.072   1.502   0.017  0.00  0.00    +0.044 C 
ATOM      8  C   UNL     1      -0.037  -0.005   0.006  0.00  0.00    -0.049 A 
ATOM      9  C   UNL     1      -0.627  -0.702  -1.032  0.00  0.00    +0.005 A 
ATOM     10  C   UNL     1      -0.597  -2.083  -1.045  0.00  0.00    +0.025 A 
ATOM     11  C   UNL     1       0.027  -2.772  -0.013  0.00  0.00    +0.053 A 
ATOM     12  C   UNL     1       0.619  -2.069   1.029  0.00  0.00    +0.062 A 
ATOM     13  C   UNL     1       0.590  -0.687   1.033  0.00  0.00    +0.025 A 
ATOM     14 CL   UNL     1       1.400  -2.925   2.321  0.00  0.00    -0.082 Cl
ENDBRANCH   1  11
BRANCH   4  15
ATOM     15  C   UNL     1      -0.232  -6.911  -2.458  0.00  0.00    +0.148 C 
BRANCH  15  16
ATOM     16  C   UNL     1      -0.310  -8.391  -2.184  0.00  0.00    +0.008 A 
ATOM     17  C   UNL     1      -1.405  -9.164  -1.983  0.00  0.00    +0.014 A 
ATOM     18  C   UNL     1      -1.236 -10.516  -1.746  0.00  0.00    +0.028 A 
ATOM     19  C   UNL     1       0.020 -11.027  -1.722  0.00  0.00    +0.078 A 
ATOM     20  S   UNL     1       1.014  -9.580  -2.049  0.00  0.00    -0.080 S 
ATOM     21 CL   UNL     1       0.529 -12.665  -1.452  0.00  0.00    -0.076 Cl
ENDBRANCH  15  16
ENDBRANCH   4  15
TORSDOF 3
