REMARK  Name = ZINC12493547
REMARK  4 active torsions:
REMARK  status: ('A' for Active; 'I' for Inactive)
REMARK    1  A    between atoms: C_1  and  C_2
REMARK    2  A    between atoms: C_5  and  O_27
REMARK    3  A    between atoms: C_17  and  C_26
REMARK    4  A    between atoms: C_23  and  O_25
REMARK                            x       y       z     vdW  Elec       q    Type
REMARK                         _______ _______ _______ _____ _____    ______ ____
ROOT
ATOM      1  C   UNL     1       0.985   8.053   0.410  0.00  0.00    +0.016 C 
ATOM      2  C   UNL     1       2.191   7.183   0.036  0.00  0.00    -0.008 C 
ATOM      3  C   UNL     1       3.297   7.418   1.057  0.00  0.00    +0.014 C 
ATOM      4  C   UNL     1       4.449   8.192   0.417  0.00  0.00    +0.032 C 
ATOM      5  C   UNL     1       3.968   9.453  -0.292  0.00  0.00    +0.119 C 
ATOM      6  C   UNL     1       3.051   9.089  -1.466  0.00  0.00    +0.062 C 
ATOM      7  C   UNL     1       2.688   7.620  -1.322  0.00  0.00    -0.065 C 
ATOM      8  C   UNL     1       2.817   6.835  -2.347  0.00  0.00    -0.027 C 
ATOM      9  C   UNL     1       2.517   5.356  -2.299  0.00  0.00    +0.031 C 
ATOM     10  C   UNL     1       2.708   4.918  -0.847  0.00  0.00    +0.001 C 
ATOM     11  C   UNL     1       1.725   5.735   0.005  0.00  0.00    +0.003 C 
ATOM     12  C   UNL     1       1.616   5.114   1.390  0.00  0.00    +0.005 C 
ATOM     13  C   UNL     1       0.922   3.744   1.319  0.00  0.00    +0.010 C 
ATOM     14  C   UNL     1       1.145   3.099  -0.025  0.00  0.00    +0.004 C 
ATOM     15  C   UNL     1       2.532   3.456  -0.597  0.00  0.00    +0.009 C 
ATOM     16  C   UNL     1       2.625   2.508  -1.801  0.00  0.00    +0.081 C 
ATOM     17  C   UNL     1       1.989   1.217  -1.282  0.00  0.00    +0.162 C 
ATOM     18  O   UNL     1       2.046   0.130  -1.805  0.00  0.00    -0.295 OA
ATOM     19  C   UNL     1       1.267   1.559   0.017  0.00  0.00    +0.186 C 
ATOM     20  C   UNL     1       0.005   3.426  -0.991  0.00  0.00    +0.014 C 
ENDROOT
BRANCH  19  21
ATOM     21  O   UNL     1      -0.033   0.976   0.038  0.00  0.00    -0.384 OA
ATOM     22  H   UNL     1      -0.030   0.009   0.045  0.00  0.00    +0.210 HD
ENDBRANCH  19  21
BRANCH   5  23
ATOM     23  O   UNL     1       3.266  10.290   0.629  0.00  0.00    -0.391 OA
ATOM     24  H   UNL     1       2.955  11.122   0.246  0.00  0.00    +0.210 HD
ENDBRANCH   5  23
TORSDOF 2
