REMARK  Name = ZINC65374179
REMARK  8 active torsions:
REMARK  status: ('A' for Active; 'I' for Inactive)
REMARK    1  A    between atoms: C_1  and  C_2
REMARK    2  A    between atoms: C_4  and  C_8
REMARK    3  A    between atoms: C_8  and  C_9
REMARK    4  A    between atoms: C_9  and  C_11
REMARK    5  A    between atoms: C_9  and  N_12
REMARK    6  A    between atoms: C_13  and  C_15
REMARK    7  A    between atoms: C_17  and  C_27
REMARK    8  A    between atoms: C_20  and  C_26
REMARK                            x       y       z     vdW  Elec       q    Type
REMARK                         _______ _______ _______ _____ _____    ______ ____
ROOT
ATOM      1  N   UNL     1       2.252  -4.020  -0.840  0.00  0.00    -0.311 N 
ATOM      2  C   UNL     1       3.591  -3.858  -0.828  0.00  0.00    +0.234 C 
ATOM      3  O   UNL     1       4.155  -3.399  -1.798  0.00  0.00    -0.274 OA
ATOM      4  H   UNL     1       1.801  -4.388  -0.064  0.00  0.00    +0.149 HD
ENDROOT
BRANCH   2   5
ATOM      5  C   UNL     1       4.386  -4.249   0.391  0.00  0.00    +0.168 C 
ATOM      6  C   UNL     1       4.296  -3.161   1.433  0.00  0.00    -0.042 C 
ATOM      7  C   UNL     1       5.504  -2.735   1.733  0.00  0.00    -0.025 C 
ATOM      8  C   UNL     1       5.919  -1.592   2.568  0.00  0.00    +0.008 C 
ATOM      9  C   UNL     1       7.019  -0.935   2.101  0.00  0.00    -0.050 C 
ATOM     10  C   UNL     1       7.643  -1.355   0.846  0.00  0.00    +0.001 C 
ATOM     11  C   UNL     1       7.449  -2.555   0.296  0.00  0.00    -0.003 C 
ATOM     12  C   UNL     1       6.541  -3.544   0.977  0.00  0.00    +0.108 C 
ATOM     13  N   UNL     1       5.811  -4.400   0.035  0.00  0.00    -0.292 NA
ATOM     14  C   UNL     1       7.592   0.223   2.876  0.00  0.00    +0.044 C 
ATOM     15  C   UNL     1       3.017  -2.641   2.038  0.00  0.00    +0.041 C 
ATOM     16  H   UNL     1       6.104  -5.362   0.115  0.00  0.00    +0.124 HD
ENDBRANCH   2   5
BRANCH   1  17
ATOM     17  C   UNL     1       1.480  -3.640  -2.025  0.00  0.00    +0.076 C 
ATOM     18  C   UNL     1       1.481  -4.797  -3.027  0.00  0.00    +0.028 C 
BRANCH  17  19
ATOM     19  C   UNL     1       0.040  -3.323  -1.615  0.00  0.00    +0.076 C 
BRANCH  19  23
ATOM     20  C   UNL     1      -0.018   1.503   0.010  0.00  0.00    +0.067 C 
ATOM     21  C   UNL     1       0.002  -0.004   0.002  0.00  0.00    +0.060 A 
ATOM     22  C   UNL     1       0.008  -0.818  -1.135  0.00  0.00    +0.047 A 
ATOM     23  C   UNL     1       0.028  -2.107  -0.725  0.00  0.00    +0.038 A 
ATOM     24  N   UNL     1       0.034  -2.109   0.625  0.00  0.00    -0.281 N 
ATOM     25  H   UNL     1       0.048  -2.894   1.194  0.00  0.00    +0.189 HD
ATOM     26  N   UNL     1       0.023  -0.777   1.058  0.00  0.00    -0.179 NA
ENDBRANCH  19  23
ENDBRANCH  17  19
ENDBRANCH   1  17
TORSDOF 4
