REMARK  Name = ZINC04556878
REMARK  6 active torsions:
REMARK  status: ('A' for Active; 'I' for Inactive)
REMARK    1  A    between atoms: C_1  and  C_2
REMARK    2  A    between atoms: N_8  and  C1*_11
REMARK    3  A    between atoms: C2*_13  and  O2*_23
REMARK    4  A    between atoms: C3*_15  and  O3*_22
REMARK    5  A    between atoms: C4*_17  and  C5*_20
REMARK    6  A    between atoms: C5*_20  and  O5*_21
REMARK                            x       y       z     vdW  Elec       q    Type
REMARK                         _______ _______ _______ _____ _____    ______ ____
ROOT
ATOM      1  C1* UNL     1       0.505   4.456   0.024  0.00  0.00    +0.253 C 
ATOM      2  C2* UNL     1       0.049   4.796  -1.413  0.00  0.00    +0.195 C 
ATOM      3  C3* UNL     1      -0.057   6.337  -1.418  0.00  0.00    +0.178 C 
ATOM      4  C4* UNL     1       0.347   6.746   0.016  0.00  0.00    +0.177 C 
ATOM      5  O4* UNL     1       1.160   5.653   0.496  0.00  0.00    -0.346 OA
ENDROOT
BRANCH   1  13
ATOM      6  C   UNL     1       3.579  -0.898  -0.037  0.00  0.00    +0.068 C 
ATOM      7  C   UNL     1       2.304  -0.095  -0.021  0.00  0.00    +0.069 A 
ATOM      8  C   UNL     1       2.342   1.300  -0.013  0.00  0.00    +0.129 A 
ATOM      9  C   UNL     1       1.118   2.000   0.002  0.00  0.00    +0.166 A 
ATOM     10  N   UNL     1      -0.016   1.312   0.009  0.00  0.00    -0.216 NA
ATOM     11  C   UNL     1       0.002  -0.004   0.002  0.00  0.00    +0.223 A 
ATOM     12  N   UNL     1       1.127  -0.696  -0.013  0.00  0.00    -0.238 NA
ATOM     13  N   UNL     1       1.445   3.333   0.007  0.00  0.00    -0.286 N 
ATOM     14  C   UNL     1       2.805   3.420  -0.005  0.00  0.00    +0.203 A 
ATOM     15  N   UNL     1       3.329   2.229  -0.017  0.00  0.00    -0.232 NA
ENDBRANCH   1  13
BRANCH   3  16
ATOM     16  O3* UNL     1       0.844   6.898  -2.374  0.00  0.00    -0.386 OA
ATOM     17  H3* UNL     1       0.819   7.864  -2.420  0.00  0.00    +0.210 HD
ENDBRANCH   3  16
BRANCH   2  18
ATOM     18  O2* UNL     1      -1.223   4.205  -1.687  0.00  0.00    -0.385 OA
ATOM     19  H2* UNL     1      -1.558   4.387  -2.576  0.00  0.00    +0.210 HD
ENDBRANCH   2  18
BRANCH   4  20
ATOM     20  C5* UNL     1       1.159   8.043  -0.009  0.00  0.00    +0.190 C 
BRANCH  20  21
ATOM     21  O5* UNL     1       1.423   8.465   1.330  0.00  0.00    -0.392 OA
ATOM     22  H5* UNL     1       1.936   9.283   1.391  0.00  0.00    +0.210 HD
ENDBRANCH  20  21
ENDBRANCH   4  20
TORSDOF 5
