REMARK  Name = ZINC46567804
REMARK  5 active torsions:
REMARK  status: ('A' for Active; 'I' for Inactive)
REMARK    1  A    between atoms: C_4  and  S_21
REMARK    2  A    between atoms: C_5  and  N_7
REMARK    3  A    between atoms: C_8  and  C_10
REMARK    4  A    between atoms: S_21  and  C_22
REMARK    5  A    between atoms: C_22  and  C_23
REMARK                            x       y       z     vdW  Elec       q    Type
REMARK                         _______ _______ _______ _____ _____    ______ ____
ROOT
ATOM      1  N   UNL     1       1.234  -2.081  -0.021  0.00  0.00    -0.279 N 
ATOM      2  C   UNL     1       0.082  -2.773   0.088  0.00  0.00    +0.265 C 
ATOM      3  O   UNL     1      -0.983  -2.185   0.102  0.00  0.00    -0.268 OA
ATOM      4  H   UNL     1       2.076  -2.553  -0.113  0.00  0.00    +0.155 HD
ENDROOT
BRANCH   2   5
ATOM      5  C   UNL     1       0.113  -4.240   0.190  0.00  0.00    +0.103 A 
ATOM      6  C   UNL     1      -0.976  -5.045   0.299  0.00  0.00    +0.040 A 
ATOM      7  C   UNL     1      -0.518  -6.383   0.372  0.00  0.00    +0.000 A 
ATOM      8  C   UNL     1      -1.170  -7.617   0.490  0.00  0.00    +0.011 A 
ATOM      9  C   UNL     1      -0.440  -8.768   0.537  0.00  0.00    +0.016 A 
ATOM     10  C   UNL     1       0.949  -8.729   0.469  0.00  0.00    +0.020 A 
ATOM     11  C   UNL     1       1.612  -7.527   0.353  0.00  0.00    +0.041 A 
ATOM     12  C   UNL     1       0.888  -6.340   0.302  0.00  0.00    +0.048 A 
ATOM     13  N   UNL     1       1.254  -5.019   0.186  0.00  0.00    -0.351 N 
ATOM     14  H   UNL     1       2.163  -4.689   0.115  0.00  0.00    +0.166 HD
ATOM     15 BR   UNL     1       1.935 -10.341   0.537  0.00  0.00    -0.050 Br
ENDBRANCH   2   5
BRANCH   1  20
ATOM     16  C   UNL     1       0.153   1.373   0.637  0.00  0.00    +0.002 A 
ATOM     17  C   UNL     1       1.172   2.090   0.036  0.00  0.00    +0.001 A 
ATOM     18  C   UNL     1       2.214   1.429  -0.586  0.00  0.00    +0.016 A 
ATOM     19  C   UNL     1       2.241   0.042  -0.609  0.00  0.00    +0.030 A 
ATOM     20  C   UNL     1       1.213  -0.681  -0.002  0.00  0.00    +0.047 A 
ATOM     21  C   UNL     1       0.172  -0.009   0.620  0.00  0.00    +0.024 A 
BRANCH  19  22
ATOM     22  S   UNL     1       3.568  -0.804  -1.402  0.00  0.00    -0.114 S 
BRANCH  22  23
ATOM     23  C   UNL     1       4.628   0.530  -2.026  0.00  0.00    +0.169 C 
BRANCH  23  24
ATOM     24  C   UNL     1       5.817  -0.064  -2.736  0.00  0.00    +0.221 C 
ATOM     25  O   UNL     1       5.938  -1.268  -2.813  0.00  0.00    -0.275 OA
ATOM     26  N   UNL     1       6.746   0.743  -3.284  0.00  0.00    -0.329 N 
ATOM     27  H   UNL     1       6.650   1.706  -3.222  0.00  0.00    +0.145 HD
ATOM     28  H   UNL     1       7.512   0.361  -3.741  0.00  0.00    +0.145 HD
ENDBRANCH  23  24
ENDBRANCH  22  23
ENDBRANCH  19  22
ENDBRANCH   1  20
TORSDOF 5
