REMARK  Name = ZINC35990874
REMARK  9 active torsions:
REMARK  status: ('A' for Active; 'I' for Inactive)
REMARK    1  A    between atoms: C_1  and  C_2
REMARK    2  A    between atoms: C_2  and  N_3
REMARK    3  A    between atoms: C_4  and  C_23
REMARK    4  A    between atoms: C_5  and  C_18
REMARK    5  A    between atoms: C_6  and  C_11
REMARK    6  A    between atoms: C_18  and  O_20
REMARK    7  A    between atoms: O_20  and  C_21
REMARK    8  A    between atoms: C_21  and  C_22
REMARK    9  A    between atoms: C_23  and  N_24
REMARK                            x       y       z     vdW  Elec       q    Type
REMARK                         _______ _______ _______ _____ _____    ______ ____
ROOT
ATOM      1  N   UNL     1       0.895  -0.314   1.167  0.00  0.00    -0.258 N 
ATOM      2  C   UNL     1       2.239  -0.558   1.196  0.00  0.00    +0.041 C 
ATOM      3  C   UNL     1       2.827  -1.091   2.288  0.00  0.00    +0.080 C 
ATOM      4  C   UNL     1       1.947  -1.409   3.479  0.00  0.00    +0.145 C 
ATOM      5  N   UNL     1       0.511  -1.108   3.347  0.00  0.00    -0.288 N 
ATOM      6  C   UNL     1       0.072  -0.570   2.192  0.00  0.00    +0.307 C 
ATOM      7  O   UNL     1      -1.110  -0.314   2.075  0.00  0.00    -0.252 OA
ATOM      8  H   UNL     1      -0.103  -1.289   4.075  0.00  0.00    +0.151 HD
ENDROOT
BRANCH   4   9
ATOM      9  C   UNL     1       2.086  -2.879   3.781  0.00  0.00    -0.004 A 
ATOM     10  C   UNL     1       1.205  -3.786   3.223  0.00  0.00    +0.007 A 
ATOM     11  C   UNL     1       1.333  -5.134   3.499  0.00  0.00    +0.000 A 
ATOM     12  C   UNL     1       2.342  -5.577   4.334  0.00  0.00    +0.001 A 
ATOM     13  C   UNL     1       3.224  -4.671   4.893  0.00  0.00    +0.020 A 
ATOM     14  C   UNL     1       3.100  -3.322   4.612  0.00  0.00    +0.046 A 
ATOM     15 CL   UNL     1       4.211  -2.184   5.307  0.00  0.00    -0.083 Cl
ENDBRANCH   4   9
BRANCH   1  17
ATOM     16  C   UNL     1       0.360   1.793   0.047  0.00  0.00    +0.025 C 
ATOM     17  C   UNL     1       0.323   0.267  -0.050  0.00  0.00    +0.111 C 
ENDBRANCH   1  17
BRANCH   3  18
ATOM     18  C   UNL     1       4.218  -1.345   2.318  0.00  0.00    +0.339 C 
ATOM     19  O   UNL     1       4.638  -2.464   2.085  0.00  0.00    -0.245 OA
BRANCH  18  20
ATOM     20  O   UNL     1       5.080  -0.347   2.605  0.00  0.00    -0.462 OA
BRANCH  20  21
ATOM     21  C   UNL     1       6.471  -0.675   2.618  0.00  0.00    +0.229 C 
ATOM     22  C   UNL     1       7.286   0.574   2.960  0.00  0.00    +0.048 C 
ENDBRANCH  20  21
ENDBRANCH  18  20
ENDBRANCH   3  18
BRANCH   2  23
ATOM     23  C   UNL     1       3.078  -0.226  -0.012  0.00  0.00    +0.136 C 
BRANCH  23  24
ATOM     24  N   UNL     1       2.699  -1.104  -1.127  0.00  0.00    -0.299 NA
ATOM     25  C   UNL     1       2.975  -2.525  -0.802  0.00  0.00    +0.083 C 
ATOM     26  C   UNL     1       2.072  -3.391  -1.643  0.00  0.00    -0.004 C 
ATOM     27  C   UNL     1       2.729  -3.821  -2.965  0.00  0.00    -0.081 C 
ATOM     28  N   UNL     1       3.482  -2.724  -3.612  0.00  0.00    +0.380 N 
ATOM     29  C   UNL     1       2.777  -1.464  -3.544  0.00  0.00    -0.067 C 
ATOM     30  C   UNL     1       3.291  -0.681  -2.321  0.00  0.00    +0.066 C 
ATOM     31  H   UNL     1       4.375  -2.624  -3.154  0.00  0.00    -0.086 HD
ATOM     32  H   UNL     1       3.637  -2.960  -4.581  0.00  0.00    -0.086 HD
ENDBRANCH  23  24
ENDBRANCH   2  23
TORSDOF 7
