REMARK  Name = ZINC40282688
REMARK  3 active torsions:
REMARK  status: ('A' for Active; 'I' for Inactive)
REMARK    1  A    between atoms: C_1  and  C_2
REMARK    2  A    between atoms: C_7  and  C_8
REMARK    3  A    between atoms: C_8  and  C_10
REMARK                            x       y       z     vdW  Elec       q    Type
REMARK                         _______ _______ _______ _____ _____    ______ ____
ROOT
ATOM      1  C   UNL     1       1.154   0.580   2.888  0.00  0.00    -0.027 A 
ATOM      2  C   UNL     1       1.664   1.648   2.170  0.00  0.00    +0.007 A 
ATOM      3  C   UNL     1       2.892   2.186   2.499  0.00  0.00    +0.028 A 
ATOM      4  C   UNL     1       3.619   1.653   3.553  0.00  0.00    +0.067 A 
ATOM      5  C   UNL     1       3.105   0.576   4.278  0.00  0.00    +0.067 A 
ATOM      6  C   UNL     1       1.867   0.046   3.943  0.00  0.00    +0.033 A 
ATOM      7  N   UNL     1       4.043   0.266   5.259  0.00  0.00    -0.306 N 
ATOM      8  H   UNL     1       3.964  -0.441   5.918  0.00  0.00    +0.170 HD
ATOM      9  C   UNL     1       5.081   1.116   5.137  0.00  0.00    +0.325 A 
ATOM     10  O   UNL     1       6.073   1.117   5.842  0.00  0.00    -0.247 OA
ATOM     11  N   UNL     1       4.854   1.965   4.117  0.00  0.00    -0.306 N 
ATOM     12  H   UNL     1       5.449   2.673   3.824  0.00  0.00    +0.170 HD
ENDROOT
BRANCH   1  13
ATOM     13  C   UNL     1      -0.188   0.000   2.521  0.00  0.00    +0.117 C 
ATOM     14 BR   UNL     1      -1.541   1.427   2.525  0.00  0.00    -0.078 Br
BRANCH  13  21
ATOM     15  C   UNL     1       0.682  -2.737   2.210  0.00  0.00    +0.044 C 
ATOM     16  C   UNL     1       0.305  -1.924   0.998  0.00  0.00    -0.046 A 
ATOM     17  C   UNL     1       0.371  -2.490  -0.262  0.00  0.00    +0.003 A 
ATOM     18  C   UNL     1       0.026  -1.744  -1.373  0.00  0.00    +0.000 A 
ATOM     19  C   UNL     1      -0.385  -0.432  -1.225  0.00  0.00    +0.000 A 
ATOM     20  C   UNL     1      -0.452   0.133   0.035  0.00  0.00    +0.005 A 
ATOM     21  C   UNL     1      -0.111  -0.614   1.147  0.00  0.00    -0.027 A 
ENDBRANCH  13  21
ENDBRANCH   1  13
TORSDOF 2
