REMARK  Name = ZINC40415684
REMARK  3 active torsions:
REMARK  status: ('A' for Active; 'I' for Inactive)
REMARK    1  A    between atoms: C_4  and  N_21
REMARK    2  A    between atoms: C_5  and  C_7
REMARK    3  A    between atoms: C_16  and  N_20
REMARK                            x       y       z     vdW  Elec       q    Type
REMARK                         _______ _______ _______ _____ _____    ______ ____
ROOT
ATOM      1  C   UNL     1       1.627  -2.121   0.257  0.00  0.00    +0.262 C 
ATOM      2  O   UNL     1       2.760  -2.561   0.285  0.00  0.00    -0.269 OA
ATOM      3  N   UNL     1       0.576  -2.961   0.339  0.00  0.00    -0.167 N 
ATOM      4  C   UNL     1      -0.710  -2.587   0.206  0.00  0.00    +0.261 C 
ATOM      5  O   UNL     1      -1.102  -1.457  -0.004  0.00  0.00    -0.269 OA
ATOM      6  C   UNL     1      -1.564  -3.782   0.357  0.00  0.00    +0.052 A 
ATOM      7  C   UNL     1      -2.929  -4.007   0.319  0.00  0.00    +0.014 A 
ATOM      8  C   UNL     1      -3.426  -5.290   0.505  0.00  0.00    +0.003 A 
ATOM      9  C   UNL     1      -2.571  -6.348   0.728  0.00  0.00    +0.023 A 
ATOM     10  C   UNL     1      -1.190  -6.144   0.771  0.00  0.00    +0.038 A 
ATOM     11  C   UNL     1      -0.680  -4.860   0.585  0.00  0.00    +0.070 A 
ATOM     12  C   UNL     1       0.674  -4.284   0.559  0.00  0.00    +0.262 C 
ATOM     13  O   UNL     1       1.709  -4.902   0.713  0.00  0.00    -0.269 OA
ENDROOT
BRANCH   1  18
ATOM     14  C   UNL     1       0.424   1.361   0.961  0.00  0.00    +0.001 A 
ATOM     15  C   UNL     1       0.979   2.062  -0.099  0.00  0.00    +0.002 A 
ATOM     16  C   UNL     1       1.743   1.410  -1.044  0.00  0.00    +0.023 A 
ATOM     17  C   UNL     1       1.963   0.042  -0.939  0.00  0.00    +0.037 A 
ATOM     18  C   UNL     1       1.403  -0.671   0.134  0.00  0.00    +0.058 A 
ATOM     19  C   UNL     1       0.630   0.005   1.083  0.00  0.00    +0.015 A 
BRANCH  17  20
ATOM     20  N   UNL     1       2.731  -0.617  -1.889  0.00  0.00    -0.357 N 
ATOM     21  H   UNL     1       3.186  -0.111  -2.581  0.00  0.00    +0.142 HD
ATOM     22  H   UNL     1       2.814  -1.583  -1.861  0.00  0.00    +0.142 HD
ENDBRANCH  17  20
ENDBRANCH   1  18
BRANCH  10  23
ATOM     23  N   UNL     1      -0.333  -7.211   0.997  0.00  0.00    -0.357 N 
ATOM     24  H   UNL     1      -0.692  -8.103   1.125  0.00  0.00    +0.142 HD
ATOM     25  H   UNL     1       0.625  -7.065   1.026  0.00  0.00    +0.142 HD
ENDBRANCH  10  23
TORSDOF 3
