REMARK  Name = ZINC22241318
REMARK  4 active torsions:
REMARK  status: ('A' for Active; 'I' for Inactive)
REMARK    1  A    between atoms: C_1  and  C_2
REMARK    2  A    between atoms: C_2  and  C_4
REMARK    3  A    between atoms: C_2  and  N_11
REMARK    4  A    between atoms: C_12  and  C_14
REMARK                            x       y       z     vdW  Elec       q    Type
REMARK                         _______ _______ _______ _____ _____    ______ ____
ROOT
ATOM      1  N   UNL     1      -0.010   5.128   0.468  0.00  0.00    -0.303 N 
ATOM      2  C   UNL     1       0.020   3.798   0.252  0.00  0.00    +0.266 C 
ATOM      3  O   UNL     1       1.086   3.222   0.153  0.00  0.00    -0.268 OA
ATOM      4  H   UNL     1      -0.975   5.649   0.557  0.00  0.00    +0.150 HD
ENDROOT
BRANCH   2   5
ATOM      5  C   UNL     1      -1.243   3.040   0.136  0.00  0.00    +0.165 A 
ATOM      6  C   UNL     1      -1.220   1.678  -0.205  0.00  0.00    +0.147 A 
ATOM      7  N   UNL     1      -2.360   1.005  -0.301  0.00  0.00    -0.237 NA
ATOM      8  C   UNL     1      -3.509   1.618  -0.082  0.00  0.00    +0.132 A 
ATOM      9  C   UNL     1      -3.532   2.965   0.249  0.00  0.00    +0.131 A 
ATOM     10  N   UNL     1      -2.408   3.646   0.348  0.00  0.00    -0.246 NA
ATOM     11  N   UNL     1      -0.015   1.039  -0.434  0.00  0.00    -0.341 N 
ATOM     12  H   UNL     1       0.001  -0.028  -0.701  0.00  0.00    +0.144 HD
ATOM     13  H   UNL     1       0.929   1.599  -0.349  0.00  0.00    +0.144 HD
ENDBRANCH   2   5
BRANCH   1  15
ATOM     14  C   UNL     1       1.736   6.265  -0.813  0.00  0.00    +0.033 C 
ATOM     15  C   UNL     1       1.242   5.880   0.583  0.00  0.00    +0.100 C 
BRANCH  15  16
ATOM     16  C   UNL     1       1.006   7.128   1.394  0.00  0.00    -0.027 A 
ATOM     17  C   UNL     1      -0.154   7.858   1.217  0.00  0.00    +0.006 A 
ATOM     18  C   UNL     1      -0.373   9.000   1.964  0.00  0.00    +0.015 A 
ATOM     19  C   UNL     1       0.574   9.418   2.882  0.00  0.00    +0.018 A 
ATOM     20  C   UNL     1       1.737   8.689   3.056  0.00  0.00    +0.015 A 
ATOM     21  C   UNL     1       1.953   7.545   2.312  0.00  0.00    +0.006 A 
ATOM     22 BR   UNL     1       0.278  10.984   3.900  0.00  0.00    -0.050 Br
ENDBRANCH  15  16
ENDBRANCH   1  15
TORSDOF 3
