REMARK  Name = ZINC40783116
REMARK  5 active torsions:
REMARK  status: ('A' for Active; 'I' for Inactive)
REMARK    1  A    between atoms: C_1  and  C_2
REMARK    2  A    between atoms: C_3  and  C_24
REMARK    3  A    between atoms: C_9  and  N_23
REMARK    4  A    between atoms: C_10  and  N_14
REMARK    5  A    between atoms: N_14  and  C_15
REMARK                            x       y       z     vdW  Elec       q    Type
REMARK                         _______ _______ _______ _____ _____    ______ ____
ROOT
ATOM      1  C   UNL     1      -1.752   1.408   0.190  0.00  0.00    +0.066 C 
ATOM      2  C   UNL     1      -1.659  -0.096   0.179  0.00  0.00    +0.050 A 
ATOM      3  C   UNL     1      -1.869  -0.810  -0.953  0.00  0.00    +0.011 A 
ATOM      4  S   UNL     1      -1.628  -2.472  -0.349  0.00  0.00    -0.057 S 
ATOM      5  C   UNL     1      -1.291  -2.090   1.256  0.00  0.00    +0.164 A 
ATOM      6  N   UNL     1      -1.365  -0.776   1.272  0.00  0.00    -0.230 NA
ATOM      7  N   UNL     1      -1.001  -2.951   2.304  0.00  0.00    -0.277 N 
ATOM      8  C   UNL     1      -0.748  -2.441   3.573  0.00  0.00    +0.150 A 
ATOM      9  C   UNL     1      -0.449  -3.297   4.635  0.00  0.00    +0.106 A 
ATOM     10  C   UNL     1      -0.203  -2.732   5.888  0.00  0.00    +0.149 A 
ATOM     11  N   UNL     1      -0.262  -1.409   6.021  0.00  0.00    -0.219 NA
ATOM     12  C   UNL     1      -0.548  -0.636   4.993  0.00  0.00    +0.225 A 
ATOM     13  N   UNL     1      -0.782  -1.128   3.793  0.00  0.00    -0.219 NA
ATOM     14  C   UNL     1      -2.211  -0.332  -2.341  0.00  0.00    +0.053 C 
ATOM     15  H   UNL     1      -0.975  -3.909   2.152  0.00  0.00    +0.156 HD
ENDROOT
BRANCH   9  16
ATOM     16  N   UNL     1      -0.398  -4.687   4.448  0.00  0.00    -0.353 N 
ATOM     17  H   UNL     1      -0.572  -5.065   3.572  0.00  0.00    +0.143 HD
ATOM     18  H   UNL     1      -0.190  -5.269   5.195  0.00  0.00    +0.143 HD
ENDBRANCH   9  16
BRANCH  10  19
ATOM     19  N   UNL     1       0.098  -3.538   6.979  0.00  0.00    -0.296 N 
ATOM     20  H   UNL     1       0.236  -4.490   6.855  0.00  0.00    +0.154 HD
BRANCH  19  21
ATOM     21  C   UNL     1       0.203  -2.977   8.257  0.00  0.00    +0.068 A 
ATOM     22  C   UNL     1      -0.408  -1.762   8.535  0.00  0.00    +0.027 A 
ATOM     23  C   UNL     1      -0.304  -1.210   9.797  0.00  0.00    +0.017 A 
ATOM     24  C   UNL     1       0.409  -1.866  10.784  0.00  0.00    +0.021 A 
ATOM     25  C   UNL     1       1.020  -3.077  10.512  0.00  0.00    +0.055 A 
ATOM     26  C   UNL     1       0.914  -3.638   9.252  0.00  0.00    +0.145 A 
ATOM     27  F   UNL     1       1.506  -4.824   8.988  0.00  0.00    -0.204 F 
ATOM     28 BR   UNL     1       0.549  -1.106  12.510  0.00  0.00    -0.050 Br
ENDBRANCH  19  21
ENDBRANCH  10  19
TORSDOF 3
