REMARK  Name = ZINC37463793
REMARK  5 active torsions:
REMARK  status: ('A' for Active; 'I' for Inactive)
REMARK    1  A    between atoms: C_1  and  C_2
REMARK    2  A    between atoms: C_5  and  C_8
REMARK    3  A    between atoms: C_5  and  N_11
REMARK    4  A    between atoms: N_11  and  S_12
REMARK    5  A    between atoms: S_12  and  C_15
REMARK                            x       y       z     vdW  Elec       q    Type
REMARK                         _______ _______ _______ _____ _____    ______ ____
ROOT
ATOM      1  N   UNL     1       2.773  -2.016   0.151  0.00  0.00    -0.177 NA
ATOM      2  H   UNL     1       2.976  -1.395  -0.565  0.00  0.00    +0.149 HD
ENDROOT
BRANCH   1   7
ATOM      3  C   UNL     1      -0.593   1.025   0.694  0.00  0.00    +0.007 C 
ATOM      4  C   UNL     1      -0.343  -0.475   0.521  0.00  0.00    -0.014 C 
ATOM      5  C   UNL     1       0.367  -0.723  -0.811  0.00  0.00    +0.005 C 
ATOM      6  C   UNL     1       0.617  -2.223  -0.984  0.00  0.00    +0.035 C 
ATOM      7  C   UNL     1       1.494  -2.729   0.163  0.00  0.00    +0.140 C 
ATOM      8  C   UNL     1       0.784  -2.481   1.496  0.00  0.00    +0.035 C 
ATOM      9  C   UNL     1       0.534  -0.981   1.669  0.00  0.00    +0.005 C 
BRANCH   7  10
ATOM     10  C   UNL     1       1.740  -4.206  -0.007  0.00  0.00    +0.377 C 
ATOM     11  O   UNL     1       2.860  -4.612  -0.267  0.00  0.00    -0.244 OA
ATOM     12  O   UNL     1       0.819  -4.996   0.116  0.00  0.00    -0.244 OA
ENDBRANCH   7  10
ENDBRANCH   1   7
BRANCH   1  13
ATOM     13  S   UNL     1       3.875  -2.272   1.361  0.00  0.00    +0.035 S 
ATOM     14  O   UNL     1       3.669  -3.620   1.760  0.00  0.00    -0.158 OA
ATOM     15  O   UNL     1       5.120  -1.862   0.811  0.00  0.00    -0.158 OA
BRANCH  13  16
ATOM     16  C   UNL     1       3.377  -1.143   2.691  0.00  0.00    +0.170 C 
ATOM     17  C   UNL     1       3.580   0.313   2.240  0.00  0.00    +0.052 C 
ATOM     18  C   UNL     1       3.468   1.263   3.456  0.00  0.00    +0.168 C 
ATOM     19  S   UNL     1       4.006   0.195   4.854  0.00  0.00    -0.029 S 
ATOM     20  O   UNL     1       2.924   0.039   5.760  0.00  0.00    -0.174 OA
ATOM     21  O   UNL     1       5.260   0.660   5.335  0.00  0.00    -0.174 OA
ATOM     22  C   UNL     1       4.262  -1.388   3.946  0.00  0.00    +0.193 C 
ENDBRANCH  13  16
ENDBRANCH   1  13
TORSDOF 4
