REMARK  Name = ZINC03294315
REMARK  3 active torsions:
REMARK  status: ('A' for Active; 'I' for Inactive)
REMARK    1  A    between atoms: C_9  and  C_12
REMARK    2  A    between atoms: N_14  and  N_15
REMARK    3  A    between atoms: C_16  and  C_18
REMARK                            x       y       z     vdW  Elec       q    Type
REMARK                         _______ _______ _______ _____ _____    ______ ____
ROOT
ATOM      1  C   UNL     1      -0.018   1.503   0.010  0.00  0.00    +0.273 C 
ATOM      2  O   UNL     1      -1.077   2.095   0.018  0.00  0.00    -0.270 OA
ATOM      3  N   UNL     1       1.139   2.192   0.003  0.00  0.00    -0.231 N 
ATOM      4  H   UNL     1       1.986   1.719  -0.008  0.00  0.00    +0.173 HD
ENDROOT
BRANCH   1  13
ATOM      5  C   UNL     1      -1.928  -4.509   0.721  0.00  0.00    +0.004 A 
ATOM      6  C   UNL     1      -2.885  -3.791   0.029  0.00  0.00    +0.004 A 
ATOM      7  C   UNL     1      -2.683  -2.452  -0.247  0.00  0.00    +0.049 A 
ATOM      8  C   UNL     1      -1.518  -1.825   0.170  0.00  0.00    +0.163 A 
ATOM      9  C   UNL     1      -0.555  -2.547   0.865  0.00  0.00    +0.162 A 
ATOM     10  C   UNL     1      -0.765  -3.890   1.139  0.00  0.00    +0.049 A 
ATOM     11  O   UNL     1       0.597  -1.952   1.280  0.00  0.00    -0.484 OA
ATOM     12  C   UNL     1       0.605  -0.521   1.315  0.00  0.00    +0.283 C 
ATOM     13  C   UNL     1       0.002  -0.004   0.002  0.00  0.00    +0.297 C 
ATOM     14  O   UNL     1      -1.335  -0.504  -0.105  0.00  0.00    -0.472 OA
ENDBRANCH   1  13
BRANCH   3  15
ATOM     15  N   UNL     1       1.121   3.593   0.011  0.00  0.00    -0.234 N 
ATOM     16  C   UNL     1       2.278   4.283   0.003  0.00  0.00    +0.232 C 
ATOM     17  O   UNL     1       3.337   3.691  -0.010  0.00  0.00    -0.274 OA
ATOM     18  H   UNL     1       0.274   4.067   0.021  0.00  0.00    +0.173 HD
BRANCH  16  19
ATOM     19  C   UNL     1       2.258   5.790   0.012  0.00  0.00    +0.076 C 
ATOM     20  C   UNL     1       1.518   6.297  -1.228  0.00  0.00    +0.013 C 
ATOM     21  C   UNL     1       1.497   7.827  -1.220  0.00  0.00    +0.001 C 
ATOM     22  C   UNL     1       2.933   8.356  -1.230  0.00  0.00    +0.000 C 
ATOM     23  C   UNL     1       3.673   7.849   0.009  0.00  0.00    +0.001 C 
ATOM     24  C   UNL     1       3.693   6.319   0.001  0.00  0.00    +0.013 C 
ENDBRANCH  16  19
ENDBRANCH   3  15
TORSDOF 3
