REMARK  Name = ZINC40140281
REMARK  6 active torsions:
REMARK  status: ('A' for Active; 'I' for Inactive)
REMARK    1  A    between atoms: C_1  and  C_2
REMARK    2  A    between atoms: C_5  and  O_9
REMARK    3  A    between atoms: O_9  and  C_10
REMARK    4  A    between atoms: C_10  and  C_12
REMARK    5  A    between atoms: C_10  and  C_13
REMARK    6  A    between atoms: N_15  and  C_16
REMARK                            x       y       z     vdW  Elec       q    Type
REMARK                         _______ _______ _______ _____ _____    ______ ____
ROOT
ATOM      1  C   UNL     1       0.729  -6.085  -1.256  0.00  0.00    +0.258 C 
ATOM      2  O   UNL     1       1.280  -6.459  -0.242  0.00  0.00    -0.271 OA
ATOM      3  N   UNL     1       0.681  -6.894  -2.334  0.00  0.00    -0.282 N 
ATOM      4  H   UNL     1       0.308  -6.568  -3.168  0.00  0.00    +0.155 HD
ENDROOT
BRANCH   3   5
ATOM      5  C   UNL     1       1.168  -8.204  -2.249  0.00  0.00    +0.036 A 
ATOM      6  C   UNL     1       1.767  -8.795  -3.355  0.00  0.00    +0.025 A 
ATOM      7  C   UNL     1       2.249 -10.086  -3.278  0.00  0.00    +0.029 A 
ATOM      8  C   UNL     1       2.136 -10.797  -2.093  0.00  0.00    +0.067 A 
ATOM      9  C   UNL     1       1.534 -10.207  -0.979  0.00  0.00    +0.069 A 
ATOM     10  C   UNL     1       1.056  -8.908  -1.059  0.00  0.00    +0.051 A 
ATOM     11  N   UNL     1       1.567 -11.151   0.044  0.00  0.00    -0.306 N 
ATOM     12  H   UNL     1       1.221 -11.027   0.942  0.00  0.00    +0.170 HD
ATOM     13  C   UNL     1       2.160 -12.265  -0.424  0.00  0.00    +0.325 A 
ATOM     14  O   UNL     1       2.348 -13.282   0.217  0.00  0.00    -0.247 OA
ATOM     15  N   UNL     1       2.515 -12.084  -1.710  0.00  0.00    -0.306 N 
ATOM     16  H   UNL     1       2.959 -12.736  -2.275  0.00  0.00    +0.170 HD
ENDBRANCH   3   5
BRANCH   1  17
ATOM     17  C   UNL     1       0.100  -4.718  -1.312  0.00  0.00    +0.256 C 
ATOM     18  C   UNL     1      -1.415  -4.859  -1.478  0.00  0.00    +0.062 C 
BRANCH  17  19
ATOM     19  O   UNL     1       0.382  -4.014  -0.100  0.00  0.00    -0.479 OA
BRANCH  19  24
ATOM     20  C   UNL     1       0.291   1.614  -0.332  0.00  0.00    +0.044 C 
ATOM     21  C   UNL     1       0.316   0.108  -0.269  0.00  0.00    -0.049 A 
ATOM     22  C   UNL     1      -0.059  -0.634  -1.374  0.00  0.00    +0.007 A 
ATOM     23  C   UNL     1      -0.038  -2.015  -1.320  0.00  0.00    +0.047 A 
ATOM     24  C   UNL     1       0.360  -2.656  -0.156  0.00  0.00    +0.136 A 
ATOM     25  C   UNL     1       0.737  -1.909   0.951  0.00  0.00    +0.060 A 
ATOM     26  C   UNL     1       0.719  -0.528   0.890  0.00  0.00    +0.022 A 
ATOM     27 BR   UNL     1       1.281  -2.779   2.540  0.00  0.00    -0.047 Br
ENDBRANCH  19  24
ENDBRANCH  17  19
ENDBRANCH   1  17
TORSDOF 4
