REMARK  Name = ZINC36379776
REMARK  3 active torsions:
REMARK  status: ('A' for Active; 'I' for Inactive)
REMARK    1  A    between atoms: C_1  and  C_2
REMARK    2  A    between atoms: N_3  and  S_4
REMARK    3  A    between atoms: S_4  and  C_7
REMARK                            x       y       z     vdW  Elec       q    Type
REMARK                         _______ _______ _______ _____ _____    ______ ____
ROOT
ATOM      1  S   UNL     1       1.298   0.183   2.203  0.00  0.00    +0.101 S 
ATOM      2  O   UNL     1       2.400   0.881   1.639  0.00  0.00    -0.146 OA
ATOM      3  O   UNL     1       0.255   0.845   2.905  0.00  0.00    -0.146 OA
ENDROOT
BRANCH   1   4
ATOM      4  C   UNL     1       1.971  -1.012   3.309  0.00  0.00    +0.127 A 
ATOM      5  C   UNL     1       3.338  -1.089   3.495  0.00  0.00    +0.045 A 
ATOM      6  C   UNL     1       3.867  -2.026   4.363  0.00  0.00    +0.020 A 
ATOM      7  C   UNL     1       3.027  -2.887   5.047  0.00  0.00    +0.016 A 
ATOM      8  C   UNL     1       1.659  -2.809   4.862  0.00  0.00    +0.018 A 
ATOM      9  C   UNL     1       1.131  -1.868   3.997  0.00  0.00    +0.045 A 
ATOM     10 BR   UNL     1      -0.741  -1.757   3.750  0.00  0.00    -0.048 Br
ATOM     11 BR   UNL     1       5.738  -2.132   4.616  0.00  0.00    -0.050 Br
ENDBRANCH   1   4
BRANCH   1  14
ATOM     12  C   UNL     1      -0.018   1.503   0.010  0.00  0.00    +0.084 C 
ATOM     13  C   UNL     1       0.002  -0.004   0.002  0.00  0.00    +0.111 C 
ATOM     14  N   UNL     1       0.580  -0.648   0.963  0.00  0.00    -0.119 NA
ATOM     15  N   UNL     1      -0.592  -0.692  -1.024  0.00  0.00    -0.345 N 
ATOM     16  H   UNL     1      -1.025  -0.208  -1.744  0.00  0.00    +0.143 HD
ATOM     17  H   UNL     1      -0.578  -1.661  -1.029  0.00  0.00    +0.143 HD
ENDBRANCH   1  14
TORSDOF 2
