REMARK  Name = ZINC67303186
REMARK  7 active torsions:
REMARK  status: ('A' for Active; 'I' for Inactive)
REMARK    1  A    between atoms: C_1  and  C_2
REMARK    2  A    between atoms: C_3  and  C_9
REMARK    3  A    between atoms: C_4  and  C_8
REMARK    4  A    between atoms: N_5  and  C_7
REMARK    5  A    between atoms: C_9  and  C_11
REMARK    6  A    between atoms: C_9  and  N_12
REMARK    7  A    between atoms: C_13  and  C_15
REMARK                            x       y       z     vdW  Elec       q    Type
REMARK                         _______ _______ _______ _____ _____    ______ ____
ROOT
ATOM      1  N   UNL     1       0.955   0.751  -2.726  0.00  0.00    -0.305 N 
ATOM      2  C   UNL     1       1.494   1.003  -3.936  0.00  0.00    +0.246 C 
ATOM      3  O   UNL     1       1.182   0.321  -4.894  0.00  0.00    -0.270 OA
ATOM      4  H   UNL     1       1.203   1.295  -1.962  0.00  0.00    +0.150 HD
ENDROOT
BRANCH   2   5
ATOM      5  C   UNL     1       2.460   2.104  -4.097  0.00  0.00    +0.054 A 
ATOM      6  C   UNL     1       2.831   2.898  -2.984  0.00  0.00    +0.040 A 
ATOM      7  C   UNL     1       3.725   3.907  -3.162  0.00  0.00    +0.106 A 
ATOM      8  C   UNL     1       4.261   4.141  -4.444  0.00  0.00    +0.267 A 
ATOM      9  O   UNL     1       5.063   5.045  -4.609  0.00  0.00    -0.266 OA
ATOM     10  N   UNL     1       3.894   3.375  -5.487  0.00  0.00    -0.327 N 
ATOM     11  H   UNL     1       4.272   3.549  -6.363  0.00  0.00    +0.168 HD
ATOM     12  C   UNL     1       3.015   2.366  -5.333  0.00  0.00    +0.099 A 
ATOM     13 CL   UNL     1       4.202   4.900  -1.820  0.00  0.00    -0.078 Cl
ENDBRANCH   2   5
BRANCH   1  14
ATOM     14  C   UNL     1      -0.006  -0.343  -2.566  0.00  0.00    +0.104 C 
ATOM     15  C   UNL     1      -1.408   0.152  -2.925  0.00  0.00    +0.033 C 
BRANCH  14  18
ATOM     16  C   UNL     1      -0.018   1.503   0.010  0.00  0.00    +0.068 C 
ATOM     17  C   UNL     1       0.002  -0.004   0.002  0.00  0.00    +0.065 A 
ATOM     18  C   UNL     1       0.008  -0.818  -1.135  0.00  0.00    +0.016 A 
ATOM     19  C   UNL     1       0.028  -2.107  -0.725  0.00  0.00    +0.041 A 
ATOM     20  N   UNL     1       0.034  -2.109   0.625  0.00  0.00    -0.271 N 
ATOM     21  N   UNL     1       0.023  -0.777   1.058  0.00  0.00    -0.176 NA
ATOM     22  C   UNL     1       0.055  -3.295   1.485  0.00  0.00    +0.172 C 
ATOM     23  C   UNL     1       0.040  -3.323  -1.615  0.00  0.00    +0.065 C 
ENDBRANCH  14  18
ENDBRANCH   1  14
TORSDOF 3
