REMARK  Name = ZINC44882307
REMARK  3 active torsions:
REMARK  status: ('A' for Active; 'I' for Inactive)
REMARK    1  A    between atoms: C_1  and  C_2
REMARK    2  A    between atoms: C_2  and  N_9
REMARK    3  A    between atoms: C_16  and  C_18
REMARK                            x       y       z     vdW  Elec       q    Type
REMARK                         _______ _______ _______ _____ _____    ______ ____
ROOT
ATOM      1  N   UNL     1      -1.378  -0.491   0.059  0.00  0.00    -0.292 N 
ATOM      2  C   UNL     1      -2.254  -0.148  -0.907  0.00  0.00    +0.303 C 
ATOM      3  O   UNL     1      -1.898   0.565  -1.825  0.00  0.00    -0.253 OA
ATOM      4  N   UNL     1      -3.524  -0.596  -0.855  0.00  0.00    -0.272 N 
ATOM      5  C   UNL     1      -4.088  -1.459   0.199  0.00  0.00    +0.110 C 
ATOM      6  C   UNL     1      -5.612  -1.179   0.167  0.00  0.00    +0.021 C 
ATOM      7  C   UNL     1      -5.864  -1.004  -1.354  0.00  0.00    +0.036 C 
ATOM      8  C   UNL     1      -4.578  -0.301  -1.837  0.00  0.00    +0.190 C 
ATOM      9  H   UNL     1      -1.662  -1.060   0.791  0.00  0.00    +0.151 HD
ENDROOT
BRANCH   1  11
ATOM     10  C   UNL     1      -0.019   1.526   0.010  0.00  0.00    +0.033 C 
ATOM     11  C   UNL     1       0.002  -0.004   0.002  0.00  0.00    +0.054 C 
ATOM     12  C   UNL     1       0.632  -0.478  -1.307  0.00  0.00    +0.049 C 
ATOM     13  C   UNL     1       2.169  -0.637  -1.140  0.00  0.00    +0.168 C 
ATOM     14  S   UNL     1       2.220  -1.358   0.560  0.00  0.00    -0.029 S 
ATOM     15  O   UNL     1       1.951  -2.751   0.484  0.00  0.00    -0.174 OA
ATOM     16  O   UNL     1       3.390  -0.903   1.225  0.00  0.00    -0.174 OA
ATOM     17  C   UNL     1       0.751  -0.495   1.257  0.00  0.00    +0.191 C 
ENDBRANCH   1  11
BRANCH   8  18
ATOM     18  C   UNL     1      -4.182  -0.835  -3.189  0.00  0.00    +0.376 C 
ATOM     19  O   UNL     1      -3.473  -1.822  -3.271  0.00  0.00    -0.244 OA
ATOM     20  O   UNL     1      -4.572  -0.278  -4.202  0.00  0.00    -0.244 OA
ENDBRANCH   8  18
TORSDOF 2
