REMARK  Name = ZINC62975515
REMARK  4 active torsions:
REMARK  status: ('A' for Active; 'I' for Inactive)
REMARK    1  A    between atoms: C_2  and  C_9
REMARK    2  A    between atoms: C_4  and  N_8
REMARK    3  A    between atoms: C_6  and  N_7
REMARK    4  A    between atoms: C_14  and  N_17
REMARK                            x       y       z     vdW  Elec       q    Type
REMARK                         _______ _______ _______ _____ _____    ______ ____
ROOT
ATOM      1  C   UNL     1       1.166   3.574   0.010  0.00  0.00    +0.247 C 
ATOM      2  O   UNL     1       0.111   4.170  -0.082  0.00  0.00    -0.270 OA
ATOM      3  N   UNL     1       2.323   4.260   0.104  0.00  0.00    -0.299 N 
ATOM      4  C   UNL     1       3.671   3.673   0.095  0.00  0.00    +0.106 C 
ATOM      5  C   UNL     1       4.678   4.837   0.198  0.00  0.00    +0.005 C 
ATOM      6  C   UNL     1       3.858   6.052  -0.311  0.00  0.00    -0.049 C 
ATOM      7  C   UNL     1       2.446   5.724   0.227  0.00  0.00    +0.093 C 
ENDROOT
BRANCH   6   8
ATOM      8  N   UNL     1       4.365   7.306   0.262  0.00  0.00    +0.383 N 
ATOM      9  C   UNL     1       3.560   8.430  -0.234  0.00  0.00    -0.078 C 
ATOM     10  C   UNL     1       4.032   9.729   0.422  0.00  0.00    -0.019 C 
ATOM     11  C   UNL     1       5.506   9.963   0.077  0.00  0.00    -0.004 C 
ATOM     12  C   UNL     1       6.325   8.752   0.533  0.00  0.00    -0.019 C 
ATOM     13  C   UNL     1       5.768   7.489  -0.128  0.00  0.00    -0.078 C 
ATOM     14  H   UNL     1       4.298   7.266   1.268  0.00  0.00    -0.081 HD
ENDBRANCH   6   8
BRANCH   1  16
ATOM     15  C   UNL     1      -0.017   1.384   0.074  0.00  0.00    +0.036 A 
ATOM     16  C   UNL     1       1.181   2.095   0.017  0.00  0.00    +0.040 A 
ATOM     17  C   UNL     1       2.394   1.408  -0.034  0.00  0.00    +0.036 A 
ATOM     18  C   UNL     1       2.405   0.021  -0.027  0.00  0.00    +0.027 A 
ATOM     19  C   UNL     1       1.210  -0.684   0.029  0.00  0.00    +0.045 A 
ATOM     20  C   UNL     1       0.000  -0.003   0.080  0.00  0.00    +0.027 A 
BRANCH  20  21
ATOM     21  N   UNL     1      -1.200  -0.716   0.137  0.00  0.00    -0.358 N 
ATOM     22  H   UNL     1      -2.045  -0.241   0.173  0.00  0.00    +0.142 HD
ATOM     23  H   UNL     1      -1.188  -1.685   0.142  0.00  0.00    +0.142 HD
ENDBRANCH  20  21
BRANCH  18  24
ATOM     24  N   UNL     1       3.619  -0.668  -0.077  0.00  0.00    -0.358 N 
ATOM     25  H   UNL     1       4.454  -0.176  -0.117  0.00  0.00    +0.142 HD
ATOM     26  H   UNL     1       3.627  -1.638  -0.073  0.00  0.00    +0.142 HD
ENDBRANCH  18  24
ENDBRANCH   1  16
TORSDOF 4
