REMARK  Name = ZINC38709274
REMARK  5 active torsions:
REMARK  status: ('A' for Active; 'I' for Inactive)
REMARK    1  A    between atoms: C_1  and  C_2
REMARK    2  A    between atoms: C_3  and  S_9
REMARK    3  A    between atoms: S_9  and  N_12
REMARK    4  A    between atoms: N_12  and  C_13
REMARK    5  A    between atoms: C_22  and  C_24
REMARK                            x       y       z     vdW  Elec       q    Type
REMARK                         _______ _______ _______ _____ _____    ______ ____
ROOT
ATOM      1  C   UNL     1      -1.803   2.410  -2.248  0.00  0.00    +0.050 A 
ATOM      2  C   UNL     1      -1.681   2.445  -0.864  0.00  0.00    +0.025 A 
ATOM      3  C   UNL     1      -1.936   3.618  -0.182  0.00  0.00    +0.007 A 
ATOM      4  C   UNL     1      -2.311   4.756  -0.871  0.00  0.00    -0.024 A 
ATOM      5  C   UNL     1      -2.437   4.736  -2.252  0.00  0.00    +0.042 A 
ATOM      6  C   UNL     1      -2.174   3.551  -2.940  0.00  0.00    +0.048 A 
ATOM      7  N   UNL     1      -2.824   5.982  -2.752  0.00  0.00    -0.264 N 
ATOM      8  C   UNL     1      -2.979   6.939  -1.653  0.00  0.00    +0.119 C 
ATOM      9  C   UNL     1      -2.643   6.147  -0.379  0.00  0.00    +0.056 C 
ATOM     10  C   UNL     1      -3.023   6.263  -4.055  0.00  0.00    +0.286 C 
ATOM     11  O   UNL     1      -2.867   5.397  -4.896  0.00  0.00    -0.266 OA
ENDROOT
BRANCH  10  12
ATOM     12  C   UNL     1      -3.429   7.613  -4.460  0.00  0.00    +0.190 A 
ATOM     13  C   UNL     1      -3.669   8.029  -5.739  0.00  0.00    +0.054 A 
ATOM     14  C   UNL     1      -4.029   9.383  -5.661  0.00  0.00    +0.042 A 
ATOM     15  C   UNL     1      -3.994   9.730  -4.356  0.00  0.00    +0.196 A 
ATOM     16  O   UNL     1      -3.637   8.659  -3.635  0.00  0.00    -0.458 OA
ENDBRANCH  10  12
BRANCH   1  17
ATOM     17  N   UNL     1      -1.547   1.225  -2.942  0.00  0.00    -0.216 N 
ATOM     18  H   UNL     1      -2.159   0.925  -3.631  0.00  0.00    +0.174 HD
BRANCH  17  19
ATOM     19  S   UNL     1      -0.197   0.334  -2.587  0.00  0.00    +0.073 S 
ATOM     20  O   UNL     1      -0.158  -0.733  -3.525  0.00  0.00    -0.150 OA
ATOM     21  O   UNL     1      -0.212   0.115  -1.183  0.00  0.00    -0.150 OA
BRANCH  19  24
ATOM     22  C   UNL     1       0.546   1.348  -5.339  0.00  0.00    +0.047 C 
ATOM     23  C   UNL     1       1.460   1.766  -4.217  0.00  0.00    -0.006 A 
ATOM     24  C   UNL     1       1.202   1.351  -2.923  0.00  0.00    +0.113 A 
ATOM     25  C   UNL     1       2.041   1.735  -1.894  0.00  0.00    +0.029 A 
ATOM     26  C   UNL     1       3.138   2.534  -2.157  0.00  0.00    +0.003 A 
ATOM     27  C   UNL     1       3.397   2.949  -3.449  0.00  0.00    +0.020 A 
ATOM     28  C   UNL     1       2.561   2.560  -4.481  0.00  0.00    +0.046 A 
ATOM     29 CL   UNL     1       2.890   3.076  -6.106  0.00  0.00    -0.083 Cl
ENDBRANCH  19  24
ENDBRANCH  17  19
ENDBRANCH   1  17
TORSDOF 4
