REMARK  Name = ZINC39684635
REMARK  11 active torsions:
REMARK  status: ('A' for Active; 'I' for Inactive)
REMARK    1  A    between atoms: C_1  and  C_2
REMARK    2  A    between atoms: C_2  and  C_4
REMARK    3  A    between atoms: C_2  and  N_8
REMARK    4  A    between atoms: C_4  and  C_5
REMARK    5  A    between atoms: C_4  and  C_6
REMARK    6  A    between atoms: C_4  and  C_7
REMARK    7  A    between atoms: C_9  and  C_11
REMARK    8  A    between atoms: C_22  and  C_24
REMARK    9  A    between atoms: C_30  and  O_32
REMARK   10  A    between atoms: O_32  and  C_33
REMARK   11  A    between atoms: C_33  and  C_34
REMARK                            x       y       z     vdW  Elec       q    Type
REMARK                         _______ _______ _______ _____ _____    ______ ____
ROOT
ATOM      1  C   UNL     1       0.780  -1.133   3.576  0.00  0.00    +0.100 C 
ATOM      2  C   UNL     1       1.189  -2.611   3.392  0.00  0.00    +0.121 C 
ATOM      3  N   UNL     1       1.007  -3.220   4.731  0.00  0.00    -0.300 N 
ATOM      4  C   UNL     1      -0.237  -2.602   5.250  0.00  0.00    +0.115 C 
ATOM      5  C   UNL     1      -0.156  -1.131   4.797  0.00  0.00    -0.004 C 
ATOM      6  C   UNL     1       0.429  -0.267   5.910  0.00  0.00    -0.010 C 
ATOM      7  C   UNL     1      -0.546  -0.235   7.090  0.00  0.00    -0.082 C 
ATOM      8  N   UNL     1      -1.836   0.308   6.647  0.00  0.00    +0.379 N 
ATOM      9  C   UNL     1      -2.435  -0.578   5.643  0.00  0.00    -0.082 C 
ATOM     10  C   UNL     1      -1.540  -0.625   4.401  0.00  0.00    -0.010 C 
ATOM     11  C   UNL     1       1.794  -4.130   5.338  0.00  0.00    +0.219 C 
ATOM     12  O   UNL     1       1.508  -4.536   6.445  0.00  0.00    -0.275 OA
ATOM     13  H   UNL     1      -2.457   0.385   7.439  0.00  0.00    -0.086 HD
ATOM     14  H   UNL     1      -1.694   1.223   6.245  0.00  0.00    -0.086 HD
ENDROOT
BRANCH  11  15
ATOM     15  C   UNL     1       3.028  -4.643   4.643  0.00  0.00    +0.078 C 
ATOM     16  C   UNL     1       2.629  -5.316   3.327  0.00  0.00    +0.032 C 
ATOM     17  C   UNL     1       3.889  -5.806   2.607  0.00  0.00    +0.112 C 
ATOM     18  N   UNL     1       4.651  -6.669   3.520  0.00  0.00    -0.267 N 
ATOM     19  C   UNL     1       5.009  -6.151   4.847  0.00  0.00    +0.112 C 
ATOM     20  C   UNL     1       3.736  -5.658   5.543  0.00  0.00    +0.032 C 
ATOM     21  C   UNL     1       5.015  -7.912   3.146  0.00  0.00    +0.403 C 
ATOM     22  O   UNL     1       4.713  -8.329   2.046  0.00  0.00    -0.226 OA
BRANCH  21  23
ATOM     23  O   UNL     1       5.713  -8.692   3.993  0.00  0.00    -0.445 OA
BRANCH  23  24
ATOM     24  C   UNL     1       6.065  -9.998   3.532  0.00  0.00    +0.269 C 
BRANCH  24  25
ATOM     25  C   UNL     1       6.838 -10.719   4.606  0.00  0.00    -0.010 A 
ATOM     26  C   UNL     1       8.215 -10.612   4.658  0.00  0.00    +0.007 A 
ATOM     27  C   UNL     1       8.923 -11.273   5.643  0.00  0.00    +0.000 A 
ATOM     28  C   UNL     1       8.254 -12.042   6.578  0.00  0.00    +0.000 A 
ATOM     29  C   UNL     1       6.877 -12.148   6.527  0.00  0.00    +0.000 A 
ATOM     30  C   UNL     1       6.168 -11.483   5.544  0.00  0.00    +0.007 A 
ENDBRANCH  24  25
ENDBRANCH  23  24
ENDBRANCH  21  23
ENDBRANCH  11  15
BRANCH   1  32
ATOM     31  N   UNL     1       0.108   0.671   2.023  0.00  0.00    -0.312 N 
ATOM     32  C   UNL     1       0.051  -0.633   2.355  0.00  0.00    +0.218 C 
ATOM     33  O   UNL     1      -0.587  -1.406   1.672  0.00  0.00    -0.275 OA
ATOM     34  H   UNL     1       0.619   1.289   2.570  0.00  0.00    +0.149 HD
BRANCH  31  36
ATOM     35  C   UNL     1      -2.054   1.464   1.200  0.00  0.00    +0.028 C 
ATOM     36  C   UNL     1      -0.600   1.157   0.836  0.00  0.00    +0.075 C 
BRANCH  36  37
ATOM     37  C   UNL     1       0.077   2.429   0.323  0.00  0.00    -0.020 C 
ATOM     38  C   UNL     1       0.040   3.502   1.413  0.00  0.00    +0.012 C 
ATOM     39  C   UNL     1       1.531   2.122  -0.041  0.00  0.00    +0.012 C 
ATOM     40  C   UNL     1      -0.663   2.936  -0.917  0.00  0.00    +0.012 C 
ENDBRANCH  36  37
ENDBRANCH  31  36
ENDBRANCH   1  32
TORSDOF 7
