REMARK  Name = ZINC50871100
REMARK  4 active torsions:
REMARK  status: ('A' for Active; 'I' for Inactive)
REMARK    1  A    between atoms: C_1  and  O_2
REMARK    2  A    between atoms: O_2  and  C_3
REMARK    3  A    between atoms: C_10  and  C_14
REMARK    4  A    between atoms: C_12  and  N_13
REMARK                            x       y       z     vdW  Elec       q    Type
REMARK                         _______ _______ _______ _____ _____    ______ ____
ROOT
ATOM      1  C   UNL     1      -1.158  -0.706   0.609  0.00  0.00    +0.146 A 
ATOM      2  C   UNL     1      -2.304  -0.011   0.922  0.00  0.00    +0.049 A 
ATOM      3  C   UNL     1      -3.542  -0.647   0.940  0.00  0.00    +0.019 A 
ATOM      4  C   UNL     1      -3.650  -1.974   0.648  0.00  0.00    +0.029 A 
ATOM      5  C   UNL     1      -2.503  -2.714   0.325  0.00  0.00    +0.039 A 
ATOM      6  C   UNL     1      -1.240  -2.078   0.297  0.00  0.00    +0.116 A 
ATOM      7  N   UNL     1      -0.145  -2.779  -0.017  0.00  0.00    -0.239 NA
ATOM      8  C   UNL     1      -0.205  -4.057  -0.309  0.00  0.00    +0.146 A 
ATOM      9  C   UNL     1      -1.407  -4.753  -0.310  0.00  0.00    +0.055 A 
ATOM     10  C   UNL     1      -2.581  -4.094   0.018  0.00  0.00    +0.037 A 
ATOM     11 BR   UNL     1      -5.343  -2.816   0.681  0.00  0.00    -0.050 Br
ENDROOT
BRANCH   8  12
ATOM     12  C   UNL     1       1.066  -4.790  -0.653  0.00  0.00    +0.434 C 
ATOM     13  F   UNL     1       2.159  -3.935  -0.481  0.00  0.00    -0.164 F 
ATOM     14  F   UNL     1       1.206  -5.901   0.186  0.00  0.00    -0.164 F 
ATOM     15  F   UNL     1       1.012  -5.216  -1.985  0.00  0.00    -0.164 F 
ENDBRANCH   8  12
BRANCH  10  16
ATOM     16  N   UNL     1      -3.797  -4.761   0.027  0.00  0.00    -0.357 N 
ATOM     17  H   UNL     1      -4.058  -5.306  -0.733  0.00  0.00    +0.142 HD
ATOM     18  H   UNL     1      -4.387  -4.684   0.793  0.00  0.00    +0.142 HD
ENDBRANCH  10  16
BRANCH   1  20
ATOM     19  C   UNL     1       0.047   1.319   0.922  0.00  0.00    +0.277 C 
ATOM     20  O   UNL     1       0.044  -0.072   0.595  0.00  0.00    -0.493 OA
ENDBRANCH   1  20
TORSDOF 3
