REMARK  Name = ZINC50305868
REMARK  6 active torsions:
REMARK  status: ('A' for Active; 'I' for Inactive)
REMARK    1  A    between atoms: C_1  and  C_2
REMARK    2  A    between atoms: C_3  and  N_22
REMARK    3  A    between atoms: C_4  and  C_8
REMARK    4  A    between atoms: N_10  and  C_11
REMARK    5  A    between atoms: C_11  and  C_13
REMARK    6  A    between atoms: C_11  and  C_14
REMARK                            x       y       z     vdW  Elec       q    Type
REMARK                         _______ _______ _______ _____ _____    ______ ____
ROOT
ATOM      1  C   UNL     1      -0.208  -3.396  -1.815  0.00  0.00    +0.267 C 
ATOM      2  O   UNL     1      -0.041  -3.527  -3.012  0.00  0.00    -0.268 OA
ATOM      3  N   UNL     1      -0.169  -4.473  -1.007  0.00  0.00    -0.299 N 
ATOM      4  H   UNL     1      -0.302  -4.368  -0.052  0.00  0.00    +0.150 HD
ENDROOT
BRANCH   1   8
ATOM      5  C   UNL     1      -0.923   1.599  -1.284  0.00  0.00    +0.067 C 
ATOM      6  C   UNL     1      -0.763   0.121  -1.032  0.00  0.00    +0.054 A 
ATOM      7  C   UNL     1      -0.521  -0.836  -1.967  0.00  0.00    +0.078 A 
ATOM      8  C   UNL     1      -0.453  -2.057  -1.248  0.00  0.00    +0.168 A 
ATOM      9  N   UNL     1      -0.650  -1.768   0.025  0.00  0.00    -0.167 NA
ATOM     10  N   UNL     1      -0.828  -0.505   0.172  0.00  0.00    -0.279 N 
ATOM     11  H   UNL     1      -0.987  -0.062   1.020  0.00  0.00    +0.189 HD
BRANCH   7  12
ATOM     12  N   UNL     1      -0.371  -0.654  -3.350  0.00  0.00    -0.355 N 
ATOM     13  H   UNL     1      -0.439   0.234  -3.732  0.00  0.00    +0.142 HD
ATOM     14  H   UNL     1      -0.200  -1.418  -3.923  0.00  0.00    +0.142 HD
ENDBRANCH   7  12
ENDBRANCH   1   8
BRANCH   3  15
ATOM     15  C   UNL     1       0.075  -5.803  -1.571  0.00  0.00    +0.156 C 
ATOM     16  C   UNL     1       1.581  -6.032  -1.705  0.00  0.00    +0.038 C 
BRANCH  15  17
ATOM     17  C   UNL     1      -0.513  -6.850  -0.660  0.00  0.00    +0.236 C 
ATOM     18  O   UNL     1      -0.639  -6.622   0.525  0.00  0.00    -0.274 OA
ATOM     19  N   UNL     1      -0.900  -8.040  -1.162  0.00  0.00    -0.300 N 
ATOM     20  C   UNL     1      -0.649  -8.375  -2.570  0.00  0.00    +0.108 C 
ATOM     21  C   UNL     1       0.094  -9.713  -2.634  0.00  0.00    +0.019 C 
ATOM     22  C   UNL     1      -0.703 -10.772  -1.868  0.00  0.00    +0.003 C 
ATOM     23  C   UNL     1      -0.826 -10.357  -0.400  0.00  0.00    +0.019 C 
ATOM     24  C   UNL     1      -1.574  -9.028  -0.309  0.00  0.00    +0.108 C 
ENDBRANCH  15  17
ENDBRANCH   3  15
TORSDOF 4
