REMARK  Name = ZINC36266599
REMARK  3 active torsions:
REMARK  status: ('A' for Active; 'I' for Inactive)
REMARK    1  A    between atoms: C_5  and  S_6
REMARK    2  A    between atoms: S_6  and  N_9
REMARK    3  A    between atoms: N_9  and  C_10
REMARK                            x       y       z     vdW  Elec       q    Type
REMARK                         _______ _______ _______ _____ _____    ______ ____
ROOT
ATOM      1  C   UNL     1      -0.789  -2.127  -2.442  0.00  0.00    +0.074 C 
ATOM      2  C   UNL     1      -1.103  -3.625  -2.461  0.00  0.00    +0.001 C 
ATOM      3  C   UNL     1      -0.153  -4.327  -3.433  0.00  0.00    -0.080 C 
ATOM      4  N   UNL     1      -0.329  -3.772  -4.781  0.00  0.00    +0.383 N 
ATOM      5  C   UNL     1       0.039  -2.351  -4.787  0.00  0.00    -0.067 C 
ATOM      6  C   UNL     1      -0.902  -1.572  -3.865  0.00  0.00    +0.008 C 
ATOM      7  C   UNL     1      -0.074  -1.800  -6.210  0.00  0.00    -0.012 C 
ATOM      8  C   UNL     1       0.870  -2.573  -7.133  0.00  0.00    -0.001 C 
ATOM      9  C   UNL     1       2.309  -2.415  -6.638  0.00  0.00    -0.000 C 
ATOM     10  C   UNL     1       2.423  -2.966  -5.215  0.00  0.00    -0.001 C 
ATOM     11  C   UNL     1       1.478  -2.193  -4.292  0.00  0.00    -0.012 C 
ATOM     12  H   UNL     1       0.260  -4.273  -5.429  0.00  0.00    -0.085 HD
ATOM     13  H   UNL     1      -1.293  -3.869  -5.061  0.00  0.00    -0.085 HD
ENDROOT
BRANCH   1  14
ATOM     14  N   UNL     1      -1.744  -1.437  -1.570  0.00  0.00    -0.187 NA
ATOM     15  H   UNL     1      -2.606  -1.159  -1.918  0.00  0.00    +0.148 HD
BRANCH  14  16
ATOM     16  S   UNL     1      -1.352  -1.132   0.010  0.00  0.00    +0.065 S 
ATOM     17  O   UNL     1      -0.861  -2.352   0.549  0.00  0.00    -0.153 OA
ATOM     18  O   UNL     1      -2.455  -0.438   0.576  0.00  0.00    -0.153 OA
BRANCH  16  23
ATOM     19  C   UNL     1      -0.016   1.351   0.009  0.00  0.00    +0.037 A 
ATOM     20  C   UNL     1       1.183   2.038   0.002  0.00  0.00    +0.025 A 
ATOM     21  C   UNL     1       2.343   1.335  -0.013  0.00  0.00    +0.057 A 
ATOM     22  S   UNL     1       1.753  -0.350  -0.017  0.00  0.00    -0.062 S 
ATOM     23  C   UNL     1       0.002  -0.004   0.002  0.00  0.00    +0.143 A 
ATOM     24 BR   UNL     1       4.123   1.974  -0.027  0.00  0.00    -0.043 Br
ENDBRANCH  16  23
ENDBRANCH  14  16
ENDBRANCH   1  14
TORSDOF 3
