REMARK  Name = ZINC65974786
REMARK  9 active torsions:
REMARK  status: ('A' for Active; 'I' for Inactive)
REMARK    1  A    between atoms: C_1  and  C_2
REMARK    2  A    between atoms: C_2  and  N_3
REMARK    3  A    between atoms: C_11  and  C_12
REMARK    4  A    between atoms: C_12  and  C_13
REMARK    5  A    between atoms: C_12  and  N_14
REMARK    6  A    between atoms: N_14  and  S_15
REMARK    7  A    between atoms: S_15  and  C_18
REMARK    8  A    between atoms: C_20  and  C_24
REMARK    9  A    between atoms: N_21  and  C_23
REMARK                            x       y       z     vdW  Elec       q    Type
REMARK                         _______ _______ _______ _____ _____    ______ ____
ROOT
ATOM      1  N   UNL     1      -2.438   0.150  -3.139  0.00  0.00    -0.180 NA
ATOM      2  H   UNL     1      -3.361   0.040  -2.861  0.00  0.00    +0.149 HD
ENDROOT
BRANCH   1   3
ATOM      3  S   UNL     1      -2.062   1.195  -4.367  0.00  0.00    +0.060 S 
ATOM      4  O   UNL     1      -3.290   1.748  -4.820  0.00  0.00    -0.153 OA
ATOM      5  O   UNL     1      -0.989   2.002  -3.900  0.00  0.00    -0.153 OA
BRANCH   3   6
ATOM      6  C   UNL     1      -1.424   0.230  -5.696  0.00  0.00    +0.123 A 
ATOM      7  C   UNL     1      -0.083  -0.111  -5.896  0.00  0.00    +0.061 A 
ATOM      8  C   UNL     1      -0.025  -0.870  -7.046  0.00  0.00    +0.106 A 
ATOM      9  N   UNL     1      -1.308  -0.985  -7.532  0.00  0.00    -0.344 N 
ATOM     10  C   UNL     1      -2.147  -0.319  -6.701  0.00  0.00    +0.114 A 
ATOM     11  C   UNL     1      -1.701  -1.711  -8.742  0.00  0.00    +0.149 C 
BRANCH   8  12
ATOM     12  C   UNL     1       1.184  -1.448  -7.643  0.00  0.00    +0.258 C 
ATOM     13  O   UNL     1       1.093  -2.187  -8.605  0.00  0.00    -0.269 OA
ATOM     14  N   UNL     1       2.395  -1.160  -7.127  0.00  0.00    -0.324 N 
ATOM     15  H   UNL     1       2.463  -0.630  -6.317  0.00  0.00    +0.145 HD
ATOM     16  H   UNL     1       3.198  -1.482  -7.564  0.00  0.00    +0.145 HD
ENDBRANCH   8  12
ENDBRANCH   3   6
ENDBRANCH   1   3
BRANCH   1  17
ATOM     17  C   UNL     1      -1.376  -0.607  -2.471  0.00  0.00    +0.139 C 
ATOM     18  C   UNL     1      -1.251  -1.988  -3.117  0.00  0.00    +0.034 C 
BRANCH  17  27
ATOM     19  N   UNL     1      -0.841  -0.577   0.016  0.00  0.00    -0.326 N 
ATOM     20  C   UNL     1      -1.531  -0.808   1.189  0.00  0.00    +0.069 A 
ATOM     21  C   UNL     1      -1.190  -0.770   2.534  0.00  0.00    +0.028 A 
ATOM     22  C   UNL     1      -2.142  -1.063   3.488  0.00  0.00    +0.002 A 
ATOM     23  C   UNL     1      -3.435  -1.397   3.112  0.00  0.00    +0.002 A 
ATOM     24  C   UNL     1      -3.788  -1.440   1.793  0.00  0.00    +0.030 A 
ATOM     25  C   UNL     1      -2.841  -1.145   0.809  0.00  0.00    +0.089 A 
ATOM     26  N   UNL     1      -2.882  -1.103  -0.548  0.00  0.00    -0.231 NA
ATOM     27  C   UNL     1      -1.714  -0.764  -1.011  0.00  0.00    +0.129 A 
BRANCH  19  29
ATOM     28  C   UNL     1       0.685   1.332  -0.080  0.00  0.00    +0.027 C 
ATOM     29  C   UNL     1       0.568  -0.193  -0.102  0.00  0.00    +0.120 C 
ENDBRANCH  19  29
ENDBRANCH  17  27
ENDBRANCH   1  17
TORSDOF 6
