REMARK  Name = ZINC12209879
REMARK  8 active torsions:
REMARK  status: ('A' for Active; 'I' for Inactive)
REMARK    1  A    between atoms: C_1  and  C_2
REMARK    2  A    between atoms: C_6  and  C_28
REMARK    3  A    between atoms: C_7  and  N_8
REMARK    4  A    between atoms: N_8  and  S_9
REMARK    5  A    between atoms: S_9  and  C_12
REMARK    6  A    between atoms: C_13  and  C_27
REMARK    7  A    between atoms: C_15  and  N_19
REMARK    8  A    between atoms: C_17  and  C_18
REMARK                            x       y       z     vdW  Elec       q    Type
REMARK                         _______ _______ _______ _____ _____    ______ ____
ROOT
ATOM      1  C   UNL     1       2.528   0.340   0.307  0.00  0.00    +0.114 A 
ATOM      2  C   UNL     1       1.524  -0.129   1.134  0.00  0.00    -0.022 A 
ATOM      3  C   UNL     1       0.843   0.745   1.960  0.00  0.00    +0.030 A 
ATOM      4  C   UNL     1       1.168   2.095   1.958  0.00  0.00    +0.051 A 
ATOM      5  C   UNL     1       2.177   2.563   1.126  0.00  0.00    +0.030 A 
ATOM      6  C   UNL     1       2.854   1.684   0.303  0.00  0.00    -0.022 A 
ATOM      7  C   UNL     1       3.949   2.190  -0.600  0.00  0.00    +0.046 C 
ATOM      8  C   UNL     1       1.172  -1.594   1.135  0.00  0.00    +0.046 C 
ENDROOT
BRANCH   4   9
ATOM      9  N   UNL     1       0.478   2.982   2.788  0.00  0.00    -0.207 N 
ATOM     10  C   UNL     1       1.094   4.242   3.231  0.00  0.00    +0.131 C 
ATOM     11  C   UNL     1       0.213   5.416   2.809  0.00  0.00    +0.022 C 
ATOM     12  C   UNL     1      -1.137   5.361   3.520  0.00  0.00    +0.026 C 
ATOM     13  C   UNL     1      -1.966   4.195   2.970  0.00  0.00    +0.189 C 
ATOM     14  S   UNL     1      -1.071   2.650   3.300  0.00  0.00    +0.045 S 
ATOM     15  O   UNL     1      -1.531   1.619   2.437  0.00  0.00    -0.155 OA
ATOM     16  O   UNL     1      -0.958   2.435   4.700  0.00  0.00    -0.155 OA
ENDBRANCH   4   9
BRANCH   1  17
ATOM     17  S   UNL     1       3.394  -0.778  -0.745  0.00  0.00    +0.073 S 
ATOM     18  O   UNL     1       2.522  -1.875  -0.978  0.00  0.00    -0.150 OA
ATOM     19  O   UNL     1       3.940  -0.001  -1.802  0.00  0.00    -0.150 OA
BRANCH  17  20
ATOM     20  N   UNL     1       4.677  -1.369   0.120  0.00  0.00    -0.216 N 
ATOM     21  H   UNL     1       4.700  -2.304   0.375  0.00  0.00    +0.174 HD
BRANCH  20  28
ATOM     22  C   UNL     1       6.488  -0.530  -1.907  0.00  0.00    +0.046 C 
ATOM     23  C   UNL     1       6.633  -0.086  -0.475  0.00  0.00    -0.028 A 
ATOM     24  C   UNL     1       7.665   0.758  -0.114  0.00  0.00    +0.005 A 
ATOM     25  C   UNL     1       7.802   1.162   1.202  0.00  0.00    +0.001 A 
ATOM     26  C   UNL     1       6.903   0.728   2.159  0.00  0.00    +0.005 A 
ATOM     27  C   UNL     1       5.865  -0.112   1.803  0.00  0.00    -0.028 A 
ATOM     28  C   UNL     1       5.725  -0.519   0.483  0.00  0.00    +0.054 A 
ATOM     29  C   UNL     1       4.886  -0.584   2.847  0.00  0.00    +0.046 C 
ENDBRANCH  20  28
ENDBRANCH  17  20
ENDBRANCH   1  17
TORSDOF 4
