REMARK  Name = ZINC48834637
REMARK  3 active torsions:
REMARK  status: ('A' for Active; 'I' for Inactive)
REMARK    1  A    between atoms: C_1  and  C_2
REMARK    2  A    between atoms: C_6  and  C_18
REMARK    3  A    between atoms: C_7  and  N_8
REMARK                            x       y       z     vdW  Elec       q    Type
REMARK                         _______ _______ _______ _____ _____    ______ ____
ROOT
ATOM      1  N   UNL     1      -0.189  -0.017   2.398  0.00  0.00    -0.268 N 
ATOM      2  C   UNL     1      -0.382  -0.696   3.546  0.00  0.00    +0.306 C 
ATOM      3  O   UNL     1      -0.551  -1.900   3.519  0.00  0.00    -0.252 OA
ATOM      4  N   UNL     1      -0.387  -0.041   4.724  0.00  0.00    -0.287 N 
ATOM      5  C   UNL     1      -0.305   1.434   4.719  0.00  0.00    +0.107 C 
ATOM      6  C   UNL     1      -1.260   2.045   5.760  0.00  0.00    -0.000 C 
ATOM      7  C   UNL     1      -2.562   1.275   5.761  0.00  0.00    -0.081 C 
ATOM      8  N   UNL     1      -2.505   0.231   6.781  0.00  0.00    +0.380 N 
ATOM      9  C   UNL     1      -1.956  -0.997   6.347  0.00  0.00    -0.063 C 
ATOM     10  C   UNL     1      -0.478  -0.808   5.949  0.00  0.00    +0.090 C 
ATOM     11  H   UNL     1      -0.101   0.949   2.415  0.00  0.00    +0.156 HD
ATOM     12  H   UNL     1      -1.952   0.571   7.553  0.00  0.00    -0.086 HD
ATOM     13  H   UNL     1      -3.441   0.060   7.115  0.00  0.00    -0.086 HD
ENDROOT
BRANCH   1  20
ATOM     14  C   UNL     1       1.710  -2.118   2.161  0.00  0.00    +0.046 C 
ATOM     15  C   UNL     1       0.796  -1.735   1.026  0.00  0.00    -0.028 A 
ATOM     16  C   UNL     1       0.864  -2.415  -0.173  0.00  0.00    +0.005 A 
ATOM     17  C   UNL     1       0.029  -2.071  -1.224  0.00  0.00    +0.001 A 
ATOM     18  C   UNL     1      -0.879  -1.045  -1.084  0.00  0.00    +0.017 A 
ATOM     19  C   UNL     1      -0.961  -0.345   0.124  0.00  0.00    +0.085 A 
ATOM     20  C   UNL     1      -0.116  -0.701   1.189  0.00  0.00    +0.052 A 
BRANCH  19  21
ATOM     21  C   UNL     1      -1.928   0.752   0.281  0.00  0.00    +0.388 C 
ATOM     22  O   UNL     1      -2.726   0.997  -0.613  0.00  0.00    -0.241 OA
ATOM     23  O   UNL     1      -1.934   1.421   1.306  0.00  0.00    -0.241 OA
ENDBRANCH  19  21
ENDBRANCH   1  20
TORSDOF 2
