REMARK  Name = ZINC23976787
REMARK  7 active torsions:
REMARK  status: ('A' for Active; 'I' for Inactive)
REMARK    1  A    between atoms: C_1  and  C_2
REMARK    2  A    between atoms: C_7  and  N_8
REMARK    3  A    between atoms: C_9  and  C_11
REMARK    4  A    between atoms: N_13  and  C_14
REMARK    5  A    between atoms: C_14  and  C_15
REMARK    6  A    between atoms: C_15  and  C_17
REMARK    7  A    between atoms: C_15  and  N_27
REMARK                            x       y       z     vdW  Elec       q    Type
REMARK                         _______ _______ _______ _____ _____    ______ ____
ROOT
ATOM      1  C   UNL     1       3.778   3.325  -0.125  0.00  0.00    +0.105 C 
ENDROOT
BRANCH   1   2
ATOM      2  C   UNL     1       2.421   3.973  -0.030  0.00  0.00    -0.021 A 
ATOM      3  C   UNL     1       2.307   5.329  -0.054  0.00  0.00    +0.006 A 
ATOM      4  C   UNL     1       1.061   5.946   0.032  0.00  0.00    +0.001 A 
ATOM      5  C   UNL     1      -0.079   5.210   0.143  0.00  0.00    +0.008 A 
ATOM      6  C   UNL     1      -0.002   3.808   0.170  0.00  0.00    -0.018 A 
ATOM      7  C   UNL     1       1.266   3.180   0.083  0.00  0.00    -0.013 A 
ATOM      8  C   UNL     1       1.344   1.777   0.110  0.00  0.00    +0.009 A 
ATOM      9  C   UNL     1       0.204   1.042   0.220  0.00  0.00    +0.001 A 
ATOM     10  C   UNL     1      -1.043   1.659   0.301  0.00  0.00    +0.001 A 
ATOM     11  C   UNL     1      -1.157   3.015   0.283  0.00  0.00    +0.008 A 
ENDBRANCH   1   2
BRANCH   1  12
ATOM     12  N   UNL     1       4.818   4.322   0.161  0.00  0.00    -0.290 NA
ATOM     13  C   UNL     1       5.103   5.141  -1.026  0.00  0.00    +0.113 C 
ATOM     14  C   UNL     1       6.146   6.203  -0.668  0.00  0.00    +0.175 C 
ATOM     15  O   UNL     1       7.318   5.561  -0.159  0.00  0.00    -0.377 OA
ATOM     16  C   UNL     1       7.077   4.755   0.998  0.00  0.00    +0.175 C 
ATOM     17  C   UNL     1       6.043   3.678   0.656  0.00  0.00    +0.113 C 
ENDBRANCH   1  12
BRANCH   1  18
ATOM     18  C   UNL     1       3.980   2.768  -1.536  0.00  0.00    +0.128 C 
BRANCH  18  21
ATOM     19  C   UNL     1       5.673   1.508  -2.753  0.00  0.00    +0.299 C 
ATOM     20  O   UNL     1       5.072   1.746  -3.779  0.00  0.00    -0.265 OA
ATOM     21  N   UNL     1       5.210   1.973  -1.576  0.00  0.00    -0.306 N 
ATOM     22  H   UNL     1       5.755   1.756  -0.646  0.00  0.00    +0.149 HD
BRANCH  19  24
ATOM     23  N   UNL     1       7.391   0.232  -3.970  0.00  0.00    -0.278 N 
ATOM     24  C   UNL     1       6.927   0.697  -2.794  0.00  0.00    +0.303 C 
ATOM     25  O   UNL     1       7.529   0.458  -1.767  0.00  0.00    -0.265 OA
ATOM     26  H   UNL     1       6.872   0.487  -4.906  0.00  0.00    +0.155 HD
BRANCH  23  33
ATOM     27  C   UNL     1       7.635  -1.664  -6.078  0.00  0.00    +0.045 C 
ATOM     28  C   UNL     1       8.691  -1.515  -5.013  0.00  0.00    -0.029 A 
ATOM     29  C   UNL     1       9.819  -2.311  -5.042  0.00  0.00    +0.005 A 
ATOM     30  C   UNL     1      10.789  -2.174  -4.066  0.00  0.00    +0.000 A 
ATOM     31  C   UNL     1      10.633  -1.240  -3.058  0.00  0.00    +0.002 A 
ATOM     32  C   UNL     1       9.509  -0.438  -3.026  0.00  0.00    +0.023 A 
ATOM     33  C   UNL     1       8.531  -0.576  -4.002  0.00  0.00    +0.037 A 
ENDBRANCH  23  33
ENDBRANCH  19  24
ENDBRANCH  18  21
ENDBRANCH   1  18
TORSDOF 6
