REMARK  Name = ZINC51994483
REMARK  5 active torsions:
REMARK  status: ('A' for Active; 'I' for Inactive)
REMARK    1  A    between atoms: C_3  and  N_21
REMARK    2  A    between atoms: C_4  and  S_8
REMARK    3  A    between atoms: S_8  and  N_11
REMARK    4  A    between atoms: N_11  and  C_12
REMARK    5  A    between atoms: C_18  and  O_20
REMARK                            x       y       z     vdW  Elec       q    Type
REMARK                         _______ _______ _______ _____ _____    ______ ____
ROOT
ATOM      1  S   UNL     1       4.442  -0.795   0.056  0.00  0.00    +0.061 S 
ATOM      2  O   UNL     1       5.520  -0.395   0.891  0.00  0.00    -0.153 OA
ATOM      3  O   UNL     1       3.984  -2.139  -0.006  0.00  0.00    -0.153 OA
ENDROOT
BRANCH   1   7
ATOM      4  C   UNL     1       0.873   1.735   1.244  0.00  0.00    +0.040 A 
ATOM      5  C   UNL     1       0.760   0.833   0.204  0.00  0.00    +0.027 A 
ATOM      6  C   UNL     1       1.851   0.057  -0.162  0.00  0.00    +0.051 A 
ATOM      7  C   UNL     1       3.055   0.189   0.518  0.00  0.00    +0.128 A 
ATOM      8  C   UNL     1       3.164   1.092   1.557  0.00  0.00    +0.068 A 
ATOM      9  C   UNL     1       2.074   1.865   1.921  0.00  0.00    +0.125 A 
ATOM     10  F   UNL     1       2.183   2.749   2.937  0.00  0.00    -0.205 F 
BRANCH   6  11
ATOM     11  N   UNL     1       1.738  -0.858  -1.214  0.00  0.00    -0.356 N 
ATOM     12  H   UNL     1       0.884  -0.986  -1.655  0.00  0.00    +0.142 HD
ATOM     13  H   UNL     1       2.514  -1.363  -1.502  0.00  0.00    +0.142 HD
ENDBRANCH   6  11
ENDBRANCH   1   7
BRANCH   1  14
ATOM     14  N   UNL     1       4.855  -0.364  -1.488  0.00  0.00    -0.184 NA
ATOM     15  H   UNL     1       4.778  -1.009  -2.209  0.00  0.00    +0.148 HD
BRANCH  14  16
ATOM     16  C   UNL     1       5.337   0.991  -1.767  0.00  0.00    +0.105 C 
ATOM     17  C   UNL     1       4.338   1.711  -2.676  0.00  0.00    +0.023 C 
ATOM     18  C   UNL     1       4.842   3.126  -2.967  0.00  0.00    +0.002 C 
ATOM     19  C   UNL     1       6.202   3.050  -3.663  0.00  0.00    +0.003 C 
ATOM     20  C   UNL     1       7.201   2.330  -2.754  0.00  0.00    +0.033 C 
ATOM     21  C   UNL     1       6.697   0.915  -2.463  0.00  0.00    +0.133 C 
BRANCH  21  22
ATOM     22  O   UNL     1       7.630   0.243  -1.614  0.00  0.00    -0.390 OA
ATOM     23  H   UNL     1       8.516   0.159  -1.992  0.00  0.00    +0.210 HD
ENDBRANCH  21  22
ENDBRANCH  14  16
ENDBRANCH   1  14
TORSDOF 5
