REMARK  Name = ZINC61818975
REMARK  6 active torsions:
REMARK  status: ('A' for Active; 'I' for Inactive)
REMARK    1  A    between atoms: C_1  and  C_2
REMARK    2  A    between atoms: C_2  and  C_19
REMARK    3  A    between atoms: N_5  and  S_8
REMARK    4  A    between atoms: S_8  and  C_11
REMARK    5  A    between atoms: C_11  and  C_12
REMARK    6  A    between atoms: C_15  and  N_18
REMARK                            x       y       z     vdW  Elec       q    Type
REMARK                         _______ _______ _______ _____ _____    ______ ____
ROOT
ATOM      1  S   UNL     1       4.274  -1.082  -0.047  0.00  0.00    +0.036 S 
ATOM      2  O   UNL     1       4.321  -1.791   1.183  0.00  0.00    -0.158 OA
ATOM      3  O   UNL     1       4.295  -1.778  -1.286  0.00  0.00    -0.158 OA
ENDROOT
BRANCH   1   8
ATOM      4  C   UNL     1      -0.019   1.526   0.010  0.00  0.00    +0.011 C 
ATOM      5  C   UNL     1       0.002  -0.004   0.002  0.00  0.00    -0.032 C 
ATOM      6  C   UNL     1       0.717  -0.497  -1.258  0.00  0.00    +0.023 C 
ATOM      7  C   UNL     1       2.143   0.062  -1.284  0.00  0.00    +0.109 C 
ATOM      8  N   UNL     1       2.815  -0.298  -0.028  0.00  0.00    -0.181 NA
ATOM      9  C   UNL     1       2.168   0.049   1.245  0.00  0.00    +0.109 C 
ATOM     10  C   UNL     1       0.742  -0.511   1.242  0.00  0.00    +0.023 C 
ATOM     11  C   UNL     1      -1.433  -0.533   0.014  0.00  0.00    +0.011 C 
ENDBRANCH   1   8
BRANCH   1  12
ATOM     12  C   UNL     1       5.514   0.242  -0.053  0.00  0.00    +0.220 C 
BRANCH  12  13
ATOM     13  C   UNL     1       6.894  -0.363  -0.070  0.00  0.00    -0.025 A 
ATOM     14  C   UNL     1       7.536  -0.651   1.120  0.00  0.00    +0.007 A 
ATOM     15  C   UNL     1       8.801  -1.206   1.108  0.00  0.00    +0.023 A 
ATOM     16  C   UNL     1       9.428  -1.474  -0.102  0.00  0.00    +0.025 A 
ATOM     17  C   UNL     1       8.781  -1.183  -1.296  0.00  0.00    +0.023 A 
ATOM     18  C   UNL     1       7.514  -0.634  -1.276  0.00  0.00    +0.007 A 
BRANCH  16  19
ATOM     19  N   UNL     1      10.708  -2.034  -0.118  0.00  0.00    -0.358 N 
ATOM     20  H   UNL     1      11.159  -2.236   0.717  0.00  0.00    +0.142 HD
ATOM     21  H   UNL     1      11.145  -2.220  -0.963  0.00  0.00    +0.142 HD
ENDBRANCH  16  19
ENDBRANCH  12  13
ENDBRANCH   1  12
TORSDOF 4
