REMARK  Name = ZINC05798812
REMARK  6 active torsions:
REMARK  status: ('A' for Active; 'I' for Inactive)
REMARK    1  A    between atoms: C_1  and  C_2
REMARK    2  A    between atoms: C_5  and  N_8
REMARK    3  A    between atoms: N_10  and  C_11
REMARK    4  A    between atoms: C_14  and  C_17
REMARK    5  A    between atoms: N_18  and  C_19
REMARK    6  A    between atoms: C_24  and  O_25
REMARK                            x       y       z     vdW  Elec       q    Type
REMARK                         _______ _______ _______ _____ _____    ______ ____
ROOT
ATOM      1  N   UNL     1      -2.245  -3.881   1.785  0.00  0.00    -0.327 N 
ATOM      2  C   UNL     1      -1.171  -4.668   1.898  0.00  0.00    +0.185 C 
ATOM      3  N   UNL     1      -0.226  -4.383   2.800  0.00  0.00    -0.327 N 
ATOM      4  N   UNL     1      -1.037  -5.765   1.091  0.00  0.00    -0.324 N 
ATOM      5  H   UNL     1      -0.305  -6.385   1.233  0.00  0.00    +0.169 HD
ATOM      6  H   UNL     1      -0.368  -3.670   3.443  0.00  0.00    +0.169 HD
ATOM      7  H   UNL     1      -2.982  -4.147   1.213  0.00  0.00    +0.169 HD
ENDROOT
BRANCH   1  12
ATOM      8  C   UNL     1      -2.494   0.996   4.641  0.00  0.00    +0.044 C 
ATOM      9  C   UNL     1      -2.428  -0.303   3.880  0.00  0.00    -0.050 A 
ATOM     10  C   UNL     1      -3.579  -1.042   3.677  0.00  0.00    +0.005 A 
ATOM     11  C   UNL     1      -3.524  -2.233   2.981  0.00  0.00    +0.026 A 
ATOM     12  C   UNL     1      -2.306  -2.689   2.482  0.00  0.00    +0.042 A 
ATOM     13  C   UNL     1      -1.150  -1.941   2.689  0.00  0.00    +0.026 A 
ATOM     14  C   UNL     1      -1.217  -0.749   3.382  0.00  0.00    +0.005 A 
ENDBRANCH   1  12
BRANCH   3  15
ATOM     15  C   UNL     1       0.953  -5.103   2.817  0.00  0.00    +0.042 A 
ATOM     16  C   UNL     1       1.522  -5.541   1.624  0.00  0.00    +0.026 A 
ATOM     17  C   UNL     1       2.700  -6.260   1.646  0.00  0.00    +0.005 A 
ATOM     18  C   UNL     1       3.316  -6.545   2.851  0.00  0.00    -0.050 A 
ATOM     19  C   UNL     1       2.756  -6.112   4.039  0.00  0.00    +0.005 A 
ATOM     20  C   UNL     1       1.581  -5.389   4.027  0.00  0.00    +0.026 A 
ATOM     21  C   UNL     1       4.602  -7.331   2.869  0.00  0.00    +0.044 C 
ENDBRANCH   3  15
BRANCH   4  22
ATOM     22  C   UNL     1      -1.957  -5.991   0.059  0.00  0.00    +0.084 A 
ATOM     23  C   UNL     1      -2.080  -5.077  -0.977  0.00  0.00    +0.029 A 
ATOM     24  C   UNL     1      -2.988  -5.303  -1.994  0.00  0.00    +0.002 A 
ATOM     25  C   UNL     1      -3.776  -6.439  -1.982  0.00  0.00    +0.004 A 
ATOM     26  C   UNL     1      -3.659  -7.355  -0.953  0.00  0.00    +0.047 A 
ATOM     27  C   UNL     1      -2.748  -7.138   0.068  0.00  0.00    +0.140 A 
BRANCH  27  28
ATOM     28  O   UNL     1      -2.628  -8.041   1.077  0.00  0.00    -0.505 OA
ATOM     29  H   UNL     1      -3.213  -7.872   1.828  0.00  0.00    +0.292 HD
ENDBRANCH  27  28
ENDBRANCH   4  22
TORSDOF 4
