REMARK  Name = ZINC49000219
REMARK  7 active torsions:
REMARK  status: ('A' for Active; 'I' for Inactive)
REMARK    1  A    between atoms: C_2  and  N_24
REMARK    2  A    between atoms: N_8  and  C1*_11
REMARK    3  A    between atoms: C2*_13  and  O2*_23
REMARK    4  A    between atoms: C3*_15  and  O3*_22
REMARK    5  A    between atoms: C4*_17  and  C5*_20
REMARK    6  A    between atoms: C5*_20  and  O5*_21
REMARK    7  A    between atoms: N_24  and  C_25
REMARK                            x       y       z     vdW  Elec       q    Type
REMARK                         _______ _______ _______ _____ _____    ______ ____
ROOT
ATOM      1  C   UNL     1      -0.017   1.380   0.010  0.00  0.00    +0.065 A 
ATOM      2  C   UNL     1       1.185   2.080   0.002  0.00  0.00    +0.060 A 
ATOM      3  C   UNL     1       2.380   1.340  -0.013  0.00  0.00    +0.129 A 
ATOM      4  C   UNL     1       2.312  -0.061  -0.020  0.00  0.00    +0.166 A 
ATOM      5  N   UNL     1       1.137  -0.676  -0.012  0.00  0.00    -0.216 NA
ATOM      6  C   UNL     1       0.002  -0.004   0.002  0.00  0.00    +0.133 A 
ATOM      7 CL   UNL     1      -1.500  -0.874   0.012  0.00  0.00    -0.062 Cl
ATOM      8  N   UNL     1       3.617  -0.502  -0.036  0.00  0.00    -0.286 N 
ATOM      9  C   UNL     1       4.419   0.599  -0.038  0.00  0.00    +0.203 A 
ATOM     10  N   UNL     1       3.694   1.679  -0.025  0.00  0.00    -0.232 NA
ENDROOT
BRANCH   8  11
ATOM     11  C1* UNL     1       4.060  -1.898  -0.048  0.00  0.00    +0.253 C 
ATOM     12  C2* UNL     1       4.117  -2.442   1.396  0.00  0.00    +0.195 C 
ATOM     13  C3* UNL     1       5.403  -3.312   1.370  0.00  0.00    +0.178 C 
ATOM     14  C4* UNL     1       6.289  -2.500   0.392  0.00  0.00    +0.177 C 
ATOM     15  O4* UNL     1       5.381  -1.984  -0.597  0.00  0.00    -0.346 OA
BRANCH  13  16
ATOM     16  O3* UNL     1       6.000  -3.388   2.666  0.00  0.00    -0.386 OA
ATOM     17  H3* UNL     1       6.806  -3.921   2.697  0.00  0.00    +0.210 HD
ENDBRANCH  13  16
BRANCH  12  18
ATOM     18  O2* UNL     1       4.240  -1.374   2.337  0.00  0.00    -0.385 OA
ATOM     19  H2* UNL     1       4.280  -1.664   3.259  0.00  0.00    +0.210 HD
ENDBRANCH  12  18
BRANCH  14  20
ATOM     20  C5* UNL     1       7.328  -3.410  -0.264  0.00  0.00    +0.190 C 
BRANCH  20  21
ATOM     21  O5* UNL     1       8.208  -2.625  -1.071  0.00  0.00    -0.392 OA
ATOM     22  H5* UNL     1       8.895  -3.138  -1.519  0.00  0.00    +0.210 HD
ENDBRANCH  20  21
ENDBRANCH  14  20
ENDBRANCH   8  11
BRANCH   2  23
ATOM     23  N   UNL     1       1.203   3.470   0.009  0.00  0.00    -0.339 N 
ATOM     24  H   UNL     1       2.049   3.944   0.003  0.00  0.00    +0.146 HD
BRANCH  23  25
ATOM     25  C   UNL     1      -0.056   4.220   0.024  0.00  0.00    +0.070 C 
ATOM     26  C   UNL     1      -0.572   4.380  -1.407  0.00  0.00    +0.022 C 
ATOM     27  C   UNL     1      -2.044   4.795  -1.375  0.00  0.00    +0.002 C 
ATOM     28  C   UNL     1      -2.789   3.953  -0.337  0.00  0.00    +0.000 C 
ATOM     29  C   UNL     1      -3.239   4.849   0.819  0.00  0.00    +0.000 C 
ATOM     30  C   UNL     1      -2.037   5.174   1.708  0.00  0.00    +0.000 C 
ATOM     31  C   UNL     1      -1.163   6.225   1.021  0.00  0.00    +0.002 C 
ATOM     32  C   UNL     1       0.180   5.601   0.639  0.00  0.00    +0.022 C 
ENDBRANCH  23  25
ENDBRANCH   2  23
TORSDOF 7
