REMARK  Name = ZINC40661733
REMARK  6 active torsions:
REMARK  status: ('A' for Active; 'I' for Inactive)
REMARK    1  A    between atoms: C_1  and  C_2
REMARK    2  A    between atoms: C_2  and  N_3
REMARK    3  A    between atoms: N_3  and  C_4
REMARK    4  A    between atoms: C_8  and  C_10
REMARK    5  A    between atoms: C_12  and  N_18
REMARK    6  A    between atoms: C_13  and  N_17
REMARK                            x       y       z     vdW  Elec       q    Type
REMARK                         _______ _______ _______ _____ _____    ______ ____
ROOT
ATOM      1  N   UNL     1       0.685  -0.479  -1.200  0.00  0.00    -0.284 N 
ATOM      2  C   UNL     1      -0.052  -0.810  -2.331  0.00  0.00    +0.151 A 
ATOM      3  C   UNL     1      -0.609  -2.083  -2.468  0.00  0.00    +0.105 A 
ATOM      4  C   UNL     1      -1.340  -2.362  -3.624  0.00  0.00    +0.142 A 
ATOM      5  N   UNL     1      -1.477  -1.412  -4.545  0.00  0.00    -0.219 NA
ATOM      6  C   UNL     1      -0.934  -0.223  -4.378  0.00  0.00    +0.225 A 
ATOM      7  N   UNL     1      -0.242   0.084  -3.299  0.00  0.00    -0.218 NA
ENDROOT
BRANCH   1   8
ATOM      8  C   UNL     1       2.077  -0.601  -1.212  0.00  0.00    +0.035 A 
ATOM      9  C   UNL     1       2.806  -0.375  -0.051  0.00  0.00    +0.023 A 
ATOM     10  C   UNL     1       4.181  -0.496  -0.067  0.00  0.00    +0.002 A 
ATOM     11  C   UNL     1       4.833  -0.841  -1.237  0.00  0.00    +0.003 A 
ATOM     12  C   UNL     1       4.111  -1.066  -2.394  0.00  0.00    -0.049 A 
ATOM     13  C   UNL     1       2.734  -0.953  -2.384  0.00  0.00    +0.026 A 
ATOM     14  C   UNL     1       4.826  -1.442  -3.667  0.00  0.00    +0.044 C 
ENDBRANCH   1   8
BRANCH   4  15
ATOM     15  N   UNL     1      -1.915  -3.614  -3.810  0.00  0.00    -0.342 N 
ATOM     16  H   UNL     1      -1.810  -4.301  -3.134  0.00  0.00    +0.144 HD
ATOM     17  H   UNL     1      -2.421  -3.800  -4.616  0.00  0.00    +0.144 HD
ENDBRANCH   4  15
BRANCH   3  18
ATOM     18  N   UNL     1      -0.439  -3.056  -1.469  0.00  0.00    -0.353 N 
ATOM     19  H   UNL     1       0.132  -2.873  -0.707  0.00  0.00    +0.143 HD
ATOM     20  H   UNL     1      -0.892  -3.910  -1.542  0.00  0.00    +0.143 HD
ENDBRANCH   3  18
BRANCH   1  22
ATOM     21  C   UNL     1      -0.001   1.526   0.021  0.00  0.00    +0.025 C 
ATOM     22  C   UNL     1       0.002  -0.004   0.006  0.00  0.00    +0.109 C 
ENDBRANCH   1  22
TORSDOF 4
