REMARK  Name = ZINC09518794
REMARK  6 active torsions:
REMARK  status: ('A' for Active; 'I' for Inactive)
REMARK    1  A    between atoms: C_11  and  C_13
REMARK    2  A    between atoms: C_13  and  S_14
REMARK    3  A    between atoms: S_14  and  C_15
REMARK    4  A    between atoms: C_20  and  N_32
REMARK    5  A    between atoms: N_21  and  C_22
REMARK    6  A    between atoms: C_26  and  C_28
REMARK                            x       y       z     vdW  Elec       q    Type
REMARK                         _______ _______ _______ _____ _____    ______ ____
ROOT
ATOM      1  C   UNL     1       0.426   5.926   1.102  0.00  0.00    +0.179 A 
ATOM      2  N   UNL     1       0.425   7.242   1.132  0.00  0.00    -0.185 NA
ATOM      3  C   UNL     1      -0.074   7.955   0.110  0.00  0.00    +0.276 A 
ATOM      4  O   UNL     1      -0.073   9.177   0.156  0.00  0.00    -0.266 OA
ATOM      5  C   UNL     1      -0.601   7.291  -1.015  0.00  0.00    +0.114 A 
ATOM      6  C   UNL     1      -0.591   5.926  -1.041  0.00  0.00    +0.108 A 
ATOM      7  N   UNL     1      -0.069   5.243   0.029  0.00  0.00    -0.277 N 
ENDROOT
BRANCH   7   8
ATOM      8  C   UNL     1      -0.050   3.842   0.022  0.00  0.00    +0.051 A 
ATOM      9  C   UNL     1      -1.242   3.130   0.030  0.00  0.00    +0.026 A 
ATOM     10  C   UNL     1      -1.220   1.750   0.017  0.00  0.00    +0.003 A 
ATOM     11  C   UNL     1      -0.013   1.076   0.008  0.00  0.00    +0.012 A 
ATOM     12  C   UNL     1       1.176   1.782   0.000  0.00  0.00    +0.057 A 
ATOM     13  C   UNL     1       1.161   3.163   0.007  0.00  0.00    +0.038 A 
BRANCH  12  14
ATOM     14  C   UNL     1       2.490   1.044  -0.016  0.00  0.00    +0.417 C 
ATOM     15  F   UNL     1       2.251  -0.334  -0.021  0.00  0.00    -0.166 F 
ATOM     16  F   UNL     1       3.208   1.397  -1.163  0.00  0.00    -0.166 F 
ATOM     17  F   UNL     1       3.230   1.384   1.121  0.00  0.00    -0.166 F 
ENDBRANCH  12  14
ENDBRANCH   7   8
BRANCH   6  18
ATOM     18  N   UNL     1      -1.098   5.244  -2.124  0.00  0.00    -0.344 N 
ATOM     19  H   UNL     1      -1.088   4.274  -2.134  0.00  0.00    +0.144 HD
ATOM     20  H   UNL     1      -1.465   5.734  -2.876  0.00  0.00    +0.144 HD
ENDBRANCH   6  18
BRANCH   1  21
ATOM     21  S   UNL     1       1.086   5.029   2.468  0.00  0.00    -0.078 S 
BRANCH  21  22
ATOM     22  C   UNL     1       1.571   6.404   3.541  0.00  0.00    +0.173 C 
BRANCH  22  33
ATOM     23  C   UNL     1       5.199   6.047  11.222  0.00  0.00    +0.002 A 
ATOM     24  C   UNL     1       5.183   4.662  11.140  0.00  0.00    +0.001 A 
ATOM     25  C   UNL     1       4.661   4.056  10.012  0.00  0.00    +0.017 A 
ATOM     26  C   UNL     1       4.168   4.832   8.993  0.00  0.00    +0.041 A 
ATOM     27  C   UNL     1       4.168   6.245   9.041  0.00  0.00    +0.080 A 
ATOM     28  C   UNL     1       4.710   6.830  10.209  0.00  0.00    +0.029 A 
ATOM     29  N   UNL     1       3.649   6.867   7.960  0.00  0.00    -0.225 NA
ATOM     30  C   UNL     1       3.173   6.209   6.929  0.00  0.00    +0.165 A 
ATOM     31  S   UNL     1       3.420   4.507   7.415  0.00  0.00    -0.052 S 
ATOM     32  N   UNL     1       2.614   6.708   5.763  0.00  0.00    -0.264 N 
ATOM     33  C   UNL     1       2.178   5.862   4.809  0.00  0.00    +0.229 C 
ATOM     34  O   UNL     1       2.273   4.664   4.972  0.00  0.00    -0.275 OA
ATOM     35  H   UNL     1       2.538   7.666   5.633  0.00  0.00    +0.157 HD
ENDBRANCH  22  33
ENDBRANCH  21  22
ENDBRANCH   1  21
TORSDOF 6
