REMARK  Name = ZINC00534465
REMARK  5 active torsions:
REMARK  status: ('A' for Active; 'I' for Inactive)
REMARK    1  A    between atoms: C_1  and  O_2
REMARK    2  A    between atoms: O_2  and  C_3
REMARK    3  A    between atoms: C_7  and  C_10
REMARK    4  A    between atoms: C_8  and  O_9
REMARK    5  A    between atoms: N_11  and  N_12
REMARK                            x       y       z     vdW  Elec       q    Type
REMARK                         _______ _______ _______ _____ _____    ______ ____
ROOT
ATOM      1  C   UNL     1      -1.316  -0.639  -0.496  0.00  0.00    +0.163 A 
ATOM      2  C   UNL     1      -2.323   0.087   0.121  0.00  0.00    +0.064 A 
ATOM      3  C   UNL     1      -3.427  -0.559   0.651  0.00  0.00    +0.022 A 
ATOM      4  C   UNL     1      -3.535  -1.932   0.570  0.00  0.00    +0.028 A 
ATOM      5  C   UNL     1      -2.528  -2.677  -0.050  0.00  0.00    +0.041 A 
ATOM      6  C   UNL     1      -1.414  -2.022  -0.590  0.00  0.00    +0.167 A 
ATOM      7 BR   UNL     1      -4.791   0.445   1.491  0.00  0.00    -0.050 Br
ENDROOT
BRANCH   1   9
ATOM      8  C   UNL     1      -0.199   1.425  -0.883  0.00  0.00    +0.277 C 
ATOM      9  O   UNL     1      -0.235   0.003  -1.015  0.00  0.00    -0.491 OA
ENDBRANCH   1   9
BRANCH   6  10
ATOM     10  O   UNL     1      -0.432  -2.736  -1.200  0.00  0.00    -0.503 OA
ATOM     11  H   UNL     1       0.258  -3.049  -0.598  0.00  0.00    +0.292 HD
ENDBRANCH   6  10
BRANCH   5  12
ATOM     12  C   UNL     1      -2.640  -4.143  -0.139  0.00  0.00    +0.145 C 
ATOM     13  N   UNL     1      -3.804  -4.712  -0.053  0.00  0.00    -0.171 NA
BRANCH  13  14
ATOM     14  N   UNL     1      -4.967  -3.930  -0.048  0.00  0.00    -0.196 N 
ATOM     15  C   UNL     1      -5.352  -3.055  -1.035  0.00  0.00    +0.247 A 
ATOM     16  N   UNL     1      -6.476  -2.510  -0.693  0.00  0.00    -0.160 NA
ATOM     17  N   UNL     1      -6.853  -3.031   0.552  0.00  0.00    -0.253 N 
ATOM     18  H   UNL     1      -7.653  -2.804   1.052  0.00  0.00    +0.191 HD
ATOM     19  C   UNL     1      -5.902  -3.913   0.923  0.00  0.00    +0.196 A 
ATOM     20  S   UNL     1      -5.883  -4.836   2.365  0.00  0.00    -0.010 S 
ENDBRANCH  13  14
ENDBRANCH   5  12
TORSDOF 4
