REMARK  Name = ZINC41034805
REMARK  5 active torsions:
REMARK  status: ('A' for Active; 'I' for Inactive)
REMARK    1  A    between atoms: C_1  and  C_2
REMARK    2  A    between atoms: C_7  and  C_9
REMARK    3  A    between atoms: C_7  and  N_12
REMARK    4  A    between atoms: N_12  and  S_13
REMARK    5  A    between atoms: S_13  and  C_16
REMARK                            x       y       z     vdW  Elec       q    Type
REMARK                         _______ _______ _______ _____ _____    ______ ____
ROOT
ATOM      1  N   UNL     1       2.509   0.838   0.692  0.00  0.00    -0.177 NA
ATOM      2  H   UNL     1       1.629   1.058   1.033  0.00  0.00    +0.149 HD
ENDROOT
BRANCH   1   8
ATOM      3  C   UNL     1       0.392  -0.277  -0.031  0.00  0.00    +0.007 C 
ATOM      4  C   UNL     1       1.031  -1.624   0.314  0.00  0.00    -0.012 C 
ATOM      5  C   UNL     1       1.756  -2.174  -0.916  0.00  0.00    +0.003 C 
ATOM      6  C   UNL     1       2.844  -1.190  -1.350  0.00  0.00    +0.003 C 
ATOM      7  C   UNL     1       3.846  -1.002  -0.208  0.00  0.00    +0.035 C 
ATOM      8  C   UNL     1       3.121  -0.452   1.022  0.00  0.00    +0.140 C 
ATOM      9  C   UNL     1       2.033  -1.437   1.455  0.00  0.00    +0.038 C 
BRANCH   8  10
ATOM     10  C   UNL     1       4.107  -0.267   2.146  0.00  0.00    +0.377 C 
ATOM     11  O   UNL     1       4.132   0.780   2.769  0.00  0.00    -0.244 OA
ATOM     12  O   UNL     1       4.881  -1.165   2.432  0.00  0.00    -0.244 OA
ENDBRANCH   8  10
ENDBRANCH   1   8
BRANCH   1  13
ATOM     13  S   UNL     1       3.321   1.919  -0.265  0.00  0.00    +0.035 S 
ATOM     14  O   UNL     1       3.756   1.158  -1.383  0.00  0.00    -0.158 OA
ATOM     15  O   UNL     1       2.418   3.003  -0.433  0.00  0.00    -0.158 OA
BRANCH  13  16
ATOM     16  C   UNL     1       4.747   2.440   0.728  0.00  0.00    +0.170 C 
ATOM     17  C   UNL     1       4.271   3.314   1.901  0.00  0.00    +0.052 C 
ATOM     18  C   UNL     1       5.482   4.020   2.558  0.00  0.00    +0.168 C 
ATOM     19  S   UNL     1       6.671   4.164   1.162  0.00  0.00    -0.029 S 
ATOM     20  O   UNL     1       6.799   5.533   0.803  0.00  0.00    -0.174 OA
ATOM     21  O   UNL     1       7.836   3.410   1.468  0.00  0.00    -0.174 OA
ATOM     22  C   UNL     1       5.714   3.289  -0.146  0.00  0.00    +0.193 C 
ENDBRANCH  13  16
ENDBRANCH   1  13
TORSDOF 4
