REMARK  Name = ZINC61888054
REMARK  7 active torsions:
REMARK  status: ('A' for Active; 'I' for Inactive)
REMARK    1  A    between atoms: C_1  and  C_2
REMARK    2  A    between atoms: C_3  and  S_8
REMARK    3  A    between atoms: C_4  and  C_7
REMARK    4  A    between atoms: S_8  and  N_11
REMARK    5  A    between atoms: N_11  and  C_12
REMARK    6  A    between atoms: C_17  and  C_19
REMARK    7  A    between atoms: N_20  and  O_21
REMARK                            x       y       z     vdW  Elec       q    Type
REMARK                         _______ _______ _______ _____ _____    ______ ____
ROOT
ATOM      1  N   UNL     1       1.570  -0.091  -3.285  0.00  0.00    -0.186 NA
ATOM      2  H   UNL     1       1.915   0.789  -3.504  0.00  0.00    +0.148 HD
ENDROOT
BRANCH   1   3
ATOM      3  C   UNL     1       2.444  -1.263  -3.371  0.00  0.00    +0.087 C 
ATOM      4  C   UNL     1       2.505  -1.770  -4.827  0.00  0.00    +0.021 C 
ATOM      5  C   UNL     1       3.783  -1.112  -5.405  0.00  0.00    +0.002 C 
ATOM      6  C   UNL     1       4.766  -1.166  -4.210  0.00  0.00    +0.013 C 
ATOM      7  C   UNL     1       3.881  -0.879  -2.978  0.00  0.00    +0.074 C 
BRANCH   7   8
ATOM      8  C   UNL     1       4.337  -1.714  -1.809  0.00  0.00    +0.136 C 
ATOM      9  N   UNL     1       3.804  -2.871  -1.595  0.00  0.00    -0.076 NA
ATOM     10  N   UNL     1       5.320  -1.243  -0.968  0.00  0.00    -0.344 N 
ATOM     11  H   UNL     1       5.720  -0.374  -1.128  0.00  0.00    +0.144 HD
ATOM     12  H   UNL     1       5.614  -1.780  -0.215  0.00  0.00    +0.144 HD
BRANCH   9  13
ATOM     13  O   UNL     1       4.232  -3.656  -0.496  0.00  0.00    -0.408 OA
ATOM     14  H   UNL     1       3.776  -4.505  -0.418  0.00  0.00    +0.328 HD
ENDBRANCH   9  13
ENDBRANCH   7   8
ENDBRANCH   1   3
BRANCH   1  15
ATOM     15  S   UNL     1      -0.008  -0.267  -2.813  0.00  0.00    +0.064 S 
ATOM     16  O   UNL     1      -0.547  -1.328  -3.589  0.00  0.00    -0.153 OA
ATOM     17  O   UNL     1      -0.577   1.035  -2.802  0.00  0.00    -0.153 OA
BRANCH  15  20
ATOM     18  C   UNL     1      -0.018   1.503   0.010  0.00  0.00    +0.071 C 
ATOM     19  C   UNL     1       0.002  -0.004   0.002  0.00  0.00    +0.107 A 
ATOM     20  C   UNL     1       0.008  -0.824  -1.141  0.00  0.00    +0.169 A 
ATOM     21  C   UNL     1       0.027  -2.108  -0.735  0.00  0.00    +0.161 A 
ATOM     22  O   UNL     1       0.034  -2.119   0.606  0.00  0.00    -0.358 OA
ATOM     23  N   UNL     1       0.023  -0.775   1.052  0.00  0.00    -0.081 NA
ATOM     24  C   UNL     1       0.039  -3.320  -1.631  0.00  0.00    +0.091 C 
ENDBRANCH  15  20
ENDBRANCH   1  15
TORSDOF 5
