REMARK  Name = ZINC50208629
REMARK  4 active torsions:
REMARK  status: ('A' for Active; 'I' for Inactive)
REMARK    1  A    between atoms: C_3  and  C_8
REMARK    2  A    between atoms: C_8  and  C_9
REMARK    3  A    between atoms: C_11  and  C_14
REMARK    4  A    between atoms: C_19  and  N_20
REMARK                            x       y       z     vdW  Elec       q    Type
REMARK                         _______ _______ _______ _____ _____    ______ ____
ROOT
ATOM      1  C   UNL     1       4.157   2.392   1.429  0.00  0.00    +0.176 A 
ATOM      2  N   UNL     1       3.863   3.485   2.136  0.00  0.00    -0.191 NA
ATOM      3  C   UNL     1       4.325   3.364   3.362  0.00  0.00    +0.260 A 
ATOM      4  O   UNL     1       4.933   2.168   3.460  0.00  0.00    -0.333 OA
ATOM      5  N   UNL     1       4.804   1.553   2.187  0.00  0.00    -0.061 NA
ENDROOT
BRANCH   3   6
ATOM      6  C   UNL     1       4.197   4.363   4.440  0.00  0.00    +0.061 A 
ATOM      7  C   UNL     1       2.965   4.969   4.694  0.00  0.00    +0.030 A 
ATOM      8  C   UNL     1       2.853   5.903   5.702  0.00  0.00    +0.019 A 
ATOM      9  C   UNL     1       3.958   6.244   6.466  0.00  0.00    +0.017 A 
ATOM     10  C   UNL     1       5.182   5.654   6.226  0.00  0.00    +0.024 A 
ATOM     11  C   UNL     1       5.312   4.707   5.219  0.00  0.00    +0.037 A 
ATOM     12 BR   UNL     1       1.183   6.722   6.045  0.00  0.00    -0.050 Br
BRANCH  11  13
ATOM     13  N   UNL     1       6.544   4.106   4.979  0.00  0.00    -0.357 N 
ATOM     14  H   UNL     1       6.657   3.517   4.216  0.00  0.00    +0.142 HD
ATOM     15  H   UNL     1       7.290   4.275   5.575  0.00  0.00    +0.142 HD
ENDBRANCH  11  13
ENDBRANCH   3   6
BRANCH   1  16
ATOM     16  C   UNL     1       3.793   2.162  -0.015  0.00  0.00    +0.115 C 
BRANCH  16  19
ATOM     17  C   UNL     1       0.057   1.667  -0.240  0.00  0.00    +0.003 A 
ATOM     18  C   UNL     1       1.298   2.273  -0.169  0.00  0.00    +0.004 A 
ATOM     19  C   UNL     1       2.442   1.500  -0.094  0.00  0.00    -0.037 A 
ATOM     20  C   UNL     1       2.347   0.122  -0.091  0.00  0.00    +0.042 A 
ATOM     21  C   UNL     1       1.105  -0.486  -0.163  0.00  0.00    +0.124 A 
ATOM     22  C   UNL     1      -0.041   0.288  -0.237  0.00  0.00    +0.038 A 
ATOM     23  F   UNL     1       1.011  -1.834  -0.161  0.00  0.00    -0.205 F 
ENDBRANCH  16  19
ENDBRANCH   1  16
TORSDOF 4
