REMARK  Name = ZINC07386308
REMARK  8 active torsions:
REMARK  status: ('A' for Active; 'I' for Inactive)
REMARK    1  A    between atoms: C_1  and  C_2
REMARK    2  A    between atoms: N_4  and  C_5
REMARK    3  A    between atoms: C_8  and  S_13
REMARK    4  A    between atoms: C_10  and  O_11
REMARK    5  A    between atoms: O_11  and  C_12
REMARK    6  A    between atoms: S_13  and  N_16
REMARK    7  A    between atoms: N_16  and  N_17
REMARK    8  A    between atoms: C_18  and  C_20
REMARK                            x       y       z     vdW  Elec       q    Type
REMARK                         _______ _______ _______ _____ _____    ______ ____
ROOT
ATOM      1  S   UNL     1      -6.392  -0.964  -0.356  0.00  0.00    +0.074 S 
ATOM      2  O   UNL     1      -7.302  -0.065  -0.975  0.00  0.00    -0.152 OA
ATOM      3  O   UNL     1      -6.113  -2.252  -0.888  0.00  0.00    -0.152 OA
ENDROOT
BRANCH   1   7
ATOM      4  C   UNL     1      -2.420   1.199  -0.070  0.00  0.00    +0.076 A 
ATOM      5  C   UNL     1      -2.459  -0.187  -0.072  0.00  0.00    +0.029 A 
ATOM      6  C   UNL     1      -3.673  -0.843  -0.159  0.00  0.00    +0.030 A 
ATOM      7  C   UNL     1      -4.849  -0.121  -0.245  0.00  0.00    +0.110 A 
ATOM      8  C   UNL     1      -4.817   1.261  -0.244  0.00  0.00    +0.076 A 
ATOM      9  C   UNL     1      -3.605   1.927  -0.151  0.00  0.00    +0.143 A 
BRANCH   4  13
ATOM     10  C   UNL     1       1.201   2.110  -0.564  0.00  0.00    +0.109 C 
ATOM     11  C   UNL     1      -0.096   1.343  -0.568  0.00  0.00    +0.214 C 
ATOM     12  O   UNL     1      -0.155   0.255  -1.101  0.00  0.00    -0.276 OA
ATOM     13  N   UNL     1      -1.191   1.867   0.018  0.00  0.00    -0.283 N 
ATOM     14  H   UNL     1      -1.128   2.706   0.500  0.00  0.00    +0.155 HD
ENDBRANCH   4  13
BRANCH   9  15
ATOM     15  O   UNL     1      -3.572   3.286  -0.144  0.00  0.00    -0.493 OA
ATOM     16  C   UNL     1      -4.827   3.965  -0.230  0.00  0.00    +0.277 C 
ENDBRANCH   9  15
ENDBRANCH   1   7
BRANCH   1  17
ATOM     17  N   UNL     1      -6.935  -1.197   1.190  0.00  0.00    -0.108 NA
ATOM     18  H   UNL     1      -7.089  -2.096   1.520  0.00  0.00    +0.172 HD
BRANCH  17  19
ATOM     19  N   UNL     1      -7.172  -0.096   2.023  0.00  0.00    -0.228 N 
ATOM     20  C   UNL     1      -8.377   0.062   2.605  0.00  0.00    +0.260 C 
ATOM     21  O   UNL     1      -9.259  -0.751   2.407  0.00  0.00    -0.269 OA
ATOM     22  H   UNL     1      -6.468   0.553   2.181  0.00  0.00    +0.171 HD
BRANCH  20  23
ATOM     23  C   UNL     1      -8.627   1.224   3.484  0.00  0.00    +0.056 A 
ATOM     24  C   UNL     1      -7.614   2.157   3.718  0.00  0.00    +0.014 A 
ATOM     25  C   UNL     1      -7.856   3.241   4.534  0.00  0.00    +0.001 A 
ATOM     26  C   UNL     1      -9.095   3.402   5.130  0.00  0.00    +0.001 A 
ATOM     27  C   UNL     1     -10.101   2.480   4.909  0.00  0.00    +0.021 A 
ATOM     28  C   UNL     1      -9.875   1.391   4.088  0.00  0.00    +0.053 A 
ATOM     29 CL   UNL     1     -11.139   0.233   3.811  0.00  0.00    -0.083 Cl
ENDBRANCH  20  23
ENDBRANCH  17  19
ENDBRANCH   1  17
TORSDOF 6
