REMARK  Name = ZINC03168545
REMARK  5 active torsions:
REMARK  status: ('A' for Active; 'I' for Inactive)
REMARK    1  A    between atoms: C_1  and  C_2
REMARK    2  A    between atoms: C_7  and  N_8
REMARK    3  A    between atoms: C_9  and  C_11
REMARK    4  A    between atoms: N_13  and  N_14
REMARK    5  A    between atoms: C_15  and  C_16
REMARK                            x       y       z     vdW  Elec       q    Type
REMARK                         _______ _______ _______ _____ _____    ______ ____
ROOT
ATOM      1  C   UNL     1       3.615   5.989  -0.215  0.00  0.00    +0.318 C 
ATOM      2  O   UNL     1       4.674   5.394  -0.229  0.00  0.00    -0.263 OA
ATOM      3  N   UNL     1       3.597   7.333  -0.310  0.00  0.00    -0.199 N 
ATOM      4  H   UNL     1       2.751   7.808  -0.299  0.00  0.00    +0.178 HD
ENDROOT
BRANCH   1   6
ATOM      5  N   UNL     1       2.355   3.887   0.000  0.00  0.00    -0.277 N 
ATOM      6  C   UNL     1       2.336   5.232  -0.094  0.00  0.00    +0.305 C 
ATOM      7  O   UNL     1       1.278   5.826  -0.081  0.00  0.00    -0.265 OA
ATOM      8  H   UNL     1       3.201   3.418   0.070  0.00  0.00    +0.155 HD
BRANCH   5  15
ATOM      9  C   UNL     1       2.322   1.324   1.234  0.00  0.00    +0.045 C 
ATOM     10  C   UNL     1       1.095   1.914   0.588  0.00  0.00    -0.029 A 
ATOM     11  C   UNL     1      -0.092   1.207   0.584  0.00  0.00    +0.006 A 
ATOM     12  C   UNL     1      -1.217   1.745  -0.014  0.00  0.00    +0.020 A 
ATOM     13  C   UNL     1      -1.161   2.998  -0.599  0.00  0.00    +0.043 A 
ATOM     14  C   UNL     1       0.023   3.711  -0.598  0.00  0.00    +0.043 A 
ATOM     15  C   UNL     1       1.156   3.170  -0.003  0.00  0.00    +0.038 A 
ATOM     16 CL   UNL     1      -2.578   3.672  -1.342  0.00  0.00    -0.083 Cl
ENDBRANCH   5  15
ENDBRANCH   1   6
BRANCH   3  17
ATOM     17  N   UNL     1       4.798   8.044  -0.423  0.00  0.00    -0.187 NA
ATOM     18  C   UNL     1       4.780   9.339  -0.514  0.00  0.00    +0.138 C 
BRANCH  18  19
ATOM     19  C   UNL     1       6.045  10.088  -0.634  0.00  0.00    -0.004 A 
ATOM     20  C   UNL     1       6.029  11.482  -0.732  0.00  0.00    +0.009 A 
ATOM     21  C   UNL     1       7.216  12.176  -0.844  0.00  0.00    +0.002 A 
ATOM     22  C   UNL     1       8.421  11.495  -0.858  0.00  0.00    +0.020 A 
ATOM     23  C   UNL     1       8.445  10.114  -0.762  0.00  0.00    +0.042 A 
ATOM     24  C   UNL     1       7.265   9.407  -0.644  0.00  0.00    +0.029 A 
ATOM     25 CL   UNL     1       9.962   9.271  -0.781  0.00  0.00    -0.084 Cl
ENDBRANCH  18  19
ENDBRANCH   3  17
TORSDOF 4
