REMARK  Name = ZINC51052651
REMARK  10 active torsions:
REMARK  status: ('A' for Active; 'I' for Inactive)
REMARK    1  A    between atoms: C_1  and  C_2
REMARK    2  A    between atoms: C_2  and  C_3
REMARK    3  A    between atoms: C_3  and  C_4
REMARK    4  A    between atoms: C_4  and  C_6
REMARK    5  A    between atoms: C_4  and  N_7
REMARK    6  A    between atoms: C_8  and  C_10
REMARK    7  A    between atoms: N_15  and  C_17
REMARK    8  A    between atoms: C_17  and  C_18
REMARK    9  A    between atoms: N_20  and  C_21
REMARK   10  A    between atoms: C_26  and  C_27
REMARK                            x       y       z     vdW  Elec       q    Type
REMARK                         _______ _______ _______ _____ _____    ______ ____
ROOT
ATOM      1  C   UNL     1       2.168  -4.239   1.515  0.00  0.00    +0.058 C 
ATOM      2  C   UNL     1       1.971  -3.307   2.714  0.00  0.00    +0.009 C 
ATOM      3  C   UNL     1       2.749  -3.860   3.911  0.00  0.00    -0.018 C 
ATOM      4  C   UNL     1       2.279  -5.287   4.202  0.00  0.00    -0.078 C 
ATOM      5  N   UNL     1       2.518  -6.134   3.028  0.00  0.00    +0.386 N 
ATOM      6  C   UNL     1       1.720  -5.652   1.894  0.00  0.00    -0.065 C 
ATOM      7  H   UNL     1       3.497  -6.103   2.785  0.00  0.00    -0.081 HD
ENDROOT
BRANCH   1   9
ATOM      8  N   UNL     1       1.563  -2.515  -0.154  0.00  0.00    -0.313 N 
ATOM      9  C   UNL     1       1.344  -3.745   0.353  0.00  0.00    +0.215 C 
ATOM     10  O   UNL     1       0.485  -4.454  -0.126  0.00  0.00    -0.276 OA
ATOM     11  H   UNL     1       2.251  -1.948   0.229  0.00  0.00    +0.149 HD
BRANCH   8  12
ATOM     12  C   UNL     1       0.763  -2.036  -1.283  0.00  0.00    +0.070 C 
ATOM     13  C   UNL     1       1.383  -2.526  -2.593  0.00  0.00    +0.028 C 
BRANCH  12  14
ATOM     14  C   UNL     1       0.733  -0.506  -1.274  0.00  0.00    +0.022 C 
BRANCH  14  16
ATOM     15  C   UNL     1      -0.029   1.512  -0.013  0.00  0.00    +0.004 C 
ATOM     16  C   UNL     1       0.001  -0.018  -0.022  0.00  0.00    -0.002 C 
ENDBRANCH  14  16
ENDBRANCH  12  14
ENDBRANCH   8  12
ENDBRANCH   1   9
BRANCH   5  17
ATOM     17  C   UNL     1       2.138  -7.518   3.339  0.00  0.00    +0.019 C 
BRANCH  17  18
ATOM     18  C   UNL     1       3.046  -8.059   4.413  0.00  0.00    +0.201 C 
ATOM     19  O   UNL     1       3.924  -7.361   4.874  0.00  0.00    -0.278 OA
ATOM     20  N   UNL     1       2.883  -9.320   4.862  0.00  0.00    -0.286 N 
ATOM     21  H   UNL     1       2.133  -9.851   4.553  0.00  0.00    +0.155 HD
BRANCH  20  22
ATOM     22  C   UNL     1       3.791  -9.859   5.769  0.00  0.00    +0.045 A 
ATOM     23  C   UNL     1       5.091  -9.374   5.827  0.00  0.00    +0.024 A 
ATOM     24  C   UNL     1       5.990  -9.910   6.727  0.00  0.00    +0.002 A 
ATOM     25  C   UNL     1       5.604 -10.934   7.578  0.00  0.00    +0.001 A 
ATOM     26  C   UNL     1       4.318 -11.427   7.535  0.00  0.00    +0.015 A 
ATOM     27  C   UNL     1       3.396 -10.891   6.634  0.00  0.00    +0.058 A 
BRANCH  27  28
ATOM     28  C   UNL     1       2.016 -11.411   6.587  0.00  0.00    +0.243 C 
ATOM     29  O   UNL     1       1.244 -11.008   5.738  0.00  0.00    -0.270 OA
ATOM     30  N   UNL     1       1.612 -12.331   7.484  0.00  0.00    -0.325 N 
ATOM     31  H   UNL     1       2.228 -12.652   8.161  0.00  0.00    +0.145 HD
ATOM     32  H   UNL     1       0.704 -12.672   7.453  0.00  0.00    +0.145 HD
ENDBRANCH  27  28
ENDBRANCH  20  22
ENDBRANCH  17  18
ENDBRANCH   5  17
TORSDOF 8
