REMARK  Name = ZINC40529409
REMARK  6 active torsions:
REMARK  status: ('A' for Active; 'I' for Inactive)
REMARK    1  A    between atoms: C_1  and  C_2
REMARK    2  A    between atoms: C_2  and  C_3
REMARK    3  A    between atoms: C_2  and  C_4
REMARK    4  A    between atoms: C_4  and  N_5
REMARK    5  A    between atoms: C_11  and  N_14
REMARK    6  A    between atoms: C_18  and  C_20
REMARK                            x       y       z     vdW  Elec       q    Type
REMARK                         _______ _______ _______ _____ _____    ______ ____
ROOT
ATOM      1  N   UNL     1      -3.749  -2.028  -0.025  0.00  0.00    -0.299 N 
ATOM      2  C   UNL     1      -2.575  -2.682  -0.130  0.00  0.00    +0.302 C 
ATOM      3  O   UNL     1      -1.535  -2.056  -0.209  0.00  0.00    -0.253 OA
ATOM      4  N   UNL     1      -2.553  -4.029  -0.146  0.00  0.00    -0.286 N 
ATOM      5  C   UNL     1      -1.277  -4.757  -0.143  0.00  0.00    +0.108 C 
ATOM      6  C   UNL     1      -1.287  -5.764   1.012  0.00  0.00    +0.004 C 
ATOM      7  C   UNL     1      -2.521  -6.660   0.892  0.00  0.00    -0.065 C 
ATOM      8  C   UNL     1      -3.786  -5.804   0.987  0.00  0.00    +0.004 C 
ATOM      9  C   UNL     1      -3.805  -4.798  -0.162  0.00  0.00    +0.108 C 
ATOM     10  H   UNL     1      -4.582  -2.523  -0.036  0.00  0.00    +0.150 HD
ENDROOT
BRANCH   7  11
ATOM     11  N   UNL     1      -2.516  -7.648   1.980  0.00  0.00    +0.391 N 
ATOM     12  C   UNL     1      -1.307  -8.492   1.879  0.00  0.00    -0.077 C 
ATOM     13  C   UNL     1      -1.772  -9.903   2.319  0.00  0.00    -0.020 C 
ATOM     14  C   UNL     1      -3.200  -9.964   1.716  0.00  0.00    -0.006 C 
ATOM     15  C   UNL     1      -3.704  -8.514   1.869  0.00  0.00    +0.047 C 
ATOM     16  H   UNL     1      -2.524  -7.173   2.870  0.00  0.00    -0.080 HD
BRANCH  15  17
ATOM     17  C   UNL     1      -4.546  -8.392   3.113  0.00  0.00    +0.343 C 
ATOM     18  O   UNL     1      -5.661  -8.884   3.145  0.00  0.00    -0.248 OA
ATOM     19  O   UNL     1      -4.112  -7.800   4.086  0.00  0.00    -0.248 OA
ENDBRANCH  15  17
ENDBRANCH   7  11
BRANCH   1  20
ATOM     20  C   UNL     1      -3.765  -0.569   0.105  0.00  0.00    +0.108 C 
BRANCH  20  22
ATOM     21  C   UNL     1      -5.227   1.425   0.466  0.00  0.00    +0.009 C 
ATOM     22  C   UNL     1      -5.213  -0.082   0.206  0.00  0.00    -0.000 C 
ATOM     23  C   UNL     1      -5.943  -0.380  -1.105  0.00  0.00    +0.009 C 
ENDBRANCH  20  22
ENDBRANCH   1  20
TORSDOF 4
