REMARK  Name = ZINC38688781
REMARK  3 active torsions:
REMARK  status: ('A' for Active; 'I' for Inactive)
REMARK    1  A    between atoms: C_7  and  C_10
REMARK    2  A    between atoms: N_16  and  C_17
REMARK    3  A    between atoms: C_21  and  C_23
REMARK                            x       y       z     vdW  Elec       q    Type
REMARK                         _______ _______ _______ _____ _____    ______ ____
ROOT
ATOM      1  C   UNL     1       0.682  -3.125  -0.021  0.00  0.00    +0.026 C 
ATOM      2  C   UNL     1       1.173  -4.418  -0.033  0.00  0.00    +0.078 C 
ATOM      3  C   UNL     1       0.436  -5.705  -0.038  0.00  0.00    +0.256 C 
ATOM      4  O   UNL     1      -0.779  -5.744  -0.034  0.00  0.00    -0.269 OA
ATOM      5  N   UNL     1       1.165  -6.808  -0.049  0.00  0.00    -0.260 N 
ATOM      6  C   UNL     1       2.541  -6.743  -0.054  0.00  0.00    +0.166 C 
ATOM      7  N   UNL     1       3.404  -7.732  -0.064  0.00  0.00    -0.226 NA
ATOM      8  S   UNL     1       2.867  -4.987  -0.052  0.00  0.00    -0.049 S 
ATOM      9  H   UNL     1       0.726  -7.673  -0.053  0.00  0.00    +0.157 HD
ENDROOT
BRANCH   1  16
ATOM     10  C   UNL     1      -0.016   1.353   0.009  0.00  0.00    +0.001 A 
ATOM     11  C   UNL     1       1.164   2.102   0.002  0.00  0.00    +0.002 A 
ATOM     12  C   UNL     1       2.384   1.514  -0.013  0.00  0.00    +0.026 A 
ATOM     13  C   UNL     1       2.484   0.096  -0.021  0.00  0.00    +0.043 A 
ATOM     14  N   UNL     1       3.529  -0.703  -0.035  0.00  0.00    -0.380 N 
ATOM     15  C   UNL     1       3.076  -2.097  -0.039  0.00  0.00    +0.149 C 
ATOM     16  C   UNL     1       1.564  -2.045  -0.024  0.00  0.00    -0.018 C 
ATOM     17  C   UNL     1       1.236  -0.687  -0.013  0.00  0.00    +0.003 A 
ATOM     18  C   UNL     1       0.002  -0.004   0.002  0.00  0.00    +0.010 A 
ATOM     19  H   UNL     1       4.456  -0.414  -0.043  0.00  0.00    +0.160 HD
ENDBRANCH   1  16
BRANCH   7  20
ATOM     20  C   UNL     1       2.961  -9.025  -0.071  0.00  0.00    +0.067 A 
ATOM     21  C   UNL     1       1.925  -9.417   0.781  0.00  0.00    +0.029 A 
ATOM     22  C   UNL     1       1.483 -10.723   0.768  0.00  0.00    +0.022 A 
ATOM     23  C   UNL     1       2.065 -11.646  -0.085  0.00  0.00    +0.053 A 
ATOM     24  C   UNL     1       3.092 -11.265  -0.932  0.00  0.00    +0.075 A 
ATOM     25  C   UNL     1       3.539  -9.960  -0.934  0.00  0.00    +0.041 A 
ATOM     26 CL   UNL     1       1.503 -13.289  -0.093  0.00  0.00    -0.083 Cl
BRANCH  24  27
ATOM     27  C   UNL     1       3.718 -12.276  -1.857  0.00  0.00    +0.419 C 
ATOM     28  F   UNL     1       4.726 -11.660  -2.608  0.00  0.00    -0.166 F 
ATOM     29  F   UNL     1       4.269 -13.319  -1.105  0.00  0.00    -0.166 F 
ATOM     30  F   UNL     1       2.742 -12.788  -2.718  0.00  0.00    -0.166 F 
ENDBRANCH  24  27
ENDBRANCH   7  20
TORSDOF 3
