REMARK  Name = ZINC02393924
REMARK  6 active torsions:
REMARK  status: ('A' for Active; 'I' for Inactive)
REMARK    1  A    between atoms: C_5  and  N_7
REMARK    2  A    between atoms: C_8  and  C_10
REMARK    3  A    between atoms: C_10  and  S_11
REMARK    4  A    between atoms: S_11  and  C_12
REMARK    5  A    between atoms: C_15  and  C_18
REMARK    6  A    between atoms: N_16  and  N_17
REMARK                            x       y       z     vdW  Elec       q    Type
REMARK                         _______ _______ _______ _____ _____    ______ ____
ROOT
ATOM      1  C   UNL     1       1.677   2.222  -0.156  0.00  0.00    +0.209 A 
ATOM      2  N   UNL     1       2.591   1.297   0.027  0.00  0.00    -0.121 NA
ATOM      3  N   UNL     1       3.759   1.833   0.072  0.00  0.00    -0.127 NA
ATOM      4  C   UNL     1       3.660   3.134  -0.071  0.00  0.00    +0.182 A 
ATOM      5  N   UNL     1       2.323   3.424  -0.221  0.00  0.00    -0.224 N 
ENDROOT
BRANCH   4   6
ATOM      6  C   UNL     1       4.775   4.105  -0.070  0.00  0.00    +0.021 A 
ATOM      7  C   UNL     1       6.086   3.666  -0.260  0.00  0.00    +0.014 A 
ATOM      8  C   UNL     1       7.122   4.577  -0.262  0.00  0.00    +0.039 A 
ATOM      9  C   UNL     1       6.863   5.925  -0.067  0.00  0.00    +0.123 A 
ATOM     10  C   UNL     1       5.564   6.365   0.128  0.00  0.00    +0.039 A 
ATOM     11  C   UNL     1       4.520   5.463   0.127  0.00  0.00    +0.014 A 
ATOM     12  F   UNL     1       7.882   6.812  -0.065  0.00  0.00    -0.205 F 
ENDBRANCH   4   6
BRANCH   5  13
ATOM     13  N   UNL     1       1.761   4.656  -0.399  0.00  0.00    -0.295 N 
ATOM     14  H   UNL     1       1.611   5.116   0.487  0.00  0.00    +0.163 HD
ATOM     15  H   UNL     1       2.324   5.225  -1.012  0.00  0.00    +0.163 HD
ENDBRANCH   5  13
BRANCH   1  16
ATOM     16  S   UNL     1      -0.061   1.963  -0.285  0.00  0.00    -0.075 S 
BRANCH  16  17
ATOM     17  C   UNL     1      -0.124   0.163  -0.106  0.00  0.00    +0.173 C 
BRANCH  17  19
ATOM     18  N   UNL     1      -1.848  -1.612  -0.078  0.00  0.00    -0.284 N 
ATOM     19  C   UNL     1      -1.556  -0.300  -0.187  0.00  0.00    +0.228 C 
ATOM     20  O   UNL     1      -2.446   0.507  -0.350  0.00  0.00    -0.275 OA
ATOM     21  H   UNL     1      -1.132  -2.264  -0.021  0.00  0.00    +0.155 HD
BRANCH  18  26
ATOM     22  C   UNL     1      -5.459  -1.768  -0.754  0.00  0.00    +0.002 A 
ATOM     23  C   UNL     1      -5.822  -2.862   0.010  0.00  0.00    +0.001 A 
ATOM     24  C   UNL     1      -4.869  -3.543   0.745  0.00  0.00    +0.017 A 
ATOM     25  C   UNL     1      -3.550  -3.131   0.718  0.00  0.00    +0.039 A 
ATOM     26  C   UNL     1      -3.182  -2.032  -0.049  0.00  0.00    +0.047 A 
ATOM     27  C   UNL     1      -4.143  -1.348  -0.782  0.00  0.00    +0.024 A 
ATOM     28 BR   UNL     1      -2.246  -4.061   1.724  0.00  0.00    -0.048 Br
ENDBRANCH  18  26
ENDBRANCH  17  19
ENDBRANCH  16  17
ENDBRANCH   1  16
TORSDOF 6
