REMARK  Name = ZINC37011173
REMARK  9 active torsions:
REMARK  status: ('A' for Active; 'I' for Inactive)
REMARK    1  A    between atoms: C_1  and  C_2
REMARK    2  A    between atoms: C_4  and  S_20
REMARK    3  A    between atoms: C_6  and  C_17
REMARK    4  A    between atoms: C_7  and  N_8
REMARK    5  A    between atoms: C_9  and  C_11
REMARK    6  A    between atoms: C_14  and  C_16
REMARK    7  A    between atoms: C_17  and  C_18
REMARK    8  A    between atoms: C_17  and  C_19
REMARK    9  A    between atoms: S_20  and  N_23
REMARK                            x       y       z     vdW  Elec       q    Type
REMARK                         _______ _______ _______ _____ _____    ______ ____
ROOT
ATOM      1  C   UNL     1      -2.041   0.472   0.769  0.00  0.00    +0.046 C 
ATOM      2  C   UNL     1      -0.961  -0.498   0.365  0.00  0.00    -0.027 A 
ATOM      3  C   UNL     1      -1.057  -1.180  -0.832  0.00  0.00    +0.033 A 
ATOM      4  C   UNL     1      -0.067  -2.071  -1.203  0.00  0.00    +0.106 A 
ATOM      5  C   UNL     1       1.022  -2.283  -0.377  0.00  0.00    +0.034 A 
ATOM      6  C   UNL     1       1.124  -1.604   0.821  0.00  0.00    -0.021 A 
ATOM      7  C   UNL     1       0.133  -0.705   1.195  0.00  0.00    +0.040 A 
ENDROOT
BRANCH   7   8
ATOM      8  N   UNL     1       0.235  -0.012   2.406  0.00  0.00    -0.285 N 
ATOM      9  C   UNL     1       0.420   1.323   2.405  0.00  0.00    +0.221 C 
ATOM     10  O   UNL     1       0.402   1.937   1.359  0.00  0.00    -0.275 OA
ATOM     11  H   UNL     1       0.173  -0.492   3.246  0.00  0.00    +0.155 HD
BRANCH   9  12
ATOM     12  C   UNL     1       0.649   2.053   3.703  0.00  0.00    +0.078 C 
ATOM     13  C   UNL     1      -0.456   2.993   4.189  0.00  0.00    +0.017 C 
ATOM     14  C   UNL     1       0.850   3.568   3.636  0.00  0.00    -0.002 C 
ATOM     15  C   UNL     1       1.824   4.197   4.634  0.00  0.00    +0.008 C 
ENDBRANCH   9  12
ENDBRANCH   7   8
BRANCH   6  16
ATOM     16  C   UNL     1       2.310  -1.836   1.721  0.00  0.00    +0.015 C 
ATOM     17  C   UNL     1       2.363  -3.310   2.126  0.00  0.00    +0.012 C 
ATOM     18  C   UNL     1       3.595  -1.465   0.977  0.00  0.00    +0.012 C 
ENDBRANCH   6  16
BRANCH   4  19
ATOM     19  S   UNL     1      -0.193  -2.939  -2.731  0.00  0.00    +0.056 S 
ATOM     20  O   UNL     1       0.587  -4.119  -2.594  0.00  0.00    -0.153 OA
ATOM     21  O   UNL     1      -1.573  -2.973  -3.067  0.00  0.00    -0.153 OA
BRANCH  19  22
ATOM     22  N   UNL     1       0.551  -2.011  -3.884  0.00  0.00    -0.204 NA
ATOM     23  H   UNL     1       0.949  -1.161  -3.640  0.00  0.00    +0.144 HD
ATOM     24  H   UNL     1       0.590  -2.319  -4.803  0.00  0.00    +0.144 HD
ENDBRANCH  19  22
ENDBRANCH   4  19
TORSDOF 5
