REMARK  Name = ZINC67611145
REMARK  9 active torsions:
REMARK  status: ('A' for Active; 'I' for Inactive)
REMARK    1  A    between atoms: C_1  and  C_2
REMARK    2  A    between atoms: C_2  and  C_3
REMARK    3  A    between atoms: C_2  and  N_4
REMARK    4  A    between atoms: N_4  and  C_5
REMARK    5  A    between atoms: N_4  and  S_6
REMARK    6  A    between atoms: S_6  and  C_9
REMARK    7  A    between atoms: C_12  and  C_15
REMARK    8  A    between atoms: C_15  and  N_16
REMARK    9  A    between atoms: C_22  and  C_25
REMARK                            x       y       z     vdW  Elec       q    Type
REMARK                         _______ _______ _______ _____ _____    ______ ____
ROOT
ATOM      1  C   UNL     1       0.787  -7.170   0.535  0.00  0.00    +0.141 C 
ENDROOT
BRANCH   1   2
ATOM      2  N   UNL     1       1.604  -7.192  -0.681  0.00  0.00    -0.295 N 
ATOM      3  C   UNL     1       1.925  -8.368  -1.255  0.00  0.00    +0.302 C 
ATOM      4  O   UNL     1       1.537  -9.410  -0.765  0.00  0.00    -0.253 OA
ATOM      5  N   UNL     1       2.677  -8.388  -2.374  0.00  0.00    -0.285 N 
ATOM      6  C   UNL     1       3.216  -7.208  -3.066  0.00  0.00    +0.110 C 
ATOM      7  C   UNL     1       4.031  -7.718  -4.273  0.00  0.00    +0.033 C 
ATOM      8  C   UNL     1       4.376  -9.176  -3.870  0.00  0.00    +0.094 C 
ATOM      9  C   UNL     1       3.100  -9.598  -3.103  0.00  0.00    +0.122 C 
ATOM     10  H   UNL     1       1.914  -6.360  -1.072  0.00  0.00    +0.151 HD
BRANCH   8  11
ATOM     11  C   UNL     1       4.588 -10.038  -5.088  0.00  0.00    +0.215 C 
ATOM     12  O   UNL     1       4.480  -9.558  -6.196  0.00  0.00    -0.276 OA
ATOM     13  N   UNL     1       4.897 -11.342  -4.945  0.00  0.00    -0.329 N 
ATOM     14  H   UNL     1       4.983 -11.725  -4.058  0.00  0.00    +0.145 HD
ATOM     15  H   UNL     1       5.033 -11.896  -5.729  0.00  0.00    +0.145 HD
ENDBRANCH   8  11
ENDBRANCH   1   2
BRANCH   1  19
ATOM     16  C   UNL     1       0.180  -3.126   1.771  0.00  0.00    +0.105 A 
ATOM     17  C   UNL     1      -0.713  -3.725   0.903  0.00  0.00    +0.029 A 
ATOM     18  C   UNL     1      -0.517  -5.033   0.502  0.00  0.00    +0.007 A 
ATOM     19  C   UNL     1       0.573  -5.743   0.971  0.00  0.00    -0.030 A 
ATOM     20  C   UNL     1       1.467  -5.144   1.838  0.00  0.00    +0.007 A 
ATOM     21  C   UNL     1       1.273  -3.834   2.235  0.00  0.00    +0.029 A 
BRANCH  16  22
ATOM     22  S   UNL     1      -0.071  -1.458   2.281  0.00  0.00    +0.061 S 
ATOM     23  O   UNL     1       0.610  -1.305   3.519  0.00  0.00    -0.153 OA
ATOM     24  O   UNL     1      -1.460  -1.194   2.138  0.00  0.00    -0.153 OA
BRANCH  22  25
ATOM     25  N   UNL     1       0.711  -0.489   1.189  0.00  0.00    -0.177 NA
ATOM     26  C   UNL     1       2.110  -0.118   1.409  0.00  0.00    +0.132 C 
BRANCH  25  28
ATOM     27  C   UNL     1      -0.019   1.526   0.010  0.00  0.00    +0.025 C 
ATOM     28  C   UNL     1       0.002  -0.004   0.002  0.00  0.00    +0.073 C 
ATOM     29  C   UNL     1       0.718  -0.497  -1.257  0.00  0.00    +0.025 C 
ENDBRANCH  25  28
ENDBRANCH  22  25
ENDBRANCH  16  22
ENDBRANCH   1  19
TORSDOF 6
