REMARK  Name = ZINC39559744
REMARK  9 active torsions:
REMARK  status: ('A' for Active; 'I' for Inactive)
REMARK    1  A    between atoms: C_1  and  C_2
REMARK    2  A    between atoms: C_7  and  C_33
REMARK    3  A    between atoms: C_8  and  C_10
REMARK    4  A    between atoms: C_10  and  C_11
REMARK    5  A    between atoms: C_12  and  O_25
REMARK    6  A    between atoms: C_14  and  O_24
REMARK    7  A    between atoms: C_18  and  O_23
REMARK    8  A    between atoms: C_30  and  C_31
REMARK    9  A    between atoms: C_30  and  C_32
REMARK                            x       y       z     vdW  Elec       q    Type
REMARK                         _______ _______ _______ _____ _____    ______ ____
ROOT
ATOM      1  C   UNL     1      -1.836  -0.074  -0.241  0.00  0.00    +0.039 C 
ATOM      2  C   UNL     1      -0.775  -1.031   0.227  0.00  0.00    -0.073 C 
ATOM      3  C   UNL     1      -0.407  -1.990  -0.556  0.00  0.00    -0.027 C 
ATOM      4  C   UNL     1       0.617  -3.024  -0.211  0.00  0.00    +0.032 C 
ATOM      5  C   UNL     1       1.354  -2.744   1.106  0.00  0.00    +0.012 C 
ATOM      6  C   UNL     1       0.374  -2.161   2.124  0.00  0.00    -0.021 C 
ATOM      7  C   UNL     1      -0.164  -0.830   1.577  0.00  0.00    +0.023 C 
ATOM      8  C   UNL     1      -0.765  -3.146   2.368  0.00  0.00    +0.015 C 
ATOM      9  C   UNL     1      -0.209  -4.433   2.987  0.00  0.00    +0.075 C 
ATOM     10  C   UNL     1       0.902  -4.976   2.127  0.00  0.00    +0.139 C 
ATOM     11  O   UNL     1       0.942  -6.166   1.881  0.00  0.00    -0.297 OA
ATOM     12  C   UNL     1       1.968  -4.068   1.567  0.00  0.00    +0.027 C 
ATOM     13  C   UNL     1       3.099  -3.871   2.577  0.00  0.00    +0.019 C 
ATOM     14  C   UNL     1       2.595  -4.782   0.347  0.00  0.00    +0.019 C 
ATOM     15  C   UNL     1       1.050  -1.820   3.458  0.00  0.00    +0.012 C 
ENDROOT
BRANCH   7  16
ATOM     16  C   UNL     1      -1.184  -0.228   2.538  0.00  0.00    +0.049 C 
BRANCH  16  17
ATOM     17  C   UNL     1      -0.897   1.264   2.717  0.00  0.00    +0.128 C 
ATOM     18  C   UNL     1      -0.495   1.976   1.448  0.00  0.00    +0.182 C 
ATOM     19  C   UNL     1      -0.496   3.486   1.573  0.00  0.00    +0.174 C 
ATOM     20  C   UNL     1      -1.675   3.984   2.348  0.00  0.00    -0.015 C 
ATOM     21  C   UNL     1      -2.438   4.910   1.821  0.00  0.00    +0.013 C 
ATOM     22  C   UNL     1      -2.008   3.452   3.709  0.00  0.00    +0.174 C 
ATOM     23  C   UNL     1      -1.719   1.957   3.788  0.00  0.00    +0.186 C 
ATOM     24  O   UNL     1      -0.330   1.626   3.965  0.00  0.00    -0.359 OA
BRANCH  22  25
ATOM     25  O   UNL     1      -1.221   4.136   4.686  0.00  0.00    -0.385 OA
ATOM     26  H   UNL     1      -1.364   5.092   4.708  0.00  0.00    +0.210 HD
ENDBRANCH  22  25
BRANCH  19  27
ATOM     27  O   UNL     1       0.701   3.898   2.237  0.00  0.00    -0.385 OA
ATOM     28  H   UNL     1       0.776   4.855   2.355  0.00  0.00    +0.210 HD
ENDBRANCH  19  27
BRANCH  18  29
ATOM     29  O   UNL     1       0.819   1.550   1.081  0.00  0.00    -0.386 OA
ATOM     30  H   UNL     1       1.182   2.013   0.314  0.00  0.00    +0.210 HD
ENDBRANCH  18  29
ENDBRANCH  16  17
ENDBRANCH   7  16
TORSDOF 5
