REMARK  Name = ZINC16952740
REMARK  5 active torsions:
REMARK  status: ('A' for Active; 'I' for Inactive)
REMARK    1  A    between atoms: C_4  and  S_7
REMARK    2  A    between atoms: S_7  and  C_8
REMARK    3  A    between atoms: C_10  and  O_20
REMARK    4  A    between atoms: C_12  and  O_19
REMARK    5  A    between atoms: C_14  and  O_18
REMARK                            x       y       z     vdW  Elec       q    Type
REMARK                         _______ _______ _______ _____ _____    ______ ____
ROOT
ATOM      1  C   UNL     1      -0.013   1.086   0.008  0.00  0.00    +0.214 C 
ATOM      2  C   UNL     1       1.423   1.616  -0.003  0.00  0.00    +0.185 C 
ATOM      3  C   UNL     1       2.115   1.168  -1.294  0.00  0.00    +0.177 C 
ATOM      4  C   UNL     1       1.303   1.664  -2.494  0.00  0.00    +0.171 C 
ATOM      5  C   UNL     1      -0.128   1.132  -2.387  0.00  0.00    +0.195 C 
ATOM      6  O   UNL     1      -0.703   1.559  -1.150  0.00  0.00    -0.360 OA
ENDROOT
BRANCH   4   7
ATOM      7  O   UNL     1       1.900   1.190  -3.703  0.00  0.00    -0.387 OA
ATOM      8  H   UNL     1       1.436   1.467  -4.505  0.00  0.00    +0.210 HD
ENDBRANCH   4   7
BRANCH   3   9
ATOM      9  O   UNL     1       3.432   1.719  -1.347  0.00  0.00    -0.386 OA
ATOM     10  H   UNL     1       3.929   1.476  -2.140  0.00  0.00    +0.210 HD
ENDBRANCH   3   9
BRANCH   2  11
ATOM     11  O   UNL     1       2.133   1.097   1.124  0.00  0.00    -0.386 OA
ATOM     12  H   UNL     1       1.746   1.338   1.977  0.00  0.00    +0.210 HD
ENDBRANCH   2  11
BRANCH   1  13
ATOM     13  S   UNL     1      -0.861   1.670   1.497  0.00  0.00    -0.054 S 
BRANCH  13  17
ATOM     14  C   UNL     1      -4.297  -0.174   1.869  0.00  0.00    +0.104 A 
ATOM     15  C   UNL     1      -3.820  -0.720   0.737  0.00  0.00    +0.131 A 
ATOM     16  N   UNL     1      -2.623  -0.170   0.474  0.00  0.00    -0.230 NA
ATOM     17  C   UNL     1      -2.330   0.701   1.412  0.00  0.00    +0.169 A 
ATOM     18  N   UNL     1      -3.356   0.732   2.305  0.00  0.00    -0.339 N 
ATOM     19  H   UNL     1      -3.416   1.303   3.124  0.00  0.00    +0.167 HD
ENDBRANCH  13  17
ENDBRANCH   1  13
TORSDOF 5
