REMARK  Name = ZINC63383561
REMARK  9 active torsions:
REMARK  status: ('A' for Active; 'I' for Inactive)
REMARK    1  A    between atoms: C_1  and  C_2
REMARK    2  A    between atoms: C_2  and  C_3
REMARK    3  A    between atoms: C_2  and  C_4
REMARK    4  A    between atoms: C_4  and  C_5
REMARK    5  A    between atoms: C_5  and  C_7
REMARK    6  A    between atoms: C_5  and  N_17
REMARK    7  A    between atoms: N_9  and  C_10
REMARK    8  A    between atoms: C_10  and  C_11
REMARK    9  A    between atoms: C_18  and  C_20
REMARK                            x       y       z     vdW  Elec       q    Type
REMARK                         _______ _______ _______ _____ _____    ______ ____
ROOT
ATOM      1  C   UNL     1      -1.961   3.155   1.699  0.00  0.00    +0.167 C 
ATOM      2  C   UNL     1      -2.136   3.736   3.115  0.00  0.00    +0.065 C 
ATOM      3  C   UNL     1      -3.451   3.224   3.648  0.00  0.00    -0.034 C 
ATOM      4  C   UNL     1      -3.743   2.595   4.781  0.00  0.00    -0.001 A 
ATOM      5  C   UNL     1      -2.920   2.260   5.955  0.00  0.00    +0.010 A 
ATOM      6  C   UNL     1      -3.546   1.580   6.952  0.00  0.00    +0.001 A 
ATOM      7  C   UNL     1      -4.892   1.206   6.901  0.00  0.00    +0.002 A 
ATOM      8  C   UNL     1      -5.726   1.480   5.866  0.00  0.00    +0.026 A 
ATOM      9  C   UNL     1      -5.184   2.197   4.760  0.00  0.00    +0.043 A 
ATOM     10  N   UNL     1      -5.750   2.604   3.663  0.00  0.00    -0.375 N 
ATOM     11  C   UNL     1      -4.763   3.351   2.881  0.00  0.00    +0.131 C 
ATOM     12  C   UNL     1      -4.527   2.710   1.509  0.00  0.00    +0.134 C 
ATOM     13  N   UNL     1      -3.245   3.248   0.991  0.00  0.00    -0.276 N 
ATOM     14  C   UNL     1      -3.465   3.832  -0.200  0.00  0.00    +0.248 C 
ATOM     15  O   UNL     1      -2.602   4.302  -0.915  0.00  0.00    -0.270 OA
ATOM     16  C   UNL     1      -4.896   3.820  -0.511  0.00  0.00    +0.042 A 
ATOM     17  C   UNL     1      -5.582   3.128   0.537  0.00  0.00    -0.013 A 
ATOM     18  C   UNL     1      -6.947   2.951   0.532  0.00  0.00    +0.006 A 
ATOM     19  C   UNL     1      -7.649   3.473  -0.550  0.00  0.00    +0.000 A 
ATOM     20  C   UNL     1      -7.011   4.139  -1.577  0.00  0.00    +0.001 A 
ATOM     21  C   UNL     1      -5.598   4.345  -1.599  0.00  0.00    +0.013 A 
ATOM     22  H   UNL     1      -6.671   2.440   3.405  0.00  0.00    +0.160 HD
ENDROOT
BRANCH   1  24
ATOM     23  N   UNL     1      -0.387   1.386   2.413  0.00  0.00    -0.302 N 
ATOM     24  C   UNL     1      -1.538   1.711   1.793  0.00  0.00    +0.235 C 
ATOM     25  O   UNL     1      -2.233   0.843   1.310  0.00  0.00    -0.274 OA
ATOM     26  H   UNL     1       0.133   2.071   2.862  0.00  0.00    +0.150 HD
BRANCH  23  27
ATOM     27  C   UNL     1       0.080  -0.003   2.410  0.00  0.00    +0.159 C 
BRANCH  27  28
ATOM     28  C   UNL     1       0.899  -0.261   3.648  0.00  0.00    +0.233 C 
ATOM     29  O   UNL     1       1.370   0.669   4.268  0.00  0.00    -0.274 OA
ATOM     30  N   UNL     1       1.107  -1.525   4.067  0.00  0.00    -0.311 N 
ATOM     31  H   UNL     1       0.791  -2.271   3.534  0.00  0.00    +0.149 HD
BRANCH  30  32
ATOM     32  C   UNL     1       1.812  -1.772   5.327  0.00  0.00    +0.135 C 
BRANCH  32  33
ATOM     33  C   UNL     1       1.915  -3.280   5.567  0.00  0.00    +0.135 C 
ATOM     34  C   UNL     1       2.548  -3.549   6.949  0.00  0.00    +0.035 C 
ATOM     35  C   UNL     1       3.463  -4.769   6.661  0.00  0.00    +0.031 C 
ATOM     36  C   UNL     1       3.913  -4.463   5.210  0.00  0.00    +0.160 C 
ATOM     37  O   UNL     1       2.764  -3.872   4.577  0.00  0.00    -0.375 OA
ENDBRANCH  32  33
ENDBRANCH  30  32
ENDBRANCH  27  28
BRANCH  27  38
ATOM     38  C   UNL     1       0.941  -0.249   1.169  0.00  0.00    +0.034 C 
BRANCH  38  40
ATOM     39  C   UNL     1       0.062  -2.565   0.844  0.00  0.00    +0.007 C 
ATOM     40  C   UNL     1       1.319  -1.729   1.095  0.00  0.00    -0.015 C 
ATOM     41  C   UNL     1       2.312  -1.946  -0.048  0.00  0.00    +0.007 C 
ENDBRANCH  38  40
ENDBRANCH  27  38
ENDBRANCH  23  27
ENDBRANCH   1  24
TORSDOF 7
