REMARK  Name = ZINC62945213
REMARK  5 active torsions:
REMARK  status: ('A' for Active; 'I' for Inactive)
REMARK    1  A    between atoms: N_10  and  C_12
REMARK    2  A    between atoms: C_12  and  C_13
REMARK    3  A    between atoms: C_13  and  C_14
REMARK    4  A    between atoms: C_14  and  C_16
REMARK    5  A    between atoms: C_14  and  N_19
REMARK                            x       y       z     vdW  Elec       q    Type
REMARK                         _______ _______ _______ _____ _____    ______ ____
ROOT
ATOM      1  C   UNL     1       0.406   2.264  -0.514  0.00  0.00    +0.000 A 
ATOM      2  C   UNL     1       1.687   2.784  -0.495  0.00  0.00    +0.000 A 
ATOM      3  C   UNL     1       2.776   1.939  -0.391  0.00  0.00    +0.002 A 
ATOM      4  C   UNL     1       2.577   0.572  -0.305  0.00  0.00    -0.061 A 
ATOM      5  C   UNL     1       1.305   0.058  -0.325  0.00  0.00    -0.046 A 
ATOM      6  C   UNL     1       0.211   0.897  -0.429  0.00  0.00    +0.004 A 
ATOM      7  C   UNL     1       1.100  -1.440  -0.230  0.00  0.00    +0.033 C 
ATOM      8  C   UNL     1       1.617  -2.072  -1.528  0.00  0.00    -0.014 C 
ATOM      9  C   UNL     1       3.112  -2.298  -1.457  0.00  0.00    -0.078 C 
ATOM     10  N   UNL     1       3.918  -1.087  -1.454  0.00  0.00    +0.382 N 
ATOM     11  C   UNL     1       3.772  -0.352  -0.190  0.00  0.00    -0.043 C 
ATOM     12  H   UNL     1       3.626  -0.494  -2.216  0.00  0.00    -0.081 HD
ENDROOT
BRANCH  10  13
ATOM     13  C   UNL     1       5.329  -1.448  -1.640  0.00  0.00    -0.076 C 
BRANCH  13  14
ATOM     14  C   UNL     1       5.522  -2.050  -3.033  0.00  0.00    +0.009 C 
BRANCH  14  15
ATOM     15  C   UNL     1       7.012  -2.297  -3.280  0.00  0.00    +0.136 C 
BRANCH  15  16
ATOM     16  C   UNL     1       7.193  -3.002  -4.599  0.00  0.00    +0.227 C 
ATOM     17  O   UNL     1       7.518  -2.373  -5.584  0.00  0.00    -0.274 OA
ATOM     18  N   UNL     1       6.992  -4.332  -4.686  0.00  0.00    -0.328 N 
ATOM     19  H   UNL     1       6.732  -4.836  -3.899  0.00  0.00    +0.145 HD
ATOM     20  H   UNL     1       7.108  -4.786  -5.535  0.00  0.00    +0.145 HD
ENDBRANCH  15  16
BRANCH  15  21
ATOM     21  N   UNL     1       7.723  -1.012  -3.310  0.00  0.00    -0.320 NA
ATOM     22  H   UNL     1       8.718  -1.151  -3.407  0.00  0.00    +0.119 HD
ATOM     23  H   UNL     1       7.368  -0.419  -4.045  0.00  0.00    +0.119 HD
ENDBRANCH  15  21
ENDBRANCH  14  15
ENDBRANCH  13  14
ENDBRANCH  10  13
TORSDOF 5
