REMARK  Name = ZINC32787249
REMARK  8 active torsions:
REMARK  status: ('A' for Active; 'I' for Inactive)
REMARK    1  A    between atoms: C_1  and  C_2
REMARK    2  A    between atoms: C_2  and  N_3
REMARK    3  A    between atoms: C_5  and  C_12
REMARK    4  A    between atoms: N_14  and  C_15
REMARK    5  A    between atoms: C_15  and  C_17
REMARK    6  A    between atoms: C_15  and  C_18
REMARK    7  A    between atoms: C_21  and  S_24
REMARK    8  A    between atoms: S_24  and  N_27
REMARK                            x       y       z     vdW  Elec       q    Type
REMARK                         _______ _______ _______ _____ _____    ______ ____
ROOT
ATOM      1  C   UNL     1      -5.677   1.371   0.606  0.00  0.00    +0.247 C 
ATOM      2  O   UNL     1      -6.593   0.595   0.801  0.00  0.00    -0.270 OA
ATOM      3  N   UNL     1      -5.920   2.575   0.051  0.00  0.00    -0.305 N 
ATOM      4  H   UNL     1      -5.091   3.277  -0.125  0.00  0.00    +0.150 HD
ENDROOT
BRANCH   1   7
ATOM      5  N   UNL     1      -2.103   1.072   1.277  0.00  0.00    -0.346 N 
ATOM      6  C   UNL     1      -3.182   1.753   0.821  0.00  0.00    +0.099 A 
ATOM      7  C   UNL     1      -4.305   0.996   0.976  0.00  0.00    +0.062 A 
ATOM      8  C   UNL     1      -3.872  -0.274   1.588  0.00  0.00    +0.012 A 
ATOM      9  C   UNL     1      -2.481  -0.169   1.748  0.00  0.00    +0.050 A 
ATOM     10  C   UNL     1      -1.776  -1.231   2.304  0.00  0.00    +0.026 A 
ATOM     11  C   UNL     1      -2.444  -2.373   2.689  0.00  0.00    +0.002 A 
ATOM     12  C   UNL     1      -3.818  -2.476   2.528  0.00  0.00    +0.001 A 
ATOM     13  C   UNL     1      -4.535  -1.431   1.986  0.00  0.00    +0.011 A 
BRANCH   5  15
ATOM     14  C   UNL     1      -0.013   1.086   0.008  0.00  0.00    +0.027 C 
ATOM     15  C   UNL     1      -0.729   1.579   1.267  0.00  0.00    +0.118 C 
ENDBRANCH   5  15
ENDBRANCH   1   7
BRANCH   3  16
ATOM     16  C   UNL     1      -7.287   2.949  -0.318  0.00  0.00    +0.100 C 
ATOM     17  C   UNL     1      -7.606   2.405  -1.712  0.00  0.00    +0.033 C 
BRANCH  16  18
ATOM     18  C   UNL     1      -7.413   4.451  -0.323  0.00  0.00    -0.027 A 
ATOM     19  C   UNL     1      -6.383   5.229  -0.819  0.00  0.00    +0.007 A 
ATOM     20  C   UNL     1      -6.501   6.606  -0.828  0.00  0.00    +0.029 A 
ATOM     21  C   UNL     1      -7.644   7.206  -0.333  0.00  0.00    +0.105 A 
ATOM     22  C   UNL     1      -8.671   6.428   0.168  0.00  0.00    +0.029 A 
ATOM     23  C   UNL     1      -8.556   5.050   0.172  0.00  0.00    +0.007 A 
BRANCH  21  24
ATOM     24  S   UNL     1      -7.790   8.961  -0.338  0.00  0.00    +0.056 S 
ATOM     25  O   UNL     1      -6.924   9.438  -1.358  0.00  0.00    -0.153 OA
ATOM     26  O   UNL     1      -9.181   9.253  -0.322  0.00  0.00    -0.153 OA
BRANCH  24  27
ATOM     27  N   UNL     1      -7.176   9.509   1.099  0.00  0.00    -0.204 NA
ATOM     28  H   UNL     1      -7.249  10.605   1.135  0.00  0.00    +0.144 HD
ATOM     29  H   UNL     1      -6.121   9.209   1.184  0.00  0.00    +0.144 HD
ENDBRANCH  24  27
ENDBRANCH  21  24
ENDBRANCH  16  18
ENDBRANCH   3  16
TORSDOF 6
