REMARK  Name = ZINC22440854
REMARK  9 active torsions:
REMARK  status: ('A' for Active; 'I' for Inactive)
REMARK    1  A    between atoms: C_1  and  C_2
REMARK    2  A    between atoms: C_2  and  O_22
REMARK    3  A    between atoms: C_7  and  N_9
REMARK    4  A    between atoms: N_9  and  C_10
REMARK    5  A    between atoms: C_10  and  C_11
REMARK    6  A    between atoms: C_11  and  N_12
REMARK    7  A    between atoms: N_12  and  C_13
REMARK    8  A    between atoms: C_19  and  C_20
REMARK    9  A    between atoms: C_19  and  O_21
REMARK                            x       y       z     vdW  Elec       q    Type
REMARK                         _______ _______ _______ _____ _____    ______ ____
ROOT
ATOM      1  C   UNL     1       0.733  -0.566   3.641  0.00  0.00    -0.101 C 
ENDROOT
BRANCH   1   2
ATOM      2  N   UNL     1       0.098   0.017   2.451  0.00  0.00    +0.383 N 
ATOM      3  H   UNL     1       0.200   1.021   2.473  0.00  0.00    -0.085 HD
ATOM      4  H   UNL     1      -0.882  -0.221   2.442  0.00  0.00    -0.085 HD
BRANCH   2  11
ATOM      5  C   UNL     1      -0.019   1.526   0.010  0.00  0.00    +0.040 C 
ATOM      6  C   UNL     1       0.002  -0.004   0.002  0.00  0.00    +0.055 C 
ATOM      7  C   UNL     1       0.729  -0.500  -1.252  0.00  0.00    +0.061 C 
ATOM      8  C   UNL     1       2.184  -0.027  -1.210  0.00  0.00    +0.162 C 
ATOM      9  O   UNL     1       2.805  -0.510  -0.017  0.00  0.00    -0.381 OA
ATOM     10  C   UNL     1       2.198  -0.040   1.189  0.00  0.00    +0.147 C 
ATOM     11  C   UNL     1       0.743  -0.513   1.242  0.00  0.00    -0.014 C 
BRANCH   6  12
ATOM     12  O   UNL     1      -1.338  -0.500   0.008  0.00  0.00    -0.390 OA
ATOM     13  H   UNL     1      -1.865  -0.219  -0.752  0.00  0.00    +0.210 HD
ENDBRANCH   6  12
ENDBRANCH   2  11
ENDBRANCH   1   2
BRANCH   1  14
ATOM     14  C   UNL     1       0.062  -0.013   4.900  0.00  0.00    -0.101 C 
BRANCH  14  15
ATOM     15  N   UNL     1       0.697  -0.596   6.089  0.00  0.00    +0.383 N 
ATOM     16  H   UNL     1       0.596  -1.599   6.067  0.00  0.00    -0.085 HD
ATOM     17  H   UNL     1       1.678  -0.357   6.098  0.00  0.00    -0.085 HD
BRANCH  15  18
ATOM     18  C   UNL     1       0.053  -0.065   7.298  0.00  0.00    -0.014 C 
ATOM     19  C   UNL     1       0.316   1.440   7.399  0.00  0.00    +0.147 C 
ATOM     20  O   UNL     1      -0.263   1.943   8.605  0.00  0.00    -0.381 OA
ATOM     21  C   UNL     1       0.274   1.363   9.796  0.00  0.00    +0.162 C 
ATOM     22  C   UNL     1       0.009  -0.145   9.791  0.00  0.00    +0.061 C 
ATOM     23  C   UNL     1       0.630  -0.762   8.534  0.00  0.00    +0.055 C 
ATOM     24  C   UNL     1       2.148  -0.570   8.567  0.00  0.00    +0.040 C 
BRANCH  23  25
ATOM     25  O   UNL     1       0.324  -2.157   8.483  0.00  0.00    -0.390 OA
ATOM     26  H   UNL     1       0.661  -2.661   9.236  0.00  0.00    +0.210 HD
ENDBRANCH  23  25
ENDBRANCH  15  18
ENDBRANCH  14  15
ENDBRANCH   1  14
TORSDOF 7
