REMARK  Name = ZINC45661726
REMARK  6 active torsions:
REMARK  status: ('A' for Active; 'I' for Inactive)
REMARK    1  A    between atoms: C_1  and  C_2
REMARK    2  A    between atoms: N_5  and  C_11
REMARK    3  A    between atoms: C_7  and  C_9
REMARK    4  A    between atoms: C_7  and  C_10
REMARK    5  A    between atoms: C_11  and  C_12
REMARK    6  A    between atoms: C_14  and  N_22
REMARK                            x       y       z     vdW  Elec       q    Type
REMARK                         _______ _______ _______ _____ _____    ______ ____
ROOT
ATOM      1  C   UNL     1       0.552  -2.207  -3.626  0.00  0.00    +0.010 A 
ATOM      2  C   UNL     1      -0.261  -3.203  -4.129  0.00  0.00    +0.031 A 
ATOM      3  C   UNL     1      -1.078  -2.946  -5.222  0.00  0.00    +0.025 A 
ATOM      4  C   UNL     1      -1.075  -1.687  -5.807  0.00  0.00    +0.032 A 
ATOM      5  C   UNL     1      -0.262  -0.691  -5.303  0.00  0.00    +0.022 A 
ATOM      6  C   UNL     1       0.548  -0.946  -4.207  0.00  0.00    +0.133 A 
ATOM      7  O   UNL     1       1.343   0.032  -3.692  0.00  0.00    -0.466 OA
ATOM      8  C   UNL     1       1.579   1.175  -4.519  0.00  0.00    +0.394 C 
ATOM      9  O   UNL     1       0.325   1.621  -5.051  0.00  0.00    -0.339 OA
ATOM     10  C   UNL     1      -0.264   0.671  -5.949  0.00  0.00    +0.202 C 
ENDROOT
BRANCH   3  11
ATOM     11  N   UNL     1      -1.902  -3.955  -5.733  0.00  0.00    -0.358 N 
ATOM     12  H   UNL     1      -1.903  -4.834  -5.323  0.00  0.00    +0.142 HD
ATOM     13  H   UNL     1      -2.473  -3.774  -6.496  0.00  0.00    +0.142 HD
ENDBRANCH   3  11
BRANCH   1  14
ATOM     14  C   UNL     1       1.439  -2.486  -2.440  0.00  0.00    +0.123 C 
BRANCH  14  18
ATOM     15  C   UNL     1      -0.019   1.526   0.010  0.00  0.00    +0.039 C 
ATOM     16  C   UNL     1       0.002  -0.004   0.002  0.00  0.00    +0.130 C 
ATOM     17  C   UNL     1       0.720  -0.499  -1.256  0.00  0.00    +0.116 C 
ATOM     18  N   UNL     1       0.805  -1.966  -1.221  0.00  0.00    -0.293 NA
ATOM     19  C   UNL     1       1.523  -2.417  -0.020  0.00  0.00    +0.119 C 
ATOM     20  C   UNL     1       0.797  -1.904   1.226  0.00  0.00    +0.077 C 
ATOM     21  O   UNL     1       0.695  -0.479   1.159  0.00  0.00    -0.368 OA
ATOM     22  C   UNL     1       1.583  -2.302   2.476  0.00  0.00    +0.042 C 
ATOM     23  C   UNL     1      -0.605  -2.513   1.287  0.00  0.00    +0.042 C 
ENDBRANCH  14  18
ENDBRANCH   1  14
TORSDOF 3
