REMARK  Name = ZINC39661240
REMARK  6 active torsions:
REMARK  status: ('A' for Active; 'I' for Inactive)
REMARK    1  A    between atoms: C_1  and  S_2
REMARK    2  A    between atoms: S_2  and  C_3
REMARK    3  A    between atoms: C_3  and  C_4
REMARK    4  A    between atoms: C_4  and  C_5
REMARK    5  A    between atoms: C_9  and  C_18
REMARK    6  A    between atoms: N_20  and  C_21
REMARK                            x       y       z     vdW  Elec       q    Type
REMARK                         _______ _______ _______ _____ _____    ______ ____
ROOT
ATOM      1  C   UNL     1      -3.495  -2.382  -0.012  0.00  0.00    +0.216 C 
ATOM      2  O   UNL     1      -4.369  -1.544   0.055  0.00  0.00    -0.276 OA
ATOM      3  N   UNL     1      -3.813  -3.691   0.019  0.00  0.00    -0.300 N 
ATOM      4  C   UNL     1      -2.893  -4.851  -0.044  0.00  0.00    +0.121 C 
ATOM      5  C   UNL     1      -3.482  -5.872   0.955  0.00  0.00    +0.100 C 
ATOM      6  C   UNL     1      -4.971  -5.504   1.060  0.00  0.00    -0.004 C 
ATOM      7  C   UNL     1      -5.162  -4.296   0.130  0.00  0.00    +0.115 C 
ATOM      8  C   UNL     1      -5.321  -5.118   2.494  0.00  0.00    -0.010 C 
ATOM      9  C   UNL     1      -6.819  -4.811   2.585  0.00  0.00    -0.082 C 
ATOM     10  N   UNL     1      -7.587  -5.992   2.173  0.00  0.00    +0.379 N 
ATOM     11  C   UNL     1      -7.315  -6.301   0.764  0.00  0.00    -0.082 C 
ATOM     12  C   UNL     1      -5.838  -6.670   0.597  0.00  0.00    -0.010 C 
ATOM     13  H   UNL     1      -7.323  -6.780   2.746  0.00  0.00    -0.086 HD
ATOM     14  H   UNL     1      -8.572  -5.809   2.292  0.00  0.00    -0.086 HD
ENDROOT
BRANCH   5  15
ATOM     15  C   UNL     1      -3.322  -7.275   0.429  0.00  0.00    +0.219 C 
ATOM     16  O   UNL     1      -3.329  -7.478  -0.767  0.00  0.00    -0.275 OA
ATOM     17  N   UNL     1      -3.170  -8.303   1.286  0.00  0.00    -0.304 N 
ATOM     18  H   UNL     1      -3.164  -8.140   2.243  0.00  0.00    +0.149 HD
BRANCH  17  19
ATOM     19  C   UNL     1      -3.014  -9.667   0.775  0.00  0.00    +0.151 C 
ATOM     20  C   UNL     1      -3.522 -10.655   1.827  0.00  0.00    +0.042 C 
ATOM     21  C   UNL     1      -2.846 -12.020   1.557  0.00  0.00    +0.079 C 
ATOM     22  S   UNL     1      -1.249 -11.504   0.816  0.00  0.00    -0.086 S 
ATOM     23  C   UNL     1      -1.561  -9.901   0.436  0.00  0.00    +0.209 C 
ATOM     24  O   UNL     1      -0.778  -9.095  -0.021  0.00  0.00    -0.283 OA
ENDBRANCH  17  19
ENDBRANCH   5  15
BRANCH   1  25
ATOM     25  C   UNL     1      -2.053  -1.959  -0.130  0.00  0.00    +0.106 C 
BRANCH  25  26
ATOM     26  C   UNL     1      -1.969  -0.432  -0.143  0.00  0.00    +0.078 C 
BRANCH  26  28
ATOM     27  C   UNL     1      -0.306   1.889  -0.287  0.00  0.00    +0.084 C 
ATOM     28  S   UNL     1      -0.234   0.077  -0.286  0.00  0.00    -0.164 S 
ENDBRANCH  26  28
ENDBRANCH  25  26
ENDBRANCH   1  25
TORSDOF 5
