REMARK  Name = ZINC40702367
REMARK  7 active torsions:
REMARK  status: ('A' for Active; 'I' for Inactive)
REMARK    1  A    between atoms: C_1  and  C_2
REMARK    2  A    between atoms: C_7  and  N_8
REMARK    3  A    between atoms: C_10  and  N_25
REMARK    4  A    between atoms: C_11  and  N_15
REMARK    5  A    between atoms: N_15  and  C_16
REMARK    6  A    between atoms: C_21  and  O_22
REMARK    7  A    between atoms: O_22  and  C_23
REMARK                            x       y       z     vdW  Elec       q    Type
REMARK                         _______ _______ _______ _____ _____    ______ ____
ROOT
ATOM      1  N   UNL     1       1.181   0.038   2.542  0.00  0.00    -0.283 N 
ATOM      2  C   UNL     1       0.950  -0.682   3.709  0.00  0.00    +0.150 A 
ATOM      3  C   UNL     1       0.616  -0.024   4.894  0.00  0.00    +0.106 A 
ATOM      4  C   UNL     1       0.395  -0.795   6.037  0.00  0.00    +0.149 A 
ATOM      5  N   UNL     1       0.510  -2.119   5.954  0.00  0.00    -0.219 NA
ATOM      6  C   UNL     1       0.827  -2.700   4.815  0.00  0.00    +0.225 A 
ATOM      7  N   UNL     1       1.039  -2.010   3.713  0.00  0.00    -0.219 NA
ATOM      8  H   UNL     1       1.114   1.005   2.548  0.00  0.00    +0.155 HD
ENDROOT
BRANCH   1  15
ATOM      9  C   UNL     1       1.634   1.600   0.207  0.00  0.00    +0.047 C 
ATOM     10  C   UNL     1       1.736   0.096   0.202  0.00  0.00    -0.010 A 
ATOM     11  C   UNL     1       2.065  -0.580  -0.960  0.00  0.00    +0.008 A 
ATOM     12  C   UNL     1       2.149  -1.965  -0.919  0.00  0.00    +0.020 A 
ATOM     13  C   UNL     1       1.903  -2.623   0.271  0.00  0.00    +0.113 A 
ATOM     14  N   UNL     1       1.591  -1.952   1.363  0.00  0.00    -0.240 NA
ATOM     15  C   UNL     1       1.507  -0.630   1.365  0.00  0.00    +0.127 A 
ENDBRANCH   1  15
BRANCH   3  16
ATOM     16  N   UNL     1       0.507   1.375   4.936  0.00  0.00    -0.353 N 
ATOM     17  H   UNL     1       0.663   1.897   4.134  0.00  0.00    +0.143 HD
ATOM     18  H   UNL     1       0.274   1.819   5.766  0.00  0.00    +0.143 HD
ENDBRANCH   3  16
BRANCH   4  19
ATOM     19  N   UNL     1       0.060  -0.190   7.243  0.00  0.00    -0.295 N 
ATOM     20  H   UNL     1      -0.115   0.764   7.275  0.00  0.00    +0.154 HD
BRANCH  19  21
ATOM     21  C   UNL     1      -0.024  -0.957   8.411  0.00  0.00    +0.076 A 
ATOM     22  C   UNL     1       0.589  -2.200   8.473  0.00  0.00    +0.047 A 
ATOM     23  C   UNL     1       0.504  -2.955   9.628  0.00  0.00    +0.043 A 
ATOM     24  C   UNL     1      -0.191  -2.474  10.724  0.00  0.00    +0.024 A 
ATOM     25  C   UNL     1      -0.804  -1.236  10.668  0.00  0.00    +0.049 A 
ATOM     26  C   UNL     1      -0.719  -0.471   9.517  0.00  0.00    +0.141 A 
ATOM     27 CL   UNL     1       1.271  -4.511   9.704  0.00  0.00    -0.083 Cl
BRANCH  26  28
ATOM     28  O   UNL     1      -1.317   0.750   9.464  0.00  0.00    -0.493 OA
ATOM     29  C   UNL     1      -2.011   1.183  10.635  0.00  0.00    +0.277 C 
ENDBRANCH  26  28
ENDBRANCH  19  21
ENDBRANCH   4  19
TORSDOF 5
