REMARK  Name = ZINC25493952
REMARK  7 active torsions:
REMARK  status: ('A' for Active; 'I' for Inactive)
REMARK    1  A    between atoms: C_4  and  N_7
REMARK    2  A    between atoms: C_8  and  C_10
REMARK    3  A    between atoms: C_10  and  C_11
REMARK    4  A    between atoms: C_10  and  C_18
REMARK    5  A    between atoms: C_11  and  C_13
REMARK    6  A    between atoms: C_11  and  O_17
REMARK    7  A    between atoms: N_20  and  C_21
REMARK                            x       y       z     vdW  Elec       q    Type
REMARK                         _______ _______ _______ _____ _____    ______ ____
ROOT
ATOM      1  C   UNL     1       6.399  -0.739  -0.834  0.00  0.00    +0.193 C 
ENDROOT
BRANCH   1   3
ATOM      2  N   UNL     1       4.247  -0.729  -2.054  0.00  0.00    -0.285 N 
ATOM      3  C   UNL     1       5.267  -0.024  -1.526  0.00  0.00    +0.232 C 
ATOM      4  O   UNL     1       5.274   1.186  -1.609  0.00  0.00    -0.275 OA
ATOM      5  H   UNL     1       4.191  -1.816  -1.898  0.00  0.00    +0.155 HD
BRANCH   2   9
ATOM      6  C   UNL     1       1.304   1.211  -4.276  0.00  0.00    +0.000 A 
ATOM      7  C   UNL     1       0.974   0.111  -3.505  0.00  0.00    +0.002 A 
ATOM      8  C   UNL     1       1.947  -0.534  -2.767  0.00  0.00    +0.023 A 
ATOM      9  C   UNL     1       3.259  -0.077  -2.801  0.00  0.00    +0.033 A 
ATOM     10  C   UNL     1       3.587   1.027  -3.576  0.00  0.00    +0.023 A 
ATOM     11  C   UNL     1       2.608   1.668  -4.311  0.00  0.00    +0.002 A 
ENDBRANCH   2   9
ENDBRANCH   1   3
BRANCH   1  12
ATOM     12  C   UNL     1       7.563   0.204  -0.671  0.00  0.00    +0.232 C 
ATOM     13  O   UNL     1       7.527   1.306  -1.176  0.00  0.00    -0.275 OA
ATOM     14  N   UNL     1       8.645  -0.178   0.036  0.00  0.00    -0.285 N 
ATOM     15  H   UNL     1       8.719  -1.208   0.416  0.00  0.00    +0.155 HD
BRANCH  14  16
ATOM     16  C   UNL     1       9.676   0.735   0.286  0.00  0.00    +0.033 A 
ATOM     17  C   UNL     1       9.389   2.086   0.429  0.00  0.00    +0.023 A 
ATOM     18  C   UNL     1      10.407   2.984   0.681  0.00  0.00    +0.002 A 
ATOM     19  C   UNL     1      11.713   2.540   0.780  0.00  0.00    +0.000 A 
ATOM     20  C   UNL     1      12.003   1.196   0.633  0.00  0.00    +0.002 A 
ATOM     21  C   UNL     1      10.988   0.292   0.386  0.00  0.00    +0.023 A 
ENDBRANCH  14  16
ENDBRANCH   1  12
BRANCH   1  22
ATOM     22  C   UNL     1       5.933  -1.217   0.542  0.00  0.00    +0.186 C 
BRANCH  22  23
ATOM     23  C   UNL     1       5.352  -0.037   1.323  0.00  0.00    +0.217 C 
ATOM     24 CL   UNL     1       3.850   0.541   0.510  0.00  0.00    -0.081 Cl
ATOM     25 CL   UNL     1       4.961  -0.562   3.003  0.00  0.00    -0.081 Cl
ATOM     26 CL   UNL     1       6.560   1.301   1.377  0.00  0.00    -0.081 Cl
ENDBRANCH  22  23
BRANCH  22  27
ATOM     27  O   UNL     1       4.930  -2.223   0.383  0.00  0.00    -0.386 OA
ATOM     28  H   UNL     1       4.473  -2.689   1.268  0.00  0.00    +0.210 HD
ENDBRANCH  22  27
ENDBRANCH   1  22
TORSDOF 7
