REMARK  Name = ZINC40469414
REMARK  7 active torsions:
REMARK  status: ('A' for Active; 'I' for Inactive)
REMARK    1  A    between atoms: C_3  and  O_23
REMARK    2  A    between atoms: C_4  and  O_22
REMARK    3  A    between atoms: C_6  and  C_7
REMARK    4  A    between atoms: C_7  and  C_8
REMARK    5  A    between atoms: C_8  and  C_10
REMARK    6  A    between atoms: C_8  and  N_21
REMARK    7  A    between atoms: C_16  and  C_18
REMARK                            x       y       z     vdW  Elec       q    Type
REMARK                         _______ _______ _______ _____ _____    ______ ____
ROOT
ATOM      1  C   UNK A   1      -1.746  -1.026  -1.429  0.00  0.00    +0.017 C 
ENDROOT
BRANCH   1   2
ATOM      2  C   UNK A   1      -2.974  -1.900  -1.424  0.00  0.00    +0.203 C 
ATOM      3  O   UNK A   1      -4.072  -1.403  -1.564  0.00  0.00    -0.277 OA
ATOM      4  N   UNK A   2      -2.852  -3.232  -1.264  0.00  0.00    -0.279 N 
ATOM      5  C   UNK A   2      -1.533  -3.877  -1.084  0.00  0.00    +0.178 C 
ATOM      6  S   UNK A   2      -2.015  -5.453  -0.249  0.00  0.00    -0.139 S 
ATOM      7  C   UNK A   2      -3.678  -5.607  -1.041  0.00  0.00    +0.104 C 
ATOM      8  C   UNK A   2      -4.011  -4.110  -1.253  0.00  0.00    +0.199 C 
BRANCH   8   9
ATOM      9  C   UNK A   2      -4.732  -3.966  -2.569  0.00  0.00    +0.377 C 
ATOM     10  O   UNK A   2      -4.108  -3.686  -3.578  0.00  0.00    -0.244 OA
ATOM     11  O   UNK A   2      -5.939  -4.130  -2.623  0.00  0.00    -0.244 OA
ENDBRANCH   8   9
ENDBRANCH   1   2
BRANCH   1  12
ATOM     12  N   UNK A   1      -2.059   0.255  -2.076  0.00  0.00    +0.386 N 
ATOM     13  H   UNK A   1      -2.357   0.088  -3.026  0.00  0.00    -0.089 HD
ATOM     14  H   UNK A   1      -2.798   0.717  -1.568  0.00  0.00    -0.089 HD
ATOM     15  H   UNK A   1      -1.237   0.840  -2.080  0.00  0.00    -0.089 HD
ENDBRANCH   1  12
BRANCH   1  16
ATOM     16  C   UNK A   1      -1.294  -0.774   0.010  0.00  0.00    +0.028 C 
BRANCH  16  22
ATOM     17  C   UNK A   1      -0.017   1.378   0.010  0.00  0.00    +0.007 A 
ATOM     18  C   UNK A   1       1.170   2.089   0.002  0.00  0.00    +0.049 A 
ATOM     19  C   UNK A   1       2.380   1.415  -0.013  0.00  0.00    +0.158 A 
ATOM     20  C   UNK A   1       2.399   0.024  -0.021  0.00  0.00    +0.158 A 
ATOM     21  C   UNK A   1       1.207  -0.682  -0.013  0.00  0.00    +0.052 A 
ATOM     22  C   UNK A   1       0.002  -0.004   0.002  0.00  0.00    -0.045 A 
BRANCH  20  23
ATOM     23  O   UNK A   1       3.585  -0.642  -0.036  0.00  0.00    -0.503 OA
ATOM     24  H   UNK A   1       3.937  -0.839   0.843  0.00  0.00    +0.292 HD
ENDBRANCH  20  23
BRANCH  19  25
ATOM     25  O   UNK A   1       3.548   2.113  -0.021  0.00  0.00    -0.503 OA
ATOM     26  H   UNK A   1       3.894   2.310   0.860  0.00  0.00    +0.292 HD
ENDBRANCH  19  25
ENDBRANCH  16  22
ENDBRANCH   1  16
TORSDOF 7
