REMARK  Name = ZINC20246636
REMARK  3 active torsions:
REMARK  status: ('A' for Active; 'I' for Inactive)
REMARK    1  A    between atoms: C_2  and  C_20
REMARK    2  A    between atoms: C_14  and  N_18
REMARK    3  A    between atoms: C_15  and  C_16
REMARK                            x       y       z     vdW  Elec       q    Type
REMARK                         _______ _______ _______ _____ _____    ______ ____
ROOT
ATOM      1  C   UNL     1      -2.030   3.679   2.127  0.00  0.00    +0.037 A 
ATOM      2  C   UNL     1      -2.135   2.864   3.248  0.00  0.00    +0.074 A 
ATOM      3  C   UNL     1      -1.532   1.623   3.241  0.00  0.00    +0.125 A 
ATOM      4  N   UNL     1      -0.859   1.203   2.186  0.00  0.00    -0.238 NA
ATOM      5  C   UNL     1      -0.736   1.948   1.099  0.00  0.00    +0.140 A 
ATOM      6  C   UNL     1      -1.313   3.213   1.038  0.00  0.00    +0.081 A 
ATOM      7 CL   UNL     1      -1.143   4.192  -0.386  0.00  0.00    -0.080 Cl
ATOM      8  N   UNL     1      -0.018   1.465   0.010  0.00  0.00    -0.309 N 
ATOM      9  C   UNL     1      -0.224   0.020  -0.158  0.00  0.00    +0.111 C 
ATOM     10  C   UNL     1       0.251  -0.422  -1.545  0.00  0.00    +0.056 C 
ATOM     11  C   UNL     1       1.670   0.094  -1.748  0.00  0.00    -0.015 A 
ATOM     12  C   UNL     1       2.151   1.084  -0.962  0.00  0.00    +0.013 A 
ATOM     13  S   UNL     1       3.801   1.357  -1.539  0.00  0.00    -0.076 S 
ATOM     14  C   UNL     1       3.853   0.176  -2.807  0.00  0.00    +0.081 A 
ATOM     15  C   UNL     1       2.591  -0.402  -2.753  0.00  0.00    +0.083 A 
ATOM     16  C   UNL     1       1.418   1.776   0.144  0.00  0.00    +0.149 C 
ENDROOT
BRANCH   2  17
ATOM     17  C   UNL     1      -2.901   3.332   4.459  0.00  0.00    +0.419 C 
ATOM     18  F   UNL     1      -2.862   2.341   5.446  0.00  0.00    -0.166 F 
ATOM     19  F   UNL     1      -2.321   4.505   4.953  0.00  0.00    -0.166 F 
ATOM     20  F   UNL     1      -4.230   3.583   4.102  0.00  0.00    -0.166 F 
ENDBRANCH   2  17
BRANCH  14  21
ATOM     21  N   UNL     1       4.898  -0.118  -3.665  0.00  0.00    -0.352 N 
ATOM     22  H   UNL     1       4.780  -0.902  -4.427  0.00  0.00    +0.143 HD
ATOM     23  H   UNL     1       5.847   0.432  -3.584  0.00  0.00    +0.143 HD
ENDBRANCH  14  21
BRANCH  15  24
ATOM     24  C   UNL     1       2.214  -1.448  -3.656  0.00  0.00    +0.102 C 
ATOM     25  N   UNL     1       1.915  -2.278  -4.372  0.00  0.00    -0.191 NA
ENDBRANCH  15  24
TORSDOF 3
