REMARK  Name = ZINC48836459
REMARK  2 active torsions:
REMARK  status: ('A' for Active; 'I' for Inactive)
REMARK    1  A    between atoms: C_1  and  C_2
REMARK    2  A    between atoms: C_6  and  C_18
REMARK                            x       y       z     vdW  Elec       q    Type
REMARK                         _______ _______ _______ _____ _____    ______ ____
ROOT
ATOM      1  C   UNL     1      -0.157   1.528   0.133  0.00  0.00    +0.028 C 
ATOM      2  C   UNL     1      -0.072   0.002   0.062  0.00  0.00    +0.072 C 
ATOM      3  C   UNL     1      -1.468  -0.599   0.252  0.00  0.00    +0.023 C 
ATOM      4  C   UNL     1      -1.357  -2.124   0.320  0.00  0.00    +0.016 C 
ATOM      5  C   UNL     1      -0.493  -2.522   1.518  0.00  0.00    +0.092 C 
ATOM      6  C   UNL     1       0.914  -1.942   1.343  0.00  0.00    +0.119 C 
ATOM      7  N   UNL     1       0.808  -0.492   1.130  0.00  0.00    -0.312 N 
ATOM      8  C   UNL     1       1.521   0.393   1.923  0.00  0.00    +0.128 A 
ATOM      9  C   UNL     1       2.797   0.812   1.544  0.00  0.00    +0.084 A 
ATOM     10  C   UNL     1       3.472   1.696   2.366  0.00  0.00    +0.136 A 
ATOM     11  N   UNL     1       2.891   2.116   3.482  0.00  0.00    -0.203 NA
ATOM     12  C   UNL     1       1.678   1.701   3.815  0.00  0.00    +0.216 A 
ATOM     13  N   UNL     1       0.997   0.859   3.052  0.00  0.00    -0.200 NA
ATOM     14  N   UNL     1       1.105   2.162   4.987  0.00  0.00    -0.327 N 
ATOM     15 CL   UNL     1       5.062   2.248   1.943  0.00  0.00    -0.062 Cl
ATOM     16  H   UNL     1       1.592   2.782   5.553  0.00  0.00    +0.145 HD
ATOM     17  H   UNL     1       0.218   1.866   5.243  0.00  0.00    +0.145 HD
ENDROOT
BRANCH   5  18
ATOM     18  C   UNL     1      -0.412  -4.024   1.603  0.00  0.00    +0.215 C 
ATOM     19  O   UNL     1      -0.988  -4.710   0.786  0.00  0.00    -0.276 OA
ATOM     20  N   UNL     1       0.302  -4.606   2.588  0.00  0.00    -0.329 N 
ATOM     21  H   UNL     1       0.763  -4.057   3.242  0.00  0.00    +0.145 HD
ATOM     22  H   UNL     1       0.354  -5.573   2.643  0.00  0.00    +0.145 HD
ENDBRANCH   5  18
TORSDOF 1
