REMARK  Name = ZINC37138014
REMARK  6 active torsions:
REMARK  status: ('A' for Active; 'I' for Inactive)
REMARK    1  A    between atoms: C_1  and  C_2
REMARK    2  A    between atoms: C_2  and  C_4
REMARK    3  A    between atoms: C_2  and  N_11
REMARK    4  A    between atoms: N_11  and  C_12
REMARK    5  A    between atoms: C_15  and  S_19
REMARK    6  A    between atoms: S_19  and  N_22
REMARK                            x       y       z     vdW  Elec       q    Type
REMARK                         _______ _______ _______ _____ _____    ______ ____
ROOT
ATOM      1  C   UNL     1      -1.929  -0.673  -1.401  0.00  0.00    +0.042 A 
ATOM      2  C   UNL     1      -1.176  -0.401  -2.537  0.00  0.00    +0.026 A 
ATOM      3  C   UNL     1      -1.728  -0.583  -3.789  0.00  0.00    +0.030 A 
ATOM      4  C   UNL     1      -3.029  -1.037  -3.915  0.00  0.00    +0.106 A 
ATOM      5  C   UNL     1      -3.781  -1.309  -2.787  0.00  0.00    +0.045 A 
ATOM      6  C   UNL     1      -3.233  -1.134  -1.530  0.00  0.00    +0.041 A 
ATOM      7 BR   UNL     1      -4.261  -1.514   0.011  0.00  0.00    -0.048 Br
ENDROOT
BRANCH   4   8
ATOM      8  S   UNL     1      -3.728  -1.268  -5.515  0.00  0.00    +0.056 S 
ATOM      9  O   UNL     1      -5.138  -1.178  -5.359  0.00  0.00    -0.153 OA
ATOM     10  O   UNL     1      -3.005  -0.423  -6.400  0.00  0.00    -0.153 OA
BRANCH   8  11
ATOM     11  N   UNL     1      -3.401  -2.825  -5.973  0.00  0.00    -0.204 NA
ATOM     12  H   UNL     1      -4.011  -3.296  -6.561  0.00  0.00    +0.144 HD
ATOM     13  H   UNL     1      -2.598  -3.266  -5.653  0.00  0.00    +0.144 HD
ENDBRANCH   8  11
ENDBRANCH   4   8
BRANCH   1  14
ATOM     14  N   UNL     1      -1.373  -0.490  -0.132  0.00  0.00    -0.336 N 
ATOM     15  H   UNL     1      -1.899  -0.685   0.660  0.00  0.00    +0.147 HD
BRANCH  14  17
ATOM     16  C   UNL     1       0.010   1.525  -0.049  0.00  0.00    +0.033 C 
ATOM     17  C   UNL     1       0.002  -0.004   0.002  0.00  0.00    +0.100 C 
BRANCH  17  18
ATOM     18  C   UNL     1       0.572  -0.466   1.319  0.00  0.00    +0.008 A 
ATOM     19  C   UNL     1      -0.270  -0.711   2.388  0.00  0.00    +0.008 A 
ATOM     20  C   UNL     1       0.252  -1.134   3.596  0.00  0.00    +0.000 A 
ATOM     21  C   UNL     1       1.616  -1.313   3.736  0.00  0.00    +0.003 A 
ATOM     22  C   UNL     1       2.459  -1.069   2.668  0.00  0.00    +0.039 A 
ATOM     23  C   UNL     1       1.937  -0.650   1.456  0.00  0.00    +0.128 A 
ATOM     24  F   UNL     1       2.759  -0.415   0.411  0.00  0.00    -0.205 F 
ENDBRANCH  17  18
ENDBRANCH  14  17
ENDBRANCH   1  14
TORSDOF 5
