REMARK  Name = ZINC62845346
REMARK  5 active torsions:
REMARK  status: ('A' for Active; 'I' for Inactive)
REMARK    1  A    between atoms: C_1  and  C_2
REMARK    2  A    between atoms: C_2  and  C_3
REMARK    3  A    between atoms: C_3  and  C_18
REMARK    4  A    between atoms: C_9  and  C_11
REMARK    5  A    between atoms: C_11  and  N_17
REMARK                            x       y       z     vdW  Elec       q    Type
REMARK                         _______ _______ _______ _____ _____    ______ ____
ROOT
ATOM      1  C   UNL     1       0.664  -0.528   1.108  0.00  0.00    +0.075 C 
ATOM      2  C   UNL     1       2.097   0.006   1.167  0.00  0.00    +0.037 C 
ATOM      3  C   UNL     1       2.860  -0.450  -0.080  0.00  0.00    +0.109 C 
ATOM      4  N   UNL     1       2.766  -1.913  -0.184  0.00  0.00    -0.303 N 
ATOM      5  C   UNL     1       1.436  -2.538  -0.159  0.00  0.00    +0.109 C 
ATOM      6  C   UNL     1       0.689  -2.058   1.089  0.00  0.00    +0.037 C 
ATOM      7  C   UNL     1       3.877  -2.666  -0.300  0.00  0.00    +0.204 C 
ATOM      8  O   UNL     1       4.960  -2.135  -0.425  0.00  0.00    -0.277 OA
ENDROOT
BRANCH   7   9
ATOM      9  C   UNL     1       3.774  -4.170  -0.274  0.00  0.00    +0.007 C 
ATOM     10  C   UNL     1       5.176  -4.778  -0.352  0.00  0.00    -0.004 C 
ATOM     11  C   UNL     1       5.853  -4.335  -1.651  0.00  0.00    -0.001 C 
ATOM     12  C   UNL     1       5.024  -4.810  -2.845  0.00  0.00    -0.000 C 
ATOM     13  C   UNL     1       3.622  -4.202  -2.768  0.00  0.00    -0.001 C 
ATOM     14  C   UNL     1       2.945  -4.645  -1.469  0.00  0.00    -0.004 C 
BRANCH   9  15
ATOM     15  N   UNL     1       3.124  -4.595   0.973  0.00  0.00    +0.388 N 
ATOM     16  H   UNL     1       2.173  -4.259   0.988  0.00  0.00    -0.089 HD
ATOM     17  H   UNL     1       3.126  -5.602   1.026  0.00  0.00    -0.089 HD
ATOM     18  H   UNL     1       3.627  -4.215   1.761  0.00  0.00    -0.089 HD
ENDBRANCH   9  15
ENDBRANCH   7   9
BRANCH   1  19
ATOM     19  C   UNL     1      -0.099  -0.053   2.317  0.00  0.00    +0.362 C 
ATOM     20  O   UNL     1      -1.097   0.633   2.177  0.00  0.00    -0.246 OA
ATOM     21  O   UNL     1       0.281  -0.355   3.435  0.00  0.00    -0.246 OA
ENDBRANCH   1  19
BRANCH   1  23
ATOM     22  C   UNL     1      -0.044   1.515  -0.143  0.00  0.00    +0.005 C 
ATOM     23  C   UNL     1      -0.019  -0.015  -0.161  0.00  0.00    +0.015 C 
ENDBRANCH   1  23
TORSDOF 4
