REMARK  Name = ZINC01429415
REMARK  5 active torsions:
REMARK  status: ('A' for Active; 'I' for Inactive)
REMARK    1  A    between atoms: C_1  and  C_2
REMARK    2  A    between atoms: C_4  and  C_27
REMARK    3  A    between atoms: C_11  and  C_19
REMARK    4  A    between atoms: C_13  and  C_17
REMARK    5  A    between atoms: C_14  and  N_16
REMARK                            x       y       z     vdW  Elec       q    Type
REMARK                         _______ _______ _______ _____ _____    ______ ____
ROOT
ATOM      1  C   UNL     1       0.465  -3.057  -0.021  0.00  0.00    +0.044 C 
ATOM      2  C   UNL     1       1.572  -2.034  -0.026  0.00  0.00    -0.036 A 
ATOM      3  C   UNL     1       2.907  -2.396  -0.041  0.00  0.00    +0.027 A 
ATOM      4  C   UNL     1       3.922  -1.456  -0.045  0.00  0.00    +0.040 A 
ATOM      5  N   UNL     1       3.679  -0.151  -0.035  0.00  0.00    -0.245 NA
ATOM      6  C   UNL     1       2.425   0.238  -0.020  0.00  0.00    +0.113 A 
ATOM      7  C   UNL     1       1.309  -0.641  -0.014  0.00  0.00    +0.053 A 
ATOM      8  C   UNL     1       0.002  -0.004   0.002  0.00  0.00    +0.151 A 
ATOM      9  C   UNL     1      -0.016   1.352   0.009  0.00  0.00    +0.047 A 
ATOM     10  S   UNL     1       1.685   1.843  -0.004  0.00  0.00    -0.069 S 
ATOM     11  C   UNL     1      -1.242   2.209   0.020  0.00  0.00    +0.106 C 
ATOM     12  C   UNL     1      -2.430   1.327  -0.281  0.00  0.00    +0.099 C 
ATOM     13  C   UNL     1      -2.321  -0.022  -0.268  0.00  0.00    +0.199 C 
ATOM     14  O   UNL     1      -1.193  -0.692   0.011  0.00  0.00    -0.440 OA
ATOM     15  C   UNL     1       5.353  -1.931  -0.062  0.00  0.00    +0.065 C 
ENDROOT
BRANCH  11  16
ATOM     16  C   UNL     1      -1.415   2.834   1.381  0.00  0.00    -0.016 A 
ATOM     17  C   UNL     1      -1.570   2.031   2.495  0.00  0.00    +0.007 A 
ATOM     18  C   UNL     1      -1.724   2.603   3.744  0.00  0.00    +0.020 A 
ATOM     19  C   UNL     1      -1.733   3.980   3.878  0.00  0.00    +0.042 A 
ATOM     20  C   UNL     1      -1.584   4.784   2.762  0.00  0.00    +0.040 A 
ATOM     21  C   UNL     1      -1.425   4.211   1.513  0.00  0.00    +0.046 A 
ATOM     22 CL   UNL     1      -1.237   5.219   0.113  0.00  0.00    -0.083 Cl
ATOM     23 CL   UNL     1      -1.932   4.699   5.445  0.00  0.00    -0.083 Cl
ENDBRANCH  11  16
BRANCH  13  24
ATOM     24  N   UNL     1      -3.444  -0.756  -0.561  0.00  0.00    -0.328 N 
ATOM     25  H   UNL     1      -3.403  -1.725  -0.561  0.00  0.00    +0.145 HD
ATOM     26  H   UNL     1      -4.278  -0.305  -0.768  0.00  0.00    +0.145 HD
ENDBRANCH  13  24
BRANCH  12  27
ATOM     27  C   UNL     1      -3.692   1.928  -0.592  0.00  0.00    +0.101 C 
ATOM     28  N   UNL     1      -4.693   2.405  -0.838  0.00  0.00    -0.191 NA
ENDBRANCH  12  27
TORSDOF 3
