REMARK  Name = ZINC02892662
REMARK  5 active torsions:
REMARK  status: ('A' for Active; 'I' for Inactive)
REMARK    1  A    between atoms: C_1  and  C_2
REMARK    2  A    between atoms: C_5  and  N_8
REMARK    3  A    between atoms: N_8  and  C_9
REMARK    4  A    between atoms: N_16  and  C_19
REMARK    5  A    between atoms: C_23  and  C_25
REMARK                            x       y       z     vdW  Elec       q    Type
REMARK                         _______ _______ _______ _____ _____    ______ ____
ROOT
ATOM      1  C   UNL     1      -0.925  -4.973   1.219  0.00  0.00    +0.090 C 
ATOM      2  C   UNL     1      -0.508  -6.291   1.177  0.00  0.00    +0.113 C 
ATOM      3  C   UNL     1      -0.039  -6.989   2.387  0.00  0.00    +0.256 C 
ATOM      4  O   UNL     1      -0.007  -6.421   3.463  0.00  0.00    -0.270 OA
ATOM      5  N   UNL     1       0.352  -8.274   2.271  0.00  0.00    -0.263 N 
ATOM      6  C   UNL     1       0.321  -8.912   1.092  0.00  0.00    +0.150 C 
ATOM      7  S   UNL     1       0.838 -10.543   1.039  0.00  0.00    -0.018 S 
ATOM      8  N   UNL     1      -0.093  -8.340  -0.047  0.00  0.00    -0.217 N 
ATOM      9  C   UNL     1      -0.519  -7.061  -0.080  0.00  0.00    +0.263 C 
ATOM     10  O   UNL     1      -0.898  -6.554  -1.120  0.00  0.00    -0.269 OA
ATOM     11  H   UNL     1       0.663  -8.748   3.058  0.00  0.00    +0.157 HD
ENDROOT
BRANCH   8  12
ATOM     12  C   UNL     1      -0.089  -9.090  -1.230  0.00  0.00    +0.044 A 
ATOM     13  C   UNL     1      -1.213  -9.819  -1.597  0.00  0.00    +0.024 A 
ATOM     14  C   UNL     1      -1.206 -10.557  -2.763  0.00  0.00    +0.002 A 
ATOM     15  C   UNL     1      -0.081 -10.573  -3.567  0.00  0.00    +0.003 A 
ATOM     16  C   UNL     1       1.040  -9.848  -3.205  0.00  0.00    -0.049 A 
ATOM     17  C   UNL     1       1.037  -9.103  -2.042  0.00  0.00    +0.027 A 
ATOM     18  C   UNL     1       2.265  -9.868  -4.083  0.00  0.00    +0.044 C 
ENDBRANCH   8  12
BRANCH   1  19
ATOM     19  N   UNL     1      -1.316  -4.352   0.086  0.00  0.00    -0.320 N 
ATOM     20  H   UNL     1      -1.226  -4.801  -0.769  0.00  0.00    +0.152 HD
BRANCH  19  25
ATOM     21  C   UNL     1      -3.488   0.882   0.327  0.00  0.00    +0.044 C 
ATOM     22  C   UNL     1      -2.911  -0.509   0.263  0.00  0.00    -0.050 A 
ATOM     23  C   UNL     1      -2.782  -1.147  -0.957  0.00  0.00    +0.005 A 
ATOM     24  C   UNL     1      -2.254  -2.421  -1.019  0.00  0.00    +0.023 A 
ATOM     25  C   UNL     1      -1.851  -3.062   0.146  0.00  0.00    +0.031 A 
ATOM     26  C   UNL     1      -1.981  -2.418   1.369  0.00  0.00    +0.023 A 
ATOM     27  C   UNL     1      -2.506  -1.142   1.424  0.00  0.00    +0.005 A 
ENDBRANCH  19  25
ENDBRANCH   1  19
TORSDOF 3
