REMARK  Name = ZINC58884805
REMARK  7 active torsions:
REMARK  status: ('A' for Active; 'I' for Inactive)
REMARK    1  A    between atoms: C_4  and  N_7
REMARK    2  A    between atoms: N_10  and  C_11
REMARK    3  A    between atoms: C_15  and  N_17
REMARK    4  A    between atoms: N_20  and  C_21
REMARK    5  A    between atoms: C_21  and  C_22
REMARK    6  A    between atoms: C_22  and  C_24
REMARK    7  A    between atoms: C_22  and  N_29
REMARK                            x       y       z     vdW  Elec       q    Type
REMARK                         _______ _______ _______ _____ _____    ______ ____
ROOT
ATOM      1  N   UNL     1       7.227  -7.030   0.013  0.00  0.00    -0.269 N 
ATOM      2  C   UNL     1       7.276  -8.355  -0.228  0.00  0.00    +0.304 C 
ATOM      3  O   UNL     1       6.267  -8.951  -0.554  0.00  0.00    -0.253 OA
ATOM      4  N   UNL     1       8.442  -9.020  -0.108  0.00  0.00    -0.300 N 
ATOM      5  H   UNL     1       8.043  -6.541   0.199  0.00  0.00    +0.156 HD
ATOM      6  H   UNL     1       9.246  -8.544   0.152  0.00  0.00    +0.150 HD
ENDROOT
BRANCH   1  11
ATOM      7  C   UNL     1       3.630  -6.345   0.388  0.00  0.00    +0.037 A 
ATOM      8  C   UNL     1       3.569  -5.027  -0.047  0.00  0.00    +0.023 A 
ATOM      9  C   UNL     1       4.718  -4.381  -0.460  0.00  0.00    +0.004 A 
ATOM     10  C   UNL     1       5.931  -5.043  -0.441  0.00  0.00    +0.023 A 
ATOM     11  C   UNL     1       5.998  -6.360  -0.006  0.00  0.00    +0.037 A 
ATOM     12  C   UNL     1       4.846  -7.010   0.414  0.00  0.00    +0.046 A 
BRANCH   7  16
ATOM     13  N   UNL     1       0.147  -7.255   0.700  0.00  0.00    -0.269 N 
ATOM     14  C   UNL     1       1.283  -6.703   0.230  0.00  0.00    +0.308 C 
ATOM     15  O   UNL     1       1.241  -5.938  -0.715  0.00  0.00    -0.252 OA
ATOM     16  N   UNL     1       2.465  -6.998   0.806  0.00  0.00    -0.269 N 
ATOM     17  H   UNL     1       0.170  -7.806   1.498  0.00  0.00    +0.156 HD
ATOM     18  H   UNL     1       2.508  -7.664   1.510  0.00  0.00    +0.156 HD
BRANCH  13  22
ATOM     19  C   UNL     1      -3.463  -6.597  -1.273  0.00  0.00    +0.000 A 
ATOM     20  C   UNL     1      -2.284  -6.660  -1.994  0.00  0.00    +0.002 A 
ATOM     21  C   UNL     1      -1.086  -6.878  -1.342  0.00  0.00    +0.023 A 
ATOM     22  C   UNL     1      -1.065  -7.034   0.037  0.00  0.00    +0.035 A 
ATOM     23  C   UNL     1      -2.251  -6.970   0.758  0.00  0.00    +0.023 A 
ATOM     24  C   UNL     1      -3.446  -6.752   0.101  0.00  0.00    +0.002 A 
ENDBRANCH  13  22
ENDBRANCH   7  16
ENDBRANCH   1  11
BRANCH   4  25
ATOM     25  C   UNL     1       8.495 -10.460  -0.369  0.00  0.00    +0.098 C 
BRANCH  25  26
ATOM     26  C   UNL     1       9.896 -10.986  -0.049  0.00  0.00    +0.016 C 
BRANCH  26  27
ATOM     27  N   UNL     1       9.909 -12.450  -0.167  0.00  0.00    +0.387 N 
ATOM     28  C   UNL     1      11.214 -12.989   0.292  0.00  0.00    -0.078 C 
ATOM     29  C   UNL     1      10.885 -14.463   0.641  0.00  0.00    -0.020 C 
ATOM     30  C   UNL     1       9.472 -14.364   1.260  0.00  0.00    -0.020 C 
ATOM     31  C   UNL     1       8.890 -13.043   0.726  0.00  0.00    -0.078 C 
ATOM     32  H   UNL     1       9.735 -12.723  -1.123  0.00  0.00    -0.081 HD
ENDBRANCH  26  27
BRANCH  26  33
ATOM     33  C   UNL     1      10.888 -10.395  -1.018  0.00  0.00    +0.093 A 
ATOM     34  C   UNL     1      11.707  -9.357  -0.769  0.00  0.00    +0.043 A 
ATOM     35  C   UNL     1      12.460  -9.139  -1.946  0.00  0.00    +0.041 A 
ATOM     36  C   UNL     1      12.056 -10.057  -2.843  0.00  0.00    +0.195 A 
ATOM     37  O   UNL     1      11.107 -10.818  -2.273  0.00  0.00    -0.469 OA
ENDBRANCH  26  33
ENDBRANCH  25  26
ENDBRANCH   4  25
TORSDOF 7
