REMARK  Name = ZINC65174812
REMARK  6 active torsions:
REMARK  status: ('A' for Active; 'I' for Inactive)
REMARK    1  A    between atoms: C_4  and  C_22
REMARK    2  A    between atoms: C_7  and  C_9
REMARK    3  A    between atoms: C_9  and  C_10
REMARK    4  A    between atoms: C_10  and  C_11
REMARK    5  A    between atoms: C_11  and  C_12
REMARK    6  A    between atoms: C_12  and  C_13
REMARK                            x       y       z     vdW  Elec       q    Type
REMARK                         _______ _______ _______ _____ _____    ______ ____
ROOT
ATOM      1  C   UNL     1      -1.553   0.002   1.926  0.00  0.00    +0.096 C 
ENDROOT
BRANCH   1   8
ATOM      2  C   UNL     1      -0.018   1.467   0.010  0.00  0.00    +0.136 C 
ATOM      3  C   UNL     1       1.430   1.970  -0.001  0.00  0.00    +0.180 C 
ATOM      4  O   UNL     1       2.135   1.351  -1.079  0.00  0.00    -0.364 OA
ATOM      5  C   UNL     1       2.234  -0.071  -0.974  0.00  0.00    +0.221 C 
ATOM      6  C   UNL     1       0.827  -0.679  -1.012  0.00  0.00    +0.149 C 
ATOM      7  N   UNL     1       0.002  -0.004   0.002  0.00  0.00    -0.296 N 
ATOM      8  C   UNL     1      -0.715  -0.713   0.897  0.00  0.00    +0.216 C 
ATOM      9  O   UNL     1      -0.685  -1.925   0.874  0.00  0.00    -0.276 OA
BRANCH   5  10
ATOM     10  C   UNL     1       3.046  -0.606  -2.125  0.00  0.00    +0.241 C 
ATOM     11  O   UNL     1       3.419   0.142  -3.004  0.00  0.00    -0.273 OA
ATOM     12  N   UNL     1       3.357  -1.917  -2.179  0.00  0.00    -0.327 N 
ATOM     13  H   UNL     1       3.058  -2.515  -1.476  0.00  0.00    +0.145 HD
ATOM     14  H   UNL     1       3.879  -2.261  -2.920  0.00  0.00    +0.145 HD
ENDBRANCH   5  10
ENDBRANCH   1   8
BRANCH   1  15
ATOM     15  C   UNL     1      -2.259  -1.027   2.811  0.00  0.00    +0.009 C 
BRANCH  15  16
ATOM     16  C   UNL     1      -3.110  -0.302   3.856  0.00  0.00    +0.002 C 
BRANCH  16  17
ATOM     17  C   UNL     1      -3.816  -1.331   4.742  0.00  0.00    +0.016 C 
BRANCH  17  18
ATOM     18  C   UNL     1      -4.667  -0.606   5.786  0.00  0.00    +0.069 C 
ATOM     19  C   UNL     1      -5.367  -1.611   6.725  0.00  0.00    +0.108 C 
ATOM     20  C   UNL     1      -5.399  -1.165   8.190  0.00  0.00    +0.105 C 
ATOM     21  C   UNL     1      -4.724   0.201   8.437  0.00  0.00    +0.093 C 
ATOM     22  S   UNL     1      -3.606   0.325   6.975  0.00  0.00    -0.154 S 
ATOM     23  N   UNL     1      -6.833  -1.056   8.500  0.00  0.00    -0.294 N 
ATOM     24  C   UNL     1      -7.541  -1.381   7.409  0.00  0.00    +0.300 C 
ATOM     25  O   UNL     1      -8.757  -1.376   7.381  0.00  0.00    -0.253 OA
ATOM     26  N   UNL     1      -6.787  -1.710   6.351  0.00  0.00    -0.294 N 
ATOM     27  H   UNL     1      -7.207  -0.792   9.355  0.00  0.00    +0.151 HD
ATOM     28  H   UNL     1      -7.123  -1.972   5.480  0.00  0.00    +0.151 HD
ENDBRANCH  17  18
ENDBRANCH  16  17
ENDBRANCH  15  16
ENDBRANCH   1  15
TORSDOF 6
