REMARK  Name = ZINC60202450
REMARK  8 active torsions:
REMARK  status: ('A' for Active; 'I' for Inactive)
REMARK    1  A    between atoms: C_1  and  C_2
REMARK    2  A    between atoms: C_2  and  C_4
REMARK    3  A    between atoms: C_2  and  N_12
REMARK    4  A    between atoms: C_13  and  C_15
REMARK    5  A    between atoms: C_15  and  O_16
REMARK    6  A    between atoms: O_16  and  C_17
REMARK    7  A    between atoms: C_17  and  C_19
REMARK    8  A    between atoms: C_21  and  N_26
REMARK                            x       y       z     vdW  Elec       q    Type
REMARK                         _______ _______ _______ _____ _____    ______ ____
ROOT
ATOM      1  N   UNL     1       0.711  -0.489   1.189  0.00  0.00    -0.306 N 
ATOM      2  C   UNL     1       2.054  -0.600   1.174  0.00  0.00    +0.251 C 
ATOM      3  O   UNL     1       2.676  -0.297   0.177  0.00  0.00    -0.272 OA
ATOM      4  H   UNL     1       0.213  -0.731   1.986  0.00  0.00    +0.149 HD
ENDROOT
BRANCH   1   6
ATOM      5  C   UNL     1      -0.019   1.526   0.010  0.00  0.00    +0.033 C 
ATOM      6  C   UNL     1       0.002  -0.004   0.002  0.00  0.00    +0.102 C 
BRANCH   6   7
ATOM      7  C   UNL     1      -1.412  -0.526   0.013  0.00  0.00    -0.009 A 
ATOM      8  C   UNL     1      -2.014  -0.864   1.210  0.00  0.00    +0.008 A 
ATOM      9  C   UNL     1      -3.311  -1.342   1.221  0.00  0.00    +0.020 A 
ATOM     10  C   UNL     1      -4.007  -1.483   0.033  0.00  0.00    +0.042 A 
ATOM     11  C   UNL     1      -3.404  -1.144  -1.165  0.00  0.00    +0.040 A 
ATOM     12  C   UNL     1      -2.108  -0.661  -1.175  0.00  0.00    +0.047 A 
ATOM     13 CL   UNL     1      -1.353  -0.230  -2.678  0.00  0.00    -0.083 Cl
ATOM     14 CL   UNL     1      -5.635  -2.084   0.046  0.00  0.00    -0.083 Cl
ENDBRANCH   6   7
ENDBRANCH   1   6
BRANCH   2  15
ATOM     15  C   UNL     1       2.783  -1.099   2.395  0.00  0.00    +0.328 C 
BRANCH  15  16
ATOM     16  O   UNL     1       4.187  -1.127   2.133  0.00  0.00    -0.452 OA
BRANCH  16  17
ATOM     17  C   UNL     1       4.987  -1.552   3.130  0.00  0.00    +0.341 C 
ATOM     18  O   UNL     1       4.505  -1.890   4.193  0.00  0.00    -0.245 OA
BRANCH  17  19
ATOM     19  C   UNL     1       6.449  -1.607   2.931  0.00  0.00    +0.079 A 
ATOM     20  C   UNL     1       7.006  -1.214   1.713  0.00  0.00    +0.039 A 
ATOM     21  C   UNL     1       8.379  -1.268   1.534  0.00  0.00    +0.025 A 
ATOM     22  C   UNL     1       9.198  -1.713   2.566  0.00  0.00    +0.024 A 
ATOM     23  C   UNL     1       8.649  -2.103   3.772  0.00  0.00    +0.022 A 
ATOM     24  C   UNL     1       7.281  -2.048   3.964  0.00  0.00    +0.055 A 
ATOM     25 CL   UNL     1       6.597  -2.532   5.484  0.00  0.00    -0.083 Cl
BRANCH  21  26
ATOM     26  N   UNL     1       8.941  -0.875   0.316  0.00  0.00    -0.358 N 
ATOM     27  H   UNL     1       8.370  -0.565  -0.404  0.00  0.00    +0.142 HD
ATOM     28  H   UNL     1       9.902  -0.913   0.191  0.00  0.00    +0.142 HD
ENDBRANCH  21  26
ENDBRANCH  17  19
ENDBRANCH  16  17
ENDBRANCH  15  16
ENDBRANCH   2  15
TORSDOF 7
