REMARK  Name = ZINC16855523
REMARK  6 active torsions:
REMARK  status: ('A' for Active; 'I' for Inactive)
REMARK    1  A    between atoms: C_1  and  C_2
REMARK    2  A    between atoms: C_4  and  C_9
REMARK    3  A    between atoms: C_6  and  S_8
REMARK    4  A    between atoms: C_10  and  C_11
REMARK    5  A    between atoms: C_10  and  C_12
REMARK    6  A    between atoms: C_15  and  N_18
REMARK                            x       y       z     vdW  Elec       q    Type
REMARK                         _______ _______ _______ _____ _____    ______ ____
ROOT
ATOM      1  C   UNL     1      -4.149   2.688   2.410  0.00  0.00    +0.031 C 
ATOM      2  C   UNL     1      -4.744   2.817   3.609  0.00  0.00    -0.041 C 
ATOM      3  C   UNL     1      -3.911   3.055   4.842  0.00  0.00    +0.044 C 
ENDROOT
BRANCH   1   7
ATOM      4  C   UNL     1       0.054   2.692  -0.303  0.00  0.00    +0.066 C 
ATOM      5  C   UNL     1      -0.693   2.944   0.981  0.00  0.00    +0.043 A 
ATOM      6  C   UNL     1      -2.051   2.697   1.058  0.00  0.00    +0.051 A 
ATOM      7  C   UNL     1      -2.705   2.940   2.274  0.00  0.00    +0.069 A 
ATOM      8  N   UNL     1      -1.999   3.409   3.305  0.00  0.00    -0.223 NA
ATOM      9  C   UNL     1      -0.700   3.635   3.183  0.00  0.00    +0.186 A 
ATOM     10  N   UNL     1      -0.057   3.409   2.045  0.00  0.00    -0.227 NA
BRANCH   9  11
ATOM     11  S   UNL     1       0.197   4.254   4.567  0.00  0.00    -0.103 S 
ATOM     12  H   UNL     1       0.056   5.640   4.351  0.00  0.00    +0.110 HD
ENDBRANCH   9  11
ENDBRANCH   1   7
BRANCH   2  13
ATOM     13  C   UNL     1      -6.209   2.725   3.717  0.00  0.00    -0.022 A 
ATOM     14  C   UNL     1      -7.018   3.693   3.113  0.00  0.00    +0.010 A 
ATOM     15  C   UNL     1      -8.389   3.602   3.212  0.00  0.00    +0.023 A 
ATOM     16  C   UNL     1      -8.968   2.555   3.922  0.00  0.00    +0.025 A 
ATOM     17  C   UNL     1      -8.166   1.593   4.529  0.00  0.00    +0.023 A 
ATOM     18  C   UNL     1      -6.796   1.674   4.429  0.00  0.00    +0.010 A 
BRANCH  16  19
ATOM     19  N   UNL     1     -10.355   2.469   4.025  0.00  0.00    -0.358 N 
ATOM     20  H   UNL     1     -10.761   1.739   4.519  0.00  0.00    +0.142 HD
ATOM     21  H   UNL     1     -10.915   3.139   3.602  0.00  0.00    +0.142 HD
ENDBRANCH  16  19
ENDBRANCH   2  13
TORSDOF 4
