REMARK  Name = ZINC40091438
REMARK  6 active torsions:
REMARK  status: ('A' for Active; 'I' for Inactive)
REMARK    1  A    between atoms: C_1  and  C_2
REMARK    2  A    between atoms: C_2  and  C_4
REMARK    3  A    between atoms: C_2  and  N_15
REMARK    4  A    between atoms: N_18  and  C_19
REMARK    5  A    between atoms: C_19  and  C_21
REMARK    6  A    between atoms: C_19  and  C_22
REMARK                            x       y       z     vdW  Elec       q    Type
REMARK                         _______ _______ _______ _____ _____    ______ ____
ROOT
ATOM      1  N   UNL     1       0.688  -0.476  -1.203  0.00  0.00    -0.293 N 
ATOM      2  C   UNL     1       0.006  -0.608  -2.358  0.00  0.00    +0.301 C 
ATOM      3  O   UNL     1      -1.178  -0.335  -2.400  0.00  0.00    -0.253 OA
ATOM      4  N   UNL     1       0.637  -1.043  -3.467  0.00  0.00    -0.293 N 
ATOM      5  H   UNL     1       1.632  -0.695  -1.170  0.00  0.00    +0.151 HD
ATOM      6  H   UNL     1       1.582  -1.261  -3.434  0.00  0.00    +0.151 HD
ENDROOT
BRANCH   1   8
ATOM      7  C   UNL     1      -0.019   1.526   0.010  0.00  0.00    +0.033 C 
ATOM      8  C   UNL     1       0.002  -0.004   0.002  0.00  0.00    +0.102 C 
BRANCH   8   9
ATOM      9  C   UNL     1       0.731  -0.503   1.223  0.00  0.00    -0.024 A 
ATOM     10  C   UNL     1       2.113  -0.513   1.244  0.00  0.00    +0.009 A 
ATOM     11  C   UNL     1       2.789  -0.969   2.362  0.00  0.00    +0.050 A 
ATOM     12  C   UNL     1       2.075  -1.417   3.460  0.00  0.00    +0.162 A 
ATOM     13  C   UNL     1       0.688  -1.407   3.439  0.00  0.00    +0.162 A 
ATOM     14  C   UNL     1       0.015  -0.945   2.321  0.00  0.00    +0.055 A 
ATOM     15  O   UNL     1      -0.006  -1.849   4.528  0.00  0.00    -0.488 OA
ATOM     16  C   UNL     1       0.085  -3.249   4.800  0.00  0.00    +0.232 C 
ATOM     17  C   UNL     1       1.334  -3.561   5.609  0.00  0.00    +0.082 C 
ATOM     18  C   UNL     1       2.611  -3.267   4.839  0.00  0.00    +0.232 C 
ATOM     19  O   UNL     1       2.730  -1.868   4.570  0.00  0.00    -0.488 OA
ENDBRANCH   8   9
ENDBRANCH   1   8
BRANCH   4  20
ATOM     20  C   UNL     1      -0.104  -1.186  -4.723  0.00  0.00    +0.102 C 
ATOM     21  C   UNL     1      -0.141   0.160  -5.449  0.00  0.00    +0.033 C 
BRANCH  20  22
ATOM     22  C   UNL     1       0.578  -2.208  -5.595  0.00  0.00    -0.024 A 
ATOM     23  C   UNL     1       1.959  -2.249  -5.659  0.00  0.00    +0.009 A 
ATOM     24  C   UNL     1       2.592  -3.185  -6.457  0.00  0.00    +0.050 A 
ATOM     25  C   UNL     1       1.837  -4.083  -7.192  0.00  0.00    +0.162 A 
ATOM     26  C   UNL     1       0.451  -4.043  -7.128  0.00  0.00    +0.162 A 
ATOM     27  C   UNL     1      -0.179  -3.107  -6.324  0.00  0.00    +0.055 A 
ATOM     28  O   UNL     1      -0.284  -4.933  -7.855  0.00  0.00    -0.488 OA
ATOM     29  C   UNL     1      -0.240  -4.768  -9.274  0.00  0.00    +0.232 C 
ATOM     30  C   UNL     1       0.978  -5.464  -9.861  0.00  0.00    +0.082 C 
ATOM     31  C   UNL     1       2.283  -4.841  -9.391  0.00  0.00    +0.232 C 
ATOM     32  O   UNL     1       2.448  -5.013  -7.982  0.00  0.00    -0.488 OA
ENDBRANCH  20  22
ENDBRANCH   4  20
TORSDOF 4
