REMARK  Name = ZINC43771840
REMARK  6 active torsions:
REMARK  status: ('A' for Active; 'I' for Inactive)
REMARK    1  A    between atoms: C_1  and  C_2
REMARK    2  A    between atoms: N_6  and  C1*_13
REMARK    3  A    between atoms: C2*_15  and  O2*_25
REMARK    4  A    between atoms: C3*_17  and  O3*_24
REMARK    5  A    between atoms: C4*_19  and  C5*_22
REMARK    6  A    between atoms: C5*_22  and  O5*_23
REMARK                            x       y       z     vdW  Elec       q    Type
REMARK                         _______ _______ _______ _____ _____    ______ ____
ROOT
ATOM      1  C   UNL     1      -0.018   1.503   0.010  0.00  0.00    +0.063 C 
ATOM      2  C   UNL     1       0.002  -0.004   0.002  0.00  0.00    +0.015 A 
ATOM      3  C   UNL     1      -1.085  -0.786   0.003  0.00  0.00    +0.033 A 
ATOM      4  C   UNL     1      -0.609  -2.174  -0.007  0.00  0.00    +0.035 A 
ATOM      5  C   UNL     1      -1.216  -3.410  -0.010  0.00  0.00    +0.105 A 
ATOM      6  N   UNL     1      -0.436  -4.516  -0.020  0.00  0.00    -0.269 N 
ATOM      7  C   UNL     1       0.903  -4.407  -0.025  0.00  0.00    +0.352 A 
ATOM      8  O   UNL     1       1.580  -5.423  -0.034  0.00  0.00    -0.244 OA
ATOM      9  N   UNL     1       1.514  -3.226  -0.022  0.00  0.00    -0.175 NA
ATOM     10  C   UNL     1       0.810  -2.100  -0.013  0.00  0.00    +0.145 A 
ATOM     11  N   UNL     1       1.140  -0.776  -0.013  0.00  0.00    -0.343 N 
ATOM     12  H   UNL     1       2.046  -0.430  -0.021  0.00  0.00    +0.167 HD
ENDROOT
BRANCH   6  13
ATOM     13  C1* UNL     1      -1.057  -5.842  -0.023  0.00  0.00    +0.255 C 
ATOM     14  C2* UNL     1      -0.706  -6.598  -1.324  0.00  0.00    +0.195 C 
ATOM     15  C3* UNL     1      -0.525  -8.063  -0.870  0.00  0.00    +0.178 C 
ATOM     16  C4* UNL     1      -0.789  -8.020   0.651  0.00  0.00    +0.177 C 
ATOM     17  O4* UNL     1      -0.511  -6.656   1.038  0.00  0.00    -0.346 OA
BRANCH  15  18
ATOM     18  O3* UNL     1      -1.474  -8.910  -1.522  0.00  0.00    -0.386 OA
ATOM     19  H3* UNL     1      -1.405  -9.842  -1.274  0.00  0.00    +0.210 HD
ENDBRANCH  15  18
BRANCH  14  20
ATOM     20  O2* UNL     1       0.507  -6.091  -1.885  0.00  0.00    -0.385 OA
ATOM     21  H2* UNL     1       0.775  -6.530  -2.703  0.00  0.00    +0.210 HD
ENDBRANCH  14  20
BRANCH  16  22
ATOM     22  C5* UNL     1       0.147  -8.985   1.382  0.00  0.00    +0.190 C 
BRANCH  22  23
ATOM     23  O5* UNL     1      -0.190  -9.017   2.770  0.00  0.00    -0.392 OA
ATOM     24  H5* UNL     1       0.364  -9.610   3.296  0.00  0.00    +0.210 HD
ENDBRANCH  22  23
ENDBRANCH  16  22
ENDBRANCH   6  13
TORSDOF 5
