REMARK  Name = ZINC44933411
REMARK  4 active torsions:
REMARK  status: ('A' for Active; 'I' for Inactive)
REMARK    1  A    between atoms: C_1  and  C_2
REMARK    2  A    between atoms: C_2  and  N_9
REMARK    3  A    between atoms: C_11  and  C_19
REMARK    4  A    between atoms: C_19  and  N_21
REMARK                            x       y       z     vdW  Elec       q    Type
REMARK                         _______ _______ _______ _____ _____    ______ ____
ROOT
ATOM      1  N   UNL     1      -2.173   0.863   0.650  0.00  0.00    -0.323 N 
ATOM      2  C   UNL     1      -2.729   0.451  -0.547  0.00  0.00    +0.106 A 
ATOM      3  C   UNL     1      -3.663  -0.600  -0.559  0.00  0.00    +0.041 A 
ATOM      4  C   UNL     1      -4.209  -0.996  -1.785  0.00  0.00    +0.019 A 
ATOM      5  C   UNL     1      -3.806  -0.336  -2.934  0.00  0.00    -0.027 A 
ATOM      6  C   UNL     1      -2.882   0.690  -2.845  0.00  0.00    +0.021 A 
ATOM      7  N   UNL     1      -2.384   1.050  -1.673  0.00  0.00    -0.346 N 
ATOM      8  C   UNL     1      -2.609   1.246  -4.229  0.00  0.00    +0.054 C 
ATOM      9  C   UNL     1      -3.124   0.170  -5.207  0.00  0.00    +0.011 C 
ATOM     10  C   UNL     1      -4.214  -0.539  -4.376  0.00  0.00    +0.037 C 
ATOM     11  H   UNL     1      -2.361   0.374   1.467  0.00  0.00    +0.148 HD
ATOM     12  H   UNL     1      -1.741   1.776  -1.640  0.00  0.00    +0.167 HD
ENDROOT
BRANCH   1  14
ATOM     13  C   UNL     1      -2.052   3.225   0.080  0.00  0.00    +0.033 C 
ATOM     14  C   UNL     1      -1.300   2.039   0.686  0.00  0.00    +0.051 C 
ATOM     15  C   UNL     1      -0.065   1.754  -0.168  0.00  0.00    +0.049 C 
ATOM     16  C   UNL     1       1.153   2.564   0.357  0.00  0.00    +0.168 C 
ATOM     17  S   UNL     1       0.873   2.397   2.175  0.00  0.00    -0.029 S 
ATOM     18  O   UNL     1       1.358   1.133   2.608  0.00  0.00    -0.174 OA
ATOM     19  O   UNL     1       1.313   3.580   2.827  0.00  0.00    -0.174 OA
ATOM     20  C   UNL     1      -0.968   2.363   2.156  0.00  0.00    +0.191 C 
ENDBRANCH   1  14
BRANCH   3  21
ATOM     21  C   UNL     1      -4.058  -1.270   0.692  0.00  0.00    +0.080 C 
ATOM     22  S   UNL     1      -2.866  -1.718   1.836  0.00  0.00    -0.035 S 
BRANCH  21  23
ATOM     23  N   UNL     1      -5.358  -1.530   0.936  0.00  0.00    -0.352 N 
ATOM     24  H   UNL     1      -6.033  -1.276   0.287  0.00  0.00    +0.143 HD
ATOM     25  H   UNL     1      -5.618  -1.971   1.760  0.00  0.00    +0.143 HD
ENDBRANCH  21  23
ENDBRANCH   3  21
TORSDOF 3
