REMARK  Name = ZINC37656316
REMARK  5 active torsions:
REMARK  status: ('A' for Active; 'I' for Inactive)
REMARK    1  A    between atoms: N_4  and  S_11
REMARK    2  A    between atoms: C_5  and  C_8
REMARK    3  A    between atoms: S_11  and  N_14
REMARK    4  A    between atoms: C_17  and  C_20
REMARK    5  A    between atoms: C_20  and  O_21
REMARK                            x       y       z     vdW  Elec       q    Type
REMARK                         _______ _______ _______ _____ _____    ______ ____
ROOT
ATOM      1  S   UNL     1       3.398  -0.722   1.769  0.00  0.00    +0.100 S 
ATOM      2  O   UNL     1       3.041  -2.082   1.566  0.00  0.00    -0.141 OA
ATOM      3  O   UNL     1       4.458  -0.098   1.057  0.00  0.00    -0.141 OA
ENDROOT
BRANCH   1   7
ATOM      4  C   UNL     1      -0.065   1.992   1.996  0.00  0.00    +0.003 C 
ATOM      5  C   UNL     1      -0.050   0.613   2.658  0.00  0.00    +0.017 C 
ATOM      6  C   UNL     1       0.704  -0.373   1.759  0.00  0.00    +0.111 C 
ATOM      7  N   UNL     1       2.037   0.174   1.472  0.00  0.00    -0.153 NA
ATOM      8  C   UNL     1       2.140   1.530   0.918  0.00  0.00    +0.193 C 
ATOM      9  C   UNL     1       1.371   2.494   1.826  0.00  0.00    +0.032 C 
BRANCH   8  10
ATOM     10  C   UNL     1       3.589   1.941   0.853  0.00  0.00    +0.375 C 
ATOM     11  O   UNL     1       4.172   1.953  -0.218  0.00  0.00    -0.245 OA
ATOM     12  O   UNL     1       4.178   2.261   1.871  0.00  0.00    -0.245 OA
ENDBRANCH   8  10
ENDBRANCH   1   7
BRANCH   1  13
ATOM     13  N   UNL     1       3.749  -0.560   3.379  0.00  0.00    -0.166 NA
ATOM     14  C   UNL     1       4.623   0.523   3.849  0.00  0.00    +0.111 C 
ATOM     15  C   UNL     1       5.756  -0.083   4.683  0.00  0.00    +0.023 C 
ATOM     16  C   UNL     1       5.158  -0.939   5.802  0.00  0.00    +0.017 C 
ATOM     17  C   UNL     1       4.343  -2.082   5.193  0.00  0.00    +0.023 C 
ATOM     18  C   UNL     1       3.189  -1.494   4.365  0.00  0.00    +0.111 C 
BRANCH  16  19
ATOM     19  C   UNL     1       6.286  -1.519   6.658  0.00  0.00    +0.159 C 
BRANCH  19  20
ATOM     20  O   UNL     1       5.727  -2.221   7.770  0.00  0.00    -0.395 OA
ATOM     21  H   UNL     1       6.386  -2.616   8.357  0.00  0.00    +0.209 HD
ENDBRANCH  19  20
ENDBRANCH  16  19
ENDBRANCH   1  13
TORSDOF 5
