REMARK  Name = ZINC41069900
REMARK  3 active torsions:
REMARK  status: ('A' for Active; 'I' for Inactive)
REMARK    1  A    between atoms: C_6  and  S_7
REMARK    2  A    between atoms: S_7  and  N_10
REMARK    3  A    between atoms: N_15  and  N_16
REMARK                            x       y       z     vdW  Elec       q    Type
REMARK                         _______ _______ _______ _____ _____    ______ ____
ROOT
ATOM      1  C   UNL     1      -0.017   1.379   0.010  0.00  0.00    +0.048 A 
ATOM      2  C   UNL     1       1.195   2.058   0.002  0.00  0.00    +0.038 A 
ATOM      3  C   UNL     1       2.374   1.339  -0.013  0.00  0.00    +0.128 A 
ATOM      4  N   UNL     1       2.361   0.019  -0.021  0.00  0.00    -0.236 NA
ATOM      5  C   UNL     1       1.227  -0.664  -0.014  0.00  0.00    +0.159 A 
ATOM      6  C   UNL     1       0.002  -0.004   0.002  0.00  0.00    +0.147 A 
ATOM      7  N   UNL     1       1.260  -2.054  -0.022  0.00  0.00    -0.266 N 
ATOM      8 BR   UNL     1       1.231   3.949   0.011  0.00  0.00    -0.049 Br
ATOM      9  H   UNL     1       0.432  -2.559  -0.017  0.00  0.00    +0.167 HD
ENDROOT
BRANCH   6  10
ATOM     10  S   UNL     1      -1.505  -0.917   0.012  0.00  0.00    +0.064 S 
ATOM     11  O   UNL     1      -1.377  -1.900   1.031  0.00  0.00    -0.153 OA
ATOM     12  O   UNL     1      -2.558   0.036   0.001  0.00  0.00    -0.153 OA
BRANCH  10  13
ATOM     13  N   UNL     1      -1.591  -1.735  -1.425  0.00  0.00    -0.176 NA
ATOM     14  C   UNL     1      -2.196  -1.227  -2.665  0.00  0.00    +0.109 C 
ATOM     15  C   UNL     1      -2.068  -2.340  -3.727  0.00  0.00    +0.018 C 
ATOM     16  C   UNL     1      -1.905  -3.622  -2.869  0.00  0.00    +0.018 C 
ATOM     17  C   UNL     1      -1.068  -3.091  -1.675  0.00  0.00    +0.109 C 
ENDBRANCH  10  13
ENDBRANCH   6  10
BRANCH   7  18
ATOM     18  N   UNL     1       2.459  -2.709  -0.038  0.00  0.00    -0.255 NA
ATOM     19  H   UNL     1       3.036  -2.425   0.739  0.00  0.00    +0.140 HD
ATOM     20  H   UNL     1       2.325  -3.709  -0.043  0.00  0.00    +0.140 HD
ENDBRANCH   7  18
TORSDOF 3
