REMARK  Name = ZINC04540781
REMARK  9 active torsions:
REMARK  status: ('A' for Active; 'I' for Inactive)
REMARK    1  A    between atoms: C_1  and  C_2
REMARK    2  A    between atoms: C_7  and  C_8
REMARK    3  A    between atoms: C_11  and  C_13
REMARK    4  A    between atoms: C_13  and  C_14
REMARK    5  A    between atoms: C_13  and  C_22
REMARK    6  A    between atoms: C_15  and  C_21
REMARK    7  A    between atoms: C_19  and  O_20
REMARK    8  A    between atoms: C_23  and  C_29
REMARK    9  A    between atoms: C_27  and  O_28
REMARK                            x       y       z     vdW  Elec       q    Type
REMARK                         _______ _______ _______ _____ _____    ______ ____
ROOT
ATOM      1  C   UNL     1       1.255   2.562   4.804  0.00  0.00    +0.129 C 
ENDROOT
BRANCH   1   2
ATOM      2  C   UNL     1       2.667   2.039   4.743  0.00  0.00    +0.051 A 
ATOM      3  C   UNL     1       3.058   0.705   4.889  0.00  0.00    +0.068 A 
ATOM      4  N   UNL     1       4.359   0.643   4.775  0.00  0.00    -0.176 NA
ATOM      5  N   UNL     1       4.844   1.939   4.552  0.00  0.00    -0.247 N 
ATOM      6  H   UNL     1       5.774   2.187   4.431  0.00  0.00    +0.192 HD
ATOM      7  C   UNL     1       3.787   2.780   4.532  0.00  0.00    +0.213 A 
ATOM      8  C   UNL     1       2.137  -0.463   5.136  0.00  0.00    +0.068 C 
BRANCH   7   9
ATOM      9  O   UNL     1       3.835   4.123   4.337  0.00  0.00    -0.492 OA
ATOM     10  H   UNL     1       4.009   4.631   5.141  0.00  0.00    +0.294 HD
ENDBRANCH   7   9
ENDBRANCH   1   2
BRANCH   1  11
ATOM     11  C   UNL     1       1.163   3.852   4.030  0.00  0.00    +0.051 A 
ATOM     12  C   UNL     1       0.691   5.030   4.498  0.00  0.00    +0.041 A 
ATOM     13  N   UNL     1       0.777   5.936   3.501  0.00  0.00    -0.278 N 
ATOM     14  N   UNL     1       1.321   5.295   2.380  0.00  0.00    -0.136 NA
ATOM     15  H   UNL     1       0.510   6.867   3.552  0.00  0.00    +0.189 HD
ATOM     16  C   UNL     1       1.558   4.045   2.697  0.00  0.00    +0.236 A 
ATOM     17  C   UNL     1       0.162   5.286   5.886  0.00  0.00    +0.065 C 
BRANCH  16  18
ATOM     18  O   UNL     1       2.092   3.101   1.878  0.00  0.00    -0.491 OA
ATOM     19  H   UNL     1       1.435   2.606   1.368  0.00  0.00    +0.294 HD
ENDBRANCH  16  18
ENDBRANCH   1  11
BRANCH   1  23
ATOM     20  C   UNL     1      -0.626   0.196   2.752  0.00  0.00    +0.136 A 
ATOM     21  C   UNL     1      -1.318   0.079   3.916  0.00  0.00    +0.050 A 
ATOM     22  C   UNL     1      -0.707   0.949   4.841  0.00  0.00    +0.046 A 
ATOM     23  C   UNL     1       0.317   1.548   4.202  0.00  0.00    +0.118 A 
ATOM     24  O   UNL     1       0.367   1.086   2.942  0.00  0.00    -0.459 OA
BRANCH  20  31
ATOM     25  C   UNL     1      -0.823   1.658   0.263  0.00  0.00    +0.044 C 
ATOM     26  C   UNL     1      -1.006   0.162   0.290  0.00  0.00    -0.040 A 
ATOM     27  C   UNL     1      -1.266  -0.524  -0.878  0.00  0.00    +0.005 A 
ATOM     28  C   UNL     1      -1.435  -1.896  -0.856  0.00  0.00    +0.020 A 
ATOM     29  C   UNL     1      -1.345  -2.591   0.339  0.00  0.00    +0.042 A 
ATOM     30  C   UNL     1      -1.087  -1.917   1.515  0.00  0.00    +0.031 A 
ATOM     31  C   UNL     1      -0.909  -0.532   1.497  0.00  0.00    +0.022 A 
ATOM     32 CL   UNL     1      -1.559  -4.314   0.357  0.00  0.00    -0.084 Cl
ENDBRANCH  20  31
ENDBRANCH   1  23
TORSDOF 6
