REMARK  Name = ZINC43741650
REMARK  11 active torsions:
REMARK  status: ('A' for Active; 'I' for Inactive)
REMARK    1  A    between atoms: C_1  and  O_2
REMARK    2  A    between atoms: O_2  and  C_3
REMARK    3  A    between atoms: C_5  and  O_37
REMARK    4  A    between atoms: C_7  and  O_36
REMARK    5  A    between atoms: C_9  and  O_35
REMARK    6  A    between atoms: C_11  and  C_14
REMARK    7  A    between atoms: C_14  and  O_15
REMARK    8  A    between atoms: O_15  and  C_16
REMARK    9  A    between atoms: C_16  and  C_17
REMARK   10  A    between atoms: C_16  and  C_23
REMARK   11  A    between atoms: C_16  and  C_29
REMARK                            x       y       z     vdW  Elec       q    Type
REMARK                         _______ _______ _______ _____ _____    ______ ____
ROOT
ATOM      1  C   UNL     1      -2.871   1.641  -4.816  0.00  0.00    +0.144 C 
ENDROOT
BRANCH   1   2
ATOM      2  C   UNL     1      -2.148   1.373  -6.111  0.00  0.00    -0.007 A 
ATOM      3  C   UNL     1      -2.865   1.208  -7.281  0.00  0.00    +0.007 A 
ATOM      4  C   UNL     1      -2.202   0.962  -8.469  0.00  0.00    +0.000 A 
ATOM      5  C   UNL     1      -0.822   0.881  -8.486  0.00  0.00    +0.000 A 
ATOM      6  C   UNL     1      -0.105   1.046  -7.316  0.00  0.00    +0.000 A 
ATOM      7  C   UNL     1      -0.768   1.297  -6.129  0.00  0.00    +0.007 A 
ENDBRANCH   1   2
BRANCH   1   8
ATOM      8  C   UNL     1      -4.188   0.908  -4.814  0.00  0.00    -0.007 A 
ATOM      9  C   UNL     1      -5.328   1.536  -4.349  0.00  0.00    +0.007 A 
ATOM     10  C   UNL     1      -6.536   0.864  -4.347  0.00  0.00    +0.000 A 
ATOM     11  C   UNL     1      -6.604  -0.436  -4.811  0.00  0.00    +0.000 A 
ATOM     12  C   UNL     1      -5.464  -1.064  -5.278  0.00  0.00    +0.000 A 
ATOM     13  C   UNL     1      -4.257  -0.390  -5.283  0.00  0.00    +0.007 A 
ENDBRANCH   1   8
BRANCH   1  14
ATOM     14  C   UNL     1      -3.120   3.121  -4.677  0.00  0.00    -0.007 A 
ATOM     15  C   UNL     1      -3.298   3.901  -5.804  0.00  0.00    +0.007 A 
ATOM     16  C   UNL     1      -3.526   5.258  -5.677  0.00  0.00    +0.000 A 
ATOM     17  C   UNL     1      -3.576   5.836  -4.422  0.00  0.00    +0.000 A 
ATOM     18  C   UNL     1      -3.399   5.056  -3.295  0.00  0.00    +0.000 A 
ATOM     19  C   UNL     1      -3.175   3.698  -3.422  0.00  0.00    +0.007 A 
ENDBRANCH   1  14
BRANCH   1  20
ATOM     20  O   UNL     1      -2.072   1.188  -3.721  0.00  0.00    -0.357 OA
BRANCH  20  21
ATOM     21  C   UNL     1      -1.777  -0.210  -3.757  0.00  0.00    +0.196 C 
BRANCH  21  26
ATOM     22  C   UNL     1       1.218  -0.186  -1.534  0.00  0.00    +0.281 C 
ATOM     23  C   UNL     1       1.516  -1.686  -1.464  0.00  0.00    +0.201 C 
ATOM     24  C   UNL     1       0.197  -2.455  -1.333  0.00  0.00    +0.179 C 
ATOM     25  C   UNL     1      -0.709  -2.098  -2.515  0.00  0.00    +0.177 C 
ATOM     26  C   UNL     1      -0.921  -0.582  -2.545  0.00  0.00    +0.178 C 
ATOM     27  O   UNL     1       0.346   0.074  -2.636  0.00  0.00    -0.341 OA
BRANCH  22  29
ATOM     28  C   UNL     1       0.369   1.641  -0.236  0.00  0.00    +0.197 C 
ATOM     29  O   UNL     1       0.590   0.232  -0.320  0.00  0.00    -0.352 OA
ENDBRANCH  22  29
BRANCH  25  30
ATOM     30  O   UNL     1      -1.969  -2.755  -2.366  0.00  0.00    -0.386 OA
ATOM     31  H   UNL     1      -1.909  -3.719  -2.336  0.00  0.00    +0.210 HD
ENDBRANCH  25  30
BRANCH  24  32
ATOM     32  O   UNL     1       0.461  -3.860  -1.339  0.00  0.00    -0.386 OA
ATOM     33  H   UNL     1       1.035  -4.155  -0.619  0.00  0.00    +0.210 HD
ENDBRANCH  24  32
BRANCH  23  34
ATOM     34  O   UNL     1       2.192  -2.095  -2.654  0.00  0.00    -0.384 OA
ATOM     35  H   UNL     1       3.035  -1.644  -2.802  0.00  0.00    +0.210 HD
ENDBRANCH  23  34
ENDBRANCH  21  26
ENDBRANCH  20  21
ENDBRANCH   1  20
TORSDOF 10
