REMARK  Name = ZINC06304976
REMARK  5 active torsions:
REMARK  status: ('A' for Active; 'I' for Inactive)
REMARK    1  A    between atoms: C_1  and  C_2
REMARK    2  A    between atoms: N_4  and  C_5
REMARK    3  A    between atoms: C_15  and  C_17
REMARK    4  A    between atoms: C_17  and  O_18
REMARK    5  A    between atoms: O_18  and  C_19
REMARK                            x       y       z     vdW  Elec       q    Type
REMARK                         _______ _______ _______ _____ _____    ______ ____
ROOT
ATOM      1  C   UNL     1      -1.293   1.913   0.092  0.00  0.00    +0.037 A 
ATOM      2  C   UNL     1      -2.409   1.093   0.236  0.00  0.00    +0.025 A 
ATOM      3  C   UNL     1      -3.669   1.643   0.318  0.00  0.00    +0.033 A 
ATOM      4  C   UNL     1      -3.828   3.028   0.256  0.00  0.00    +0.111 A 
ATOM      5  C   UNL     1      -2.702   3.853   0.110  0.00  0.00    +0.159 A 
ATOM      6  C   UNL     1      -1.439   3.290   0.034  0.00  0.00    +0.071 A 
ATOM      7  O   UNL     1      -3.163   5.125   0.080  0.00  0.00    -0.424 OA
ATOM      8  C   UNL     1      -4.502   5.089   0.201  0.00  0.00    +0.295 A 
ATOM      9  N   UNL     1      -4.911   3.853   0.306  0.00  0.00    -0.195 NA
ATOM     10  N   UNL     1      -5.326   6.200   0.213  0.00  0.00    -0.237 N 
ATOM     11  C   UNL     1      -6.659   6.048   0.340  0.00  0.00    +0.258 C 
ATOM     12  O   UNL     1      -7.136   4.938   0.444  0.00  0.00    -0.272 OA
ATOM     13  H   UNL     1      -4.944   7.088   0.130  0.00  0.00    +0.159 HD
ENDROOT
BRANCH   1  17
ATOM     14  C   UNL     1       2.339   1.383  -0.745  0.00  0.00    +0.109 C 
ATOM     15  C   UNL     1       0.933   1.924  -0.751  0.00  0.00    +0.214 C 
ATOM     16  O   UNL     1       0.655   2.882  -1.441  0.00  0.00    -0.276 OA
ATOM     17  N   UNL     1      -0.016   1.344   0.009  0.00  0.00    -0.286 N 
ATOM     18  H   UNL     1       0.186   0.533   0.503  0.00  0.00    +0.155 HD
ENDBRANCH   1  17
BRANCH  11  19
ATOM     19  C   UNL     1      -7.557   7.259   0.353  0.00  0.00    +0.325 C 
BRANCH  19  20
ATOM     20  O   UNL     1      -8.916   6.842   0.497  0.00  0.00    -0.483 OA
BRANCH  20  21
ATOM     21  C   UNL     1      -9.861   7.818   0.528  0.00  0.00    +0.121 A 
ATOM     22  C   UNL     1      -9.487   9.150   0.427  0.00  0.00    +0.047 A 
ATOM     23  C   UNL     1     -10.449  10.141   0.452  0.00  0.00    +0.019 A 
ATOM     24  C   UNL     1     -11.784   9.806   0.589  0.00  0.00    +0.018 A 
ATOM     25  C   UNL     1     -12.159   8.479   0.696  0.00  0.00    +0.019 A 
ATOM     26  C   UNL     1     -11.200   7.485   0.665  0.00  0.00    +0.047 A 
ATOM     27 BR   UNL     1     -13.099  11.165   0.630  0.00  0.00    -0.050 Br
ENDBRANCH  20  21
ENDBRANCH  19  20
ENDBRANCH  11  19
TORSDOF 4
