REMARK  Name = ZINC41639323
REMARK  6 active torsions:
REMARK  status: ('A' for Active; 'I' for Inactive)
REMARK    1  A    between atoms: C_1  and  C_2
REMARK    2  A    between atoms: C_4  and  C_21
REMARK    3  A    between atoms: C_7  and  C_11
REMARK    4  A    between atoms: C_11  and  S_12
REMARK    5  A    between atoms: S_12  and  C_13
REMARK    6  A    between atoms: C_18  and  N_19
REMARK                            x       y       z     vdW  Elec       q    Type
REMARK                         _______ _______ _______ _____ _____    ______ ____
ROOT
ATOM      1  C   UNL     1       2.565  -5.340  -0.039  0.00  0.00    +0.131 C 
ENDROOT
BRANCH   1   8
ATOM      2  C   UNL     1      -0.018   1.503   0.010  0.00  0.00    +0.066 C 
ATOM      3  C   UNL     1       0.002  -0.004   0.002  0.00  0.00    +0.044 A 
ATOM      4  C   UNL     1      -1.205  -0.718   0.004  0.00  0.00    +0.044 A 
ATOM      5  C   UNL     1      -1.175  -2.073  -0.004  0.00  0.00    +0.025 A 
ATOM      6  N   UNL     1       0.032  -2.710  -0.014  0.00  0.00    -0.288 N 
ATOM      7  C   UNL     1       0.384  -4.032  -0.022  0.00  0.00    +0.118 A 
ATOM      8  C   UNL     1       1.733  -4.083  -0.029  0.00  0.00    +0.072 A 
ATOM      9  N   UNL     1       2.208  -2.834  -0.025  0.00  0.00    -0.215 NA
ATOM     10  C   UNL     1       1.194  -1.981  -0.015  0.00  0.00    +0.235 A 
ATOM     11  N   UNL     1       1.149  -0.641  -0.012  0.00  0.00    -0.217 NA
ATOM     12  C   UNL     1      -2.457  -2.865  -0.002  0.00  0.00    +0.064 C 
ENDBRANCH   1   8
BRANCH   1  13
ATOM     13  S   UNL     1       2.891  -5.835  -1.753  0.00  0.00    -0.117 S 
BRANCH  13  14
ATOM     14  C   UNL     1       3.860  -7.298  -1.597  0.00  0.00    +0.029 A 
ATOM     15  C   UNL     1       4.180  -7.790  -0.340  0.00  0.00    +0.017 A 
ATOM     16  C   UNL     1       4.941  -8.938  -0.219  0.00  0.00    +0.016 A 
ATOM     17  C   UNL     1       5.384  -9.601  -1.350  0.00  0.00    +0.020 A 
ATOM     18  C   UNL     1       5.069  -9.118  -2.607  0.00  0.00    +0.039 A 
ATOM     19  C   UNL     1       4.303  -7.970  -2.737  0.00  0.00    +0.039 A 
ATOM     20 BR   UNL     1       6.424 -11.170  -1.176  0.00  0.00    -0.050 Br
BRANCH  19  21
ATOM     21  N   UNL     1       3.979  -7.482  -4.009  0.00  0.00    -0.357 N 
ATOM     22  H   UNL     1       3.446  -6.676  -4.098  0.00  0.00    +0.142 HD
ATOM     23  H   UNL     1       4.287  -7.949  -4.801  0.00  0.00    +0.142 HD
ENDBRANCH  19  21
ENDBRANCH  13  14
ENDBRANCH   1  13
TORSDOF 4
