REMARK  Name = ZINC55134505
REMARK  5 active torsions:
REMARK  status: ('A' for Active; 'I' for Inactive)
REMARK    1  A    between atoms: C_1  and  C_2
REMARK    2  A    between atoms: C_5  and  C_12
REMARK    3  A    between atoms: C_9  and  N_11
REMARK    4  A    between atoms: C_17  and  C_20
REMARK    5  A    between atoms: C_20  and  C_21
REMARK                            x       y       z     vdW  Elec       q    Type
REMARK                         _______ _______ _______ _____ _____    ______ ____
ROOT
ATOM      1  C   UNL     1      -0.675  -2.549  -1.254  0.00  0.00    +0.219 C 
ATOM      2  O   UNL     1      -1.605  -1.777  -1.162  0.00  0.00    -0.275 OA
ATOM      3  N   UNL     1      -0.906  -3.873  -1.361  0.00  0.00    -0.301 N 
ATOM      4  C   UNL     1       0.210  -4.828  -1.372  0.00  0.00    +0.108 C 
ATOM      5  C   UNL     1       0.086  -5.717  -2.614  0.00  0.00    +0.023 C 
ATOM      6  C   UNL     1      -1.300  -6.367  -2.634  0.00  0.00    +0.001 C 
ATOM      7  C   UNL     1      -2.374  -5.280  -2.708  0.00  0.00    +0.023 C 
ATOM      8  C   UNL     1      -2.278  -4.387  -1.462  0.00  0.00    +0.108 C 
ENDROOT
BRANCH   1  12
ATOM      9  C   UNL     1      -0.067   1.633  -0.376  0.00  0.00    +0.006 C 
ATOM     10  C   UNL     1      -0.050   0.111  -0.229  0.00  0.00    -0.028 C 
ATOM     11  C   UNL     1       0.723  -0.506  -1.397  0.00  0.00    +0.014 C 
ATOM     12  C   UNL     1       0.740  -2.029  -1.251  0.00  0.00    +0.075 C 
ATOM     13  C   UNL     1       1.419  -2.407   0.067  0.00  0.00    +0.011 C 
ATOM     14  C   UNL     1       0.645  -1.791   1.235  0.00  0.00    -0.015 C 
ATOM     15  C   UNL     1       0.629  -0.268   1.089  0.00  0.00    -0.072 C 
BRANCH  15  16
ATOM     16  N   UNL     1      -0.114   0.324   2.209  0.00  0.00    +0.380 N 
ATOM     17  H   UNL     1      -1.061  -0.025   2.207  0.00  0.00    -0.090 HD
ATOM     18  H   UNL     1       0.334   0.074   3.079  0.00  0.00    -0.090 HD
ATOM     19  H   UNL     1      -0.125   1.328   2.113  0.00  0.00    -0.090 HD
ENDBRANCH  15  16
ENDBRANCH   1  12
BRANCH   6  20
ATOM     20  C   UNL     1      -1.415  -7.282  -3.855  0.00  0.00    +0.099 C 
BRANCH  20  21
ATOM     21  C   UNL     1      -2.730  -8.017  -3.810  0.00  0.00    +0.211 C 
ATOM     22  O   UNL     1      -3.500  -7.826  -2.892  0.00  0.00    -0.276 OA
ATOM     23  N   UNL     1      -3.052  -8.884  -4.790  0.00  0.00    -0.329 N 
ATOM     24  H   UNL     1      -2.437  -9.036  -5.524  0.00  0.00    +0.145 HD
ATOM     25  H   UNL     1      -3.899  -9.357  -4.760  0.00  0.00    +0.145 HD
ENDBRANCH  20  21
ENDBRANCH   6  20
TORSDOF 4
