REMARK  Name = ZINC20568968
REMARK  7 active torsions:
REMARK  status: ('A' for Active; 'I' for Inactive)
REMARK    1  A    between atoms: C_1  and  C_2
REMARK    2  A    between atoms: C_3  and  C_21
REMARK    3  A    between atoms: C_21  and  O_23
REMARK    4  A    between atoms: O_23  and  C_24
REMARK    5  A    between atoms: C_24  and  C_25
REMARK    6  A    between atoms: C_24  and  C_26
REMARK    7  A    between atoms: C_24  and  C_27
REMARK                            x       y       z     vdW  Elec       q    Type
REMARK                         _______ _______ _______ _____ _____    ______ ____
ROOT
ATOM      1  C   UNL     1       1.528   3.355   0.005  0.00  0.00    +0.061 C 
ATOM      2  C   UNL     1       1.240   1.876   0.000  0.00  0.00    +0.019 C 
ATOM      3  C   UNL     1       2.195   0.924  -0.014  0.00  0.00    +0.079 C 
ATOM      4  C   UNL     1       1.459  -0.392  -0.014  0.00  0.00    +0.151 C 
ATOM      5  C   UNL     1       1.798  -1.213  -1.225  0.00  0.00    -0.010 A 
ATOM      6  C   UNL     1       1.691  -0.990  -2.579  0.00  0.00    +0.021 A 
ATOM      7  C   UNL     1       2.098  -1.962  -3.477  0.00  0.00    +0.018 A 
ATOM      8  C   UNL     1       2.614  -3.162  -3.017  0.00  0.00    +0.016 A 
ATOM      9  C   UNL     1       2.725  -3.397  -1.663  0.00  0.00    +0.013 A 
ATOM     10  C   UNL     1       2.317  -2.422  -0.749  0.00  0.00    +0.024 A 
ATOM     11  C   UNL     1       2.318  -2.401   0.728  0.00  0.00    +0.162 A 
ATOM     12  C   UNL     1       1.821  -1.225   1.183  0.00  0.00    +0.113 A 
ATOM     13  N   UNL     1       1.845  -1.261   2.525  0.00  0.00    -0.198 NA
ATOM     14  C   UNL     1       2.338  -2.415   2.908  0.00  0.00    +0.286 A 
ATOM     15  O   UNL     1       2.640  -3.140   1.820  0.00  0.00    -0.424 OA
ATOM     16  N   UNL     1       2.518  -2.817   4.215  0.00  0.00    -0.313 N 
ATOM     17 BR   UNL     1       1.948  -1.651  -5.336  0.00  0.00    -0.050 Br
ATOM     18  C   UNL     1       0.002  -0.004   0.002  0.00  0.00    +0.238 C 
ATOM     19  O   UNL     1      -0.954  -0.749   0.007  0.00  0.00    -0.274 OA
ATOM     20  N   UNL     1      -0.016   1.345   0.009  0.00  0.00    -0.288 N 
ATOM     21  H   UNL     1       2.942  -3.808   4.432  0.00  0.00    +0.147 HD
ATOM     22  H   UNL     1       2.237  -2.146   5.040  0.00  0.00    +0.147 HD
ATOM     23  H   UNL     1      -0.894   2.008   0.021  0.00  0.00    +0.155 HD
ENDROOT
BRANCH   3  24
ATOM     24  C   UNL     1       3.597   1.119  -0.027  0.00  0.00    +0.339 C 
ATOM     25  O   UNL     1       4.054   2.246  -0.025  0.00  0.00    -0.245 OA
BRANCH  24  26
ATOM     26  O   UNL     1       4.426   0.054  -0.042  0.00  0.00    -0.456 OA
BRANCH  26  27
ATOM     27  C   UNL     1       5.829   0.325  -0.054  0.00  0.00    +0.106 C 
ATOM     28  C   UNL     1       6.206   1.123   1.196  0.00  0.00    +0.055 C 
ATOM     29  C   UNL     1       6.603  -0.994  -0.070  0.00  0.00    +0.055 C 
ATOM     30  C   UNL     1       6.180   1.137  -1.302  0.00  0.00    +0.055 C 
ENDBRANCH  26  27
ENDBRANCH  24  26
ENDBRANCH   3  24
TORSDOF 3
