REMARK  Name = ZINC35306973
REMARK  3 active torsions:
REMARK  status: ('A' for Active; 'I' for Inactive)
REMARK    1  A    between atoms: C_3  and  C_8
REMARK    2  A    between atoms: C_10  and  C_13
REMARK    3  A    between atoms: C_14  and  N_20
REMARK                            x       y       z     vdW  Elec       q    Type
REMARK                         _______ _______ _______ _____ _____    ______ ____
ROOT
ATOM      1  C   UNL     1       3.660   2.234  -0.018  0.00  0.00    +0.202 A 
ATOM      2  N   UNL     1       4.882   1.680   0.022  0.00  0.00    -0.187 NA
ATOM      3  C   UNL     1       5.801   2.613  -0.086  0.00  0.00    +0.263 A 
ATOM      4  O   UNL     1       5.181   3.802  -0.200  0.00  0.00    -0.332 OA
ATOM      5  N   UNL     1       3.788   3.531  -0.159  0.00  0.00    -0.056 NA
ENDROOT
BRANCH   1   8
ATOM      6  C   UNL     1      -0.026   1.500   0.103  0.00  0.00    +0.002 A 
ATOM      7  C   UNL     1       1.167   2.189   0.016  0.00  0.00    +0.012 A 
ATOM      8  C   UNL     1       2.375   1.498   0.076  0.00  0.00    +0.023 A 
ATOM      9  C   UNL     1       2.372   0.112   0.224  0.00  0.00    +0.027 A 
ATOM     10  C   UNL     1       1.173  -0.568   0.311  0.00  0.00    +0.019 A 
ATOM     11  C   UNL     1      -0.024   0.125   0.250  0.00  0.00    +0.015 A 
ATOM     12 BR   UNL     1       1.167  -2.448   0.512  0.00  0.00    -0.050 Br
ENDBRANCH   1   8
BRANCH   3  13
ATOM     13  C   UNL     1       7.259   2.396  -0.084  0.00  0.00    +0.095 A 
ATOM     14  C   UNL     1       8.090   3.193   0.718  0.00  0.00    +0.040 A 
ATOM     15  C   UNL     1       9.462   2.978   0.713  0.00  0.00    +0.023 A 
ATOM     16  C   UNL     1      10.005   1.985  -0.078  0.00  0.00    +0.005 A 
ATOM     17  C   UNL     1       9.190   1.196  -0.871  0.00  0.00    +0.039 A 
ATOM     18  C   UNL     1       7.822   1.391  -0.876  0.00  0.00    +0.137 A 
ATOM     19  F   UNL     1       7.031   0.614  -1.648  0.00  0.00    -0.205 F 
BRANCH  14  20
ATOM     20  N   UNL     1       7.543   4.193   1.515  0.00  0.00    -0.357 N 
ATOM     21  H   UNL     1       6.579   4.282   1.587  0.00  0.00    +0.142 HD
ATOM     22  H   UNL     1       8.124   4.801   1.998  0.00  0.00    +0.142 HD
ENDBRANCH  14  20
ENDBRANCH   3  13
TORSDOF 3
