REMARK  Name = ZINC50244663
REMARK  6 active torsions:
REMARK  status: ('A' for Active; 'I' for Inactive)
REMARK    1  A    between atoms: CG2_1  and  CB_2
REMARK    2  A    between atoms: CB_2  and  CA_4
REMARK    3  A    between atoms: CB_2  and  OG1_19
REMARK    4  A    between atoms: CA_4  and  C_6
REMARK    5  A    between atoms: CA_4  and  N_9
REMARK    6  A    between atoms: C_15  and  N_18
REMARK                            x       y       z     vdW  Elec       q    Type
REMARK                         _______ _______ _______ _____ _____    ______ ____
ROOT
ATOM      1  N   THR A   1       0.010  -0.012  -2.444  0.00  0.00    -0.284 N 
ATOM      2  C   UNK A   0       0.669   0.132  -3.610  0.00  0.00    +0.303 C 
ATOM      3  O   UNK A   0       1.852  -0.141  -3.678  0.00  0.00    -0.253 OA
ATOM      4  N   UNK A   0       0.017   0.578  -4.702  0.00  0.00    -0.287 N 
ATOM      5  C   UNK A   0      -1.404   0.949  -4.760  0.00  0.00    +0.107 C 
ATOM      6  C   UNK A   0      -1.696   1.425  -6.198  0.00  0.00    +0.004 C 
ATOM      7  C   UNK A   0      -0.293   1.832  -6.721  0.00  0.00    -0.056 C 
ATOM      8  C   UNK A   0       0.613   0.782  -6.035  0.00  0.00    +0.093 C 
ATOM      9  H   THR A   1      -0.934   0.205  -2.390  0.00  0.00    +0.151 HD
ENDROOT
BRANCH   7  10
ATOM     10  N   UNK A   0      -0.222   1.718  -8.184  0.00  0.00    +0.381 N 
ATOM     11  H   UNK A   0      -0.911   2.324  -8.602  0.00  0.00    -0.090 HD
ATOM     12  H   UNK A   0       0.698   1.987  -8.498  0.00  0.00    -0.090 HD
ATOM     13  H   UNK A   0      -0.405   0.763  -8.456  0.00  0.00    -0.090 HD
ENDBRANCH   7  10
BRANCH   1  14
ATOM     14  CA  THR A   1       0.718  -0.497  -1.257  0.00  0.00    +0.216 C 
BRANCH  14  15
ATOM     15  C   THR A   1       0.739  -2.004  -1.265  0.00  0.00    +0.378 C 
ATOM     16  O   THR A   1      -0.172  -2.623  -1.788  0.00  0.00    -0.244 OA
ATOM     17  OXT THR A   1       1.666  -2.604  -0.749  0.00  0.00    -0.244 OA
ENDBRANCH  14  15
BRANCH  14  19
ATOM     18  CG2 THR A   1      -0.019   1.526   0.010  0.00  0.00    +0.040 C 
ATOM     19  CB  THR A   1       0.002  -0.004   0.002  0.00  0.00    +0.143 C 
BRANCH  19  20
ATOM     20  OG1 THR A   1       0.693  -0.477   1.160  0.00  0.00    -0.390 OA
ATOM     21  HG1 THR A   1       0.294  -0.202   1.996  0.00  0.00    +0.210 HD
ENDBRANCH  19  20
ENDBRANCH  14  19
ENDBRANCH   1  14
TORSDOF 5
