REMARK  Name = ZINC30009033
REMARK  8 active torsions:
REMARK  status: ('A' for Active; 'I' for Inactive)
REMARK    1  A    between atoms: C_1  and  C_2
REMARK    2  A    between atoms: C_2  and  O_3
REMARK    3  A    between atoms: O_3  and  C_4
REMARK    4  A    between atoms: C_4  and  C_6
REMARK    5  A    between atoms: C_7  and  C_21
REMARK    6  A    between atoms: C_12  and  C_14
REMARK    7  A    between atoms: C_21  and  S_22
REMARK    8  A    between atoms: S_22  and  C_23
REMARK                            x       y       z     vdW  Elec       q    Type
REMARK                         _______ _______ _______ _____ _____    ______ ____
ROOT
ATOM      1  C   UNL     1      -0.501   1.501   1.221  0.00  0.00    +0.079 C 
ATOM      2  C   UNL     1      -1.733   2.046   1.306  0.00  0.00    +0.034 C 
ATOM      3  N   UNL     1      -2.403   2.452   0.187  0.00  0.00    -0.272 N 
ATOM      4  C   UNL     1      -1.909   2.346  -1.053  0.00  0.00    +0.304 C 
ATOM      5  O   UNL     1      -2.580   2.735  -1.989  0.00  0.00    -0.252 OA
ATOM      6  N   UNL     1      -0.692   1.822  -1.298  0.00  0.00    -0.288 N 
ATOM      7  C   UNL     1       0.113   1.354  -0.156  0.00  0.00    +0.144 C 
ATOM      8  H   UNL     1      -3.406   2.895   0.276  0.00  0.00    +0.156 HD
ATOM      9  H   UNL     1      -0.295   1.739  -2.321  0.00  0.00    +0.151 HD
ENDROOT
BRANCH   7  10
ATOM     10  C   UNL     1       1.417   2.109  -0.167  0.00  0.00    -0.022 A 
ATOM     11  C   UNL     1       1.426   3.470  -0.409  0.00  0.00    +0.007 A 
ATOM     12  C   UNL     1       2.621   4.164  -0.413  0.00  0.00    +0.020 A 
ATOM     13  C   UNL     1       3.810   3.494  -0.185  0.00  0.00    +0.041 A 
ATOM     14  C   UNL     1       3.801   2.131   0.052  0.00  0.00    +0.020 A 
ATOM     15  C   UNL     1       2.605   1.439   0.061  0.00  0.00    +0.007 A 
ATOM     16 CL   UNL     1       5.313   4.363  -0.197  0.00  0.00    -0.084 Cl
ENDBRANCH   7  10
BRANCH   1  17
ATOM     17  C   UNL     1       0.192   1.080   2.380  0.00  0.00    +0.339 C 
ATOM     18  O   UNL     1      -0.253   1.337   3.483  0.00  0.00    -0.245 OA
BRANCH  17  19
ATOM     19  O   UNL     1       1.348   0.393   2.262  0.00  0.00    -0.462 OA
BRANCH  19  21
ATOM     20  C   UNL     1       3.279  -0.763   3.142  0.00  0.00    +0.048 C 
ATOM     21  C   UNL     1       1.995  -0.001   3.474  0.00  0.00    +0.229 C 
ENDBRANCH  19  21
ENDBRANCH  17  19
ENDBRANCH   1  17
BRANCH   2  22
ATOM     22  C   UNL     1      -2.381   2.210   2.657  0.00  0.00    +0.128 C 
BRANCH  22  23
ATOM     23  S   UNL     1      -2.174   3.917   3.222  0.00  0.00    -0.087 S 
BRANCH  23  24
ATOM     24  C   UNL     1      -2.999   3.827   4.776  0.00  0.00    +0.123 C 
ATOM     25  N   UNL     1      -3.529   2.702   5.169  0.00  0.00    -0.382 N 
ATOM     26  N   UNL     1      -3.085   4.944   5.575  0.00  0.00    -0.340 N 
ATOM     27  H   UNL     1      -4.045   2.646   6.139  0.00  0.00    +0.158 HD
ATOM     28  H   UNL     1      -3.601   4.887   6.545  0.00  0.00    +0.144 HD
ATOM     29  H   UNL     1      -2.639   5.893   5.244  0.00  0.00    +0.144 HD
ATOM     30  H   UNL     1      -3.461   1.809   4.530  0.00  0.00    +0.158 HD
ENDBRANCH  23  24
ENDBRANCH  22  23
ENDBRANCH   2  22
TORSDOF 7
