REMARK  Name = ZINC42424900
REMARK  8 active torsions:
REMARK  status: ('A' for Active; 'I' for Inactive)
REMARK    1  A    between atoms: C_1  and  C_2
REMARK    2  A    between atoms: C_2  and  O_3
REMARK    3  A    between atoms: O_3  and  C_4
REMARK    4  A    between atoms: C_11  and  C_13
REMARK    5  A    between atoms: C_13  and  C_15
REMARK    6  A    between atoms: C_13  and  N_23
REMARK    7  A    between atoms: C_15  and  C_16
REMARK    8  A    between atoms: C_19  and  O_22
REMARK                            x       y       z     vdW  Elec       q    Type
REMARK                         _______ _______ _______ _____ _____    ______ ____
ROOT
ATOM      1  C   UNL     1       3.040  -5.974  -2.112  0.00  0.00    +0.017 C 
ENDROOT
BRANCH   1   8
ATOM      2  C   UNL     1       0.746  -1.888  -1.280  0.00  0.00    +0.136 C 
ATOM      3  C   UNL     1      -0.483  -2.410  -2.029  0.00  0.00    +0.035 C 
ATOM      4  C   UNL     1      -0.420  -3.936  -2.114  0.00  0.00    +0.021 C 
ATOM      5  C   UNL     1       0.833  -4.349  -2.893  0.00  0.00    +0.108 C 
ATOM      6  N   UNL     1       2.007  -3.731  -2.263  0.00  0.00    -0.300 N 
ATOM      7  C   UNL     1       2.012  -2.277  -2.049  0.00  0.00    +0.139 C 
ATOM      8  C   UNL     1       3.060  -4.484  -1.887  0.00  0.00    +0.201 C 
ATOM      9  O   UNL     1       4.024  -3.962  -1.367  0.00  0.00    -0.277 OA
BRANCH   2  10
ATOM     10  O   UNL     1       0.671  -0.465  -1.174  0.00  0.00    -0.375 OA
BRANCH  10  12
ATOM     11  C   UNL     1      -0.019   1.526   0.010  0.00  0.00    +0.034 C 
ATOM     12  C   UNL     1       0.002  -0.004   0.002  0.00  0.00    +0.157 C 
ENDBRANCH  10  12
ENDBRANCH   2  10
ENDBRANCH   1   8
BRANCH   1  13
ATOM     13  N   UNL     1       4.414  -6.492  -2.080  0.00  0.00    +0.386 N 
ATOM     14  H   UNL     1       4.958  -6.049  -2.806  0.00  0.00    -0.089 HD
ATOM     15  H   UNL     1       4.828  -6.293  -1.182  0.00  0.00    -0.089 HD
ATOM     16  H   UNL     1       4.401  -7.489  -2.231  0.00  0.00    -0.089 HD
ENDBRANCH   1  13
BRANCH   1  17
ATOM     17  C   UNL     1       2.216  -6.645  -1.011  0.00  0.00    +0.028 C 
BRANCH  17  18
ATOM     18  C   UNL     1       2.094  -8.118  -1.304  0.00  0.00    -0.048 A 
ATOM     19  C   UNL     1       1.038  -8.585  -2.066  0.00  0.00    +0.007 A 
ATOM     20  C   UNL     1       0.923  -9.935  -2.334  0.00  0.00    +0.045 A 
ATOM     21  C   UNL     1       1.868 -10.823  -1.839  0.00  0.00    +0.117 A 
ATOM     22  C   UNL     1       2.926 -10.352  -1.075  0.00  0.00    +0.045 A 
ATOM     23  C   UNL     1       3.039  -9.000  -0.814  0.00  0.00    +0.007 A 
BRANCH  21  24
ATOM     24  O   UNL     1       1.757 -12.152  -2.102  0.00  0.00    -0.507 OA
ATOM     25  H   UNL     1       2.207 -12.432  -2.911  0.00  0.00    +0.292 HD
ENDBRANCH  21  24
ENDBRANCH  17  18
ENDBRANCH   1  17
TORSDOF 7
