REMARK  Name = ZINC08756162
REMARK  5 active torsions:
REMARK  status: ('A' for Active; 'I' for Inactive)
REMARK    1  A    between atoms: C_1  and  C_2
REMARK    2  A    between atoms: C_5  and  C_21
REMARK    3  A    between atoms: C_6  and  S_9
REMARK    4  A    between atoms: S_9  and  N_12
REMARK    5  A    between atoms: C_16  and  C_18
REMARK                            x       y       z     vdW  Elec       q    Type
REMARK                         _______ _______ _______ _____ _____    ______ ____
ROOT
ATOM      1  S   UNL     1      -0.055   2.071   5.245  0.00  0.00    +0.063 S 
ATOM      2  O   UNL     1      -1.108   1.873   6.178  0.00  0.00    -0.153 OA
ATOM      3  O   UNL     1       1.081   1.220   5.186  0.00  0.00    -0.153 OA
ENDROOT
BRANCH   1   9
ATOM      4  C   UNL     1      -4.168   2.652   2.069  0.00  0.00    +0.045 C 
ATOM      5  C   UNL     1      -2.707   2.322   2.234  0.00  0.00    -0.029 A 
ATOM      6  C   UNL     1      -1.944   1.991   1.130  0.00  0.00    +0.025 A 
ATOM      7  C   UNL     1      -0.602   1.693   1.281  0.00  0.00    +0.046 A 
ATOM      8  C   UNL     1      -0.025   1.715   2.539  0.00  0.00    -0.004 A 
ATOM      9  C   UNL     1      -0.789   2.042   3.643  0.00  0.00    +0.128 A 
ATOM     10  C   UNL     1      -2.131   2.345   3.492  0.00  0.00    +0.071 A 
ATOM     11 CL   UNL     1      -3.090   2.756   4.879  0.00  0.00    -0.081 Cl
ATOM     12  C   UNL     1       1.435   1.384   2.704  0.00  0.00    +0.047 C 
ATOM     13 CL   UNL     1       0.358   1.283  -0.106  0.00  0.00    -0.083 Cl
ENDBRANCH   1   9
BRANCH   1  14
ATOM     14  N   UNL     1       0.516   3.606   5.494  0.00  0.00    -0.165 NA
ATOM     15  C   UNL     1       1.867   4.086   5.151  0.00  0.00    +0.110 C 
ATOM     16  C   UNL     1       1.710   5.620   4.983  0.00  0.00    +0.019 C 
ATOM     17  C   UNL     1       0.684   5.950   6.101  0.00  0.00    +0.031 C 
ATOM     18  C   UNL     1      -0.239   4.713   6.098  0.00  0.00    +0.165 C 
BRANCH  18  19
ATOM     19  C   UNL     1      -0.628   4.358   7.510  0.00  0.00    +0.229 C 
ATOM     20  O   UNL     1      -0.310   3.284   7.974  0.00  0.00    -0.274 OA
ATOM     21  N   UNL     1      -1.331   5.233   8.256  0.00  0.00    -0.328 N 
ATOM     22  H   UNL     1      -1.585   6.092   7.884  0.00  0.00    +0.145 HD
ATOM     23  H   UNL     1      -1.581   5.004   9.165  0.00  0.00    +0.145 HD
ENDBRANCH  18  19
ENDBRANCH   1  14
TORSDOF 3
