REMARK  Name = ZINC20016348
REMARK  4 active torsions:
REMARK  status: ('A' for Active; 'I' for Inactive)
REMARK    1  A    between atoms: C_3  and  S_9
REMARK    2  A    between atoms: C_4  and  N_8
REMARK    3  A    between atoms: S_9  and  N_12
REMARK    4  A    between atoms: C_16  and  C_19
REMARK                            x       y       z     vdW  Elec       q    Type
REMARK                         _______ _______ _______ _____ _____    ______ ____
ROOT
ATOM      1  S   UNL     1      -2.726   5.324   0.979  0.00  0.00    +0.063 S 
ATOM      2  O   UNL     1      -1.584   5.837   1.650  0.00  0.00    -0.153 OA
ATOM      3  O   UNL     1      -3.566   6.139   0.173  0.00  0.00    -0.153 OA
ENDROOT
BRANCH   1   6
ATOM      4  C   UNL     1      -4.164   4.049   4.508  0.00  0.00    +0.022 A 
ATOM      5  C   UNL     1      -3.357   4.612   3.537  0.00  0.00    +0.032 A 
ATOM      6  C   UNL     1      -3.756   4.606   2.215  0.00  0.00    +0.126 A 
ATOM      7  C   UNL     1      -4.974   4.039   1.861  0.00  0.00    +0.053 A 
ATOM      8  C   UNL     1      -5.781   3.469   2.837  0.00  0.00    +0.044 A 
ATOM      9  C   UNL     1      -5.376   3.478   4.159  0.00  0.00    +0.043 A 
ATOM     10 CL   UNL     1      -6.387   2.773   5.381  0.00  0.00    -0.083 Cl
BRANCH   7  11
ATOM     11  N   UNL     1      -5.384   4.037   0.526  0.00  0.00    -0.356 N 
ATOM     12  H   UNL     1      -6.349   3.588   0.247  0.00  0.00    +0.142 HD
ATOM     13  H   UNL     1      -4.742   4.486  -0.247  0.00  0.00    +0.142 HD
ENDBRANCH   7  11
ENDBRANCH   1   6
BRANCH   1  14
ATOM     14  N   UNL     1      -2.192   4.092   0.010  0.00  0.00    -0.176 NA
ATOM     15  C   UNL     1      -2.845   3.814  -1.277  0.00  0.00    +0.109 C 
ATOM     16  C   UNL     1      -3.249   2.338  -1.316  0.00  0.00    +0.018 C 
ATOM     17  C   UNL     1      -2.022   1.469  -1.034  0.00  0.00    +0.015 C 
ATOM     18  C   UNL     1      -1.481   1.784   0.363  0.00  0.00    +0.090 C 
ATOM     19  C   UNL     1      -1.056   3.255   0.421  0.00  0.00    +0.122 C 
BRANCH  18  20
ATOM     20  C   UNL     1      -0.292   0.905   0.652  0.00  0.00    +0.215 C 
ATOM     21  O   UNL     1       0.790   1.404   0.881  0.00  0.00    -0.276 OA
ATOM     22  N   UNL     1      -0.429  -0.435   0.652  0.00  0.00    -0.329 N 
ATOM     23  H   UNL     1       0.439  -1.077   0.863  0.00  0.00    +0.145 HD
ATOM     24  H   UNL     1      -1.409  -0.888   0.440  0.00  0.00    +0.145 HD
ENDBRANCH  18  20
ENDBRANCH   1  14
TORSDOF 4
