REMARK  Name = ZINC21259206
REMARK  6 active torsions:
REMARK  status: ('A' for Active; 'I' for Inactive)
REMARK    1  A    between atoms: C_1  and  C_2
REMARK    2  A    between atoms: C_5  and  C_8
REMARK    3  A    between atoms: C_13  and  C_19
REMARK    4  A    between atoms: C_22  and  O_26
REMARK    5  A    between atoms: C_23  and  O_25
REMARK    6  A    between atoms: O_26  and  C_27
REMARK                            x       y       z     vdW  Elec       q    Type
REMARK                         _______ _______ _______ _____ _____    ______ ____
ROOT
ATOM      1  C   UNL     1      -3.420   8.106  -1.633  0.00  0.00    +0.032 C 
ATOM      2  C   UNL     1      -1.981   8.628  -1.619  0.00  0.00    +0.059 C 
ATOM      3  C   UNL     1      -1.238   8.035  -0.448  0.00  0.00    +0.018 C 
ATOM      4  C   UNL     1      -1.885   7.713   0.692  0.00  0.00    +0.020 C 
ATOM      5  C   UNL     1      -1.118   7.126   1.853  0.00  0.00    +0.063 C 
ATOM      6  C   UNL     1       0.280   7.744   1.903  0.00  0.00    +0.109 C 
ATOM      7  C   UNL     1       0.891   7.694   0.526  0.00  0.00    +0.218 C 
ATOM      8  O   UNL     1       2.086   7.533   0.400  0.00  0.00    -0.275 OA
ATOM      9  N   UNL     1       0.113   7.827  -0.562  0.00  0.00    -0.289 N 
ATOM     10  C   UNL     1      -3.270   7.910   0.827  0.00  0.00    +0.162 C 
ATOM     11  O   UNL     1      -3.816   7.619   1.873  0.00  0.00    -0.292 OA
ATOM     12  C   UNL     1      -4.087   8.475  -0.304  0.00  0.00    +0.088 C 
ATOM     13  H   UNL     1       0.578   7.766  -1.557  0.00  0.00    +0.155 HD
ENDROOT
BRANCH   1  18
ATOM     14  C   UNL     1      -6.324  10.530  -6.000  0.00  0.00    +0.044 C 
ATOM     15  C   UNL     1      -5.566   9.898  -4.862  0.00  0.00    -0.050 A 
ATOM     16  C   UNL     1      -5.436   8.523  -4.797  0.00  0.00    +0.003 A 
ATOM     17  C   UNL     1      -4.741   7.943  -3.752  0.00  0.00    +0.004 A 
ATOM     18  C   UNL     1      -4.177   8.738  -2.772  0.00  0.00    -0.043 A 
ATOM     19  C   UNL     1      -4.311  10.112  -2.834  0.00  0.00    +0.004 A 
ATOM     20  C   UNL     1      -5.002  10.693  -3.882  0.00  0.00    +0.003 A 
ENDBRANCH   1  18
BRANCH   5  21
ATOM     21  C   UNL     1      -1.003   5.634   1.677  0.00  0.00    -0.036 A 
ATOM     22  C   UNL     1      -0.368   5.119   0.562  0.00  0.00    +0.008 A 
ATOM     23  C   UNL     1      -0.259   3.751   0.395  0.00  0.00    +0.049 A 
ATOM     24  C   UNL     1      -0.787   2.893   1.346  0.00  0.00    +0.161 A 
ATOM     25  C   UNL     1      -1.432   3.411   2.465  0.00  0.00    +0.159 A 
ATOM     26  C   UNL     1      -1.532   4.784   2.629  0.00  0.00    +0.053 A 
BRANCH  25  27
ATOM     27  O   UNL     1      -1.957   2.573   3.399  0.00  0.00    -0.503 OA
ATOM     28  H   UNL     1      -2.466   2.985   4.283  0.00  0.00    +0.292 HD
ENDBRANCH  25  27
BRANCH  24  29
ATOM     29  O   UNL     1      -0.682   1.547   1.184  0.00  0.00    -0.491 OA
ATOM     30  C   UNL     1      -0.013   1.086   0.008  0.00  0.00    +0.277 C 
ENDBRANCH  24  29
ENDBRANCH   5  21
TORSDOF 4
