REMARK  Name = ZINC56723571
REMARK  8 active torsions:
REMARK  status: ('A' for Active; 'I' for Inactive)
REMARK    1  A    between atoms: C_1  and  N_2
REMARK    2  A    between atoms: N_2  and  C_3
REMARK    3  A    between atoms: N_2  and  C_4
REMARK    4  A    between atoms: C_7  and  N_11
REMARK    5  A    between atoms: N_14  and  C_15
REMARK    6  A    between atoms: C_15  and  C_16
REMARK    7  A    between atoms: N_18  and  C_19
REMARK    8  A    between atoms: N_18  and  C_20
REMARK                            x       y       z     vdW  Elec       q    Type
REMARK                         _______ _______ _______ _____ _____    ______ ____
ROOT
ATOM      1  N   UNL     1      -0.006  -2.765  -4.843  0.00  0.00    -0.269 N 
ATOM      2  C   UNL     1       1.154  -2.999  -5.487  0.00  0.00    +0.304 C 
ATOM      3  O   UNL     1       2.210  -2.689  -4.970  0.00  0.00    -0.252 OA
ATOM      4  N   UNL     1       1.144  -3.576  -6.705  0.00  0.00    -0.291 N 
ATOM      5  H   UNL     1      -0.842  -3.080  -5.220  0.00  0.00    +0.156 HD
ATOM      6  H   UNL     1       0.302  -3.823  -7.118  0.00  0.00    +0.151 HD
ENDROOT
BRANCH   1  10
ATOM      7  C   UNL     1      -0.002  -0.682  -1.226  0.00  0.00    +0.101 A 
ATOM      8  C   UNL     1       0.931  -0.371  -2.209  0.00  0.00    +0.149 A 
ATOM      9  C   UNL     1       0.929  -1.062  -3.407  0.00  0.00    +0.063 A 
ATOM     10  C   UNL     1      -0.005  -2.065  -3.628  0.00  0.00    +0.040 A 
ATOM     11  C   UNL     1      -0.937  -2.376  -2.648  0.00  0.00    +0.063 A 
ATOM     12  C   UNL     1      -0.933  -1.690  -1.447  0.00  0.00    +0.149 A 
ATOM     13  F   UNL     1      -1.837  -1.996  -0.490  0.00  0.00    -0.203 F 
ATOM     14  F   UNL     1       1.839   0.606  -1.993  0.00  0.00    -0.203 F 
BRANCH   7  16
ATOM     15  C   UNL     1       0.806  -0.467   1.112  0.00  0.00    +0.129 C 
ATOM     16  N   UNL     1      -0.000   0.018  -0.011  0.00  0.00    -0.332 N 
ATOM     17  C   UNL     1      -0.805   1.234   0.136  0.00  0.00    +0.129 C 
ENDBRANCH   7  16
ENDBRANCH   1  10
BRANCH   4  18
ATOM     18  C   UNL     1       2.406  -3.830  -7.405  0.00  0.00    +0.201 C 
BRANCH  18  19
ATOM     19  C   UNL     1       2.120  -4.478  -8.736  0.00  0.00    +0.232 C 
ATOM     20  O   UNL     1       0.975  -4.704  -9.067  0.00  0.00    -0.274 OA
ATOM     21  N   UNL     1       3.136  -4.805  -9.558  0.00  0.00    -0.306 N 
ATOM     22  C   UNL     1       2.858  -5.434 -10.852  0.00  0.00    +0.131 C 
ATOM     23  C   UNL     1       4.519  -4.531  -9.159  0.00  0.00    +0.131 C 
ENDBRANCH  18  19
ENDBRANCH   4  18
TORSDOF 4
