REMARK  Name = ZINC00809304
REMARK  9 active torsions:
REMARK  status: ('A' for Active; 'I' for Inactive)
REMARK    1  A    between atoms: C_1  and  C_2
REMARK    2  A    between atoms: C_2  and  C_3
REMARK    3  A    between atoms: C_2  and  C_4
REMARK    4  A    between atoms: C_2  and  C_5
REMARK    5  A    between atoms: C_5  and  C_7
REMARK    6  A    between atoms: C_8  and  N_22
REMARK    7  A    between atoms: C_9  and  C_20
REMARK    8  A    between atoms: C_10  and  N_12
REMARK    9  A    between atoms: N_12  and  C_13
REMARK                            x       y       z     vdW  Elec       q    Type
REMARK                         _______ _______ _______ _____ _____    ______ ____
ROOT
ATOM      1  C   UNL     1       3.603   3.175  -0.133  0.00  0.00    +0.079 A 
ATOM      2  C   UNL     1       2.545   4.075   0.019  0.00  0.00    +0.062 A 
ATOM      3  C   UNL     1       1.264   3.536   0.071  0.00  0.00    +0.101 A 
ATOM      4  C   UNL     1       1.134   2.147  -0.021  0.00  0.00    +0.090 A 
ATOM      5  S   UNL     1       2.769   1.600  -0.191  0.00  0.00    -0.067 S 
ENDROOT
BRANCH   2   6
ATOM      6  N   UNL     1       2.761   5.439   0.109  0.00  0.00    -0.356 N 
ATOM      7  H   UNL     1       3.664   5.791   0.066  0.00  0.00    +0.142 HD
ATOM      8  H   UNL     1       2.010   6.044   0.215  0.00  0.00    +0.142 HD
ENDBRANCH   2   6
BRANCH   1   9
ATOM      9  C   UNL     1       4.972   3.443  -0.219  0.00  0.00    +0.177 C 
ATOM     10  O   UNL     1       5.372   4.590  -0.161  0.00  0.00    -0.291 OA
BRANCH   9  12
ATOM     11  C   UNL     1       7.374   2.872  -0.450  0.00  0.00    +0.019 C 
ATOM     12  C   UNL     1       5.952   2.310  -0.383  0.00  0.00    +0.026 C 
ATOM     13  C   UNL     1       5.836   1.358   0.809  0.00  0.00    +0.019 C 
ATOM     14  C   UNL     1       5.642   1.551  -1.675  0.00  0.00    +0.019 C 
ENDBRANCH   9  12
ENDBRANCH   1   9
BRANCH   4  15
ATOM     15  N   UNL     1      -0.017   1.395   0.010  0.00  0.00    -0.306 N 
ATOM     16  H   UNL     1      -0.882   1.832   0.001  0.00  0.00    +0.153 HD
BRANCH  15  17
ATOM     17  C   UNL     1       0.061  -0.002   0.047  0.00  0.00    +0.067 A 
ATOM     18  C   UNL     1       1.179  -0.622   0.587  0.00  0.00    +0.026 A 
ATOM     19  C   UNL     1       1.253  -2.001   0.623  0.00  0.00    +0.002 A 
ATOM     20  C   UNL     1       0.214  -2.765   0.123  0.00  0.00    +0.003 A 
ATOM     21  C   UNL     1      -0.903  -2.152  -0.415  0.00  0.00    +0.040 A 
ATOM     22  C   UNL     1      -0.985  -0.772  -0.450  0.00  0.00    +0.144 A 
ATOM     23  F   UNL     1      -2.078  -0.172  -0.971  0.00  0.00    -0.204 F 
ENDBRANCH  15  17
ENDBRANCH   4  15
BRANCH   3  24
ATOM     24  C   UNL     1       0.115   4.378   0.218  0.00  0.00    +0.103 C 
ATOM     25  N   UNL     1      -0.797   5.045   0.336  0.00  0.00    -0.191 NA
ENDBRANCH   3  24
TORSDOF 6
