REMARK  Name = ZINC05525163
REMARK  8 active torsions:
REMARK  status: ('A' for Active; 'I' for Inactive)
REMARK    1  A    between atoms: C_1  and  C_2
REMARK    2  A    between atoms: C_2  and  O_3
REMARK    3  A    between atoms: O_3  and  C_4
REMARK    4  A    between atoms: C_4  and  C_6
REMARK    5  A    between atoms: N_7  and  C_8
REMARK    6  A    between atoms: N_16  and  N_17
REMARK    7  A    between atoms: N_17  and  C_18
REMARK    8  A    between atoms: C_22  and  C_24
REMARK                            x       y       z     vdW  Elec       q    Type
REMARK                         _______ _______ _______ _____ _____    ______ ____
ROOT
ATOM      1  C   UNL     1      -1.352   2.067   0.229  0.00  0.00    +0.196 C 
ATOM      2  N   UNL     1      -2.428   1.409  -0.077  0.00  0.00    -0.319 N 
ATOM      3  N   UNL     1      -1.330   3.440   0.119  0.00  0.00    -0.288 N 
ATOM      4  H   UNL     1      -3.351   1.950  -0.330  0.00  0.00    +0.148 HD
ATOM      5  H   UNL     1      -0.418   3.998   0.378  0.00  0.00    +0.186 HD
ENDROOT
BRANCH   2   6
ATOM      6  C   UNL     1      -2.413  -0.056  -0.085  0.00  0.00    +0.094 C 
ATOM      7  C   UNL     1      -2.910  -0.564  -1.448  0.00  0.00    +0.046 C 
ATOM      8  C   UNL     1      -3.182  -2.091  -1.327  0.00  0.00    +0.168 C 
ATOM      9  S   UNL     1      -3.967  -2.162   0.339  0.00  0.00    -0.029 S 
ATOM     10  O   UNL     1      -5.377  -2.066   0.190  0.00  0.00    -0.174 OA
ATOM     11  O   UNL     1      -3.413  -3.250   1.065  0.00  0.00    -0.174 OA
ATOM     12  C   UNL     1      -3.331  -0.586   1.043  0.00  0.00    +0.188 C 
ENDBRANCH   2   6
BRANCH   1  13
ATOM     13  C   UNL     1      -0.142   1.338   0.698  0.00  0.00    +0.372 C 
ATOM     14  O   UNL     1      -0.214   0.598   1.656  0.00  0.00    -0.242 OA
BRANCH  13  15
ATOM     15  O   UNL     1       1.032   1.505   0.062  0.00  0.00    -0.460 OA
BRANCH  15  17
ATOM     16  C   UNL     1       3.408   1.083  -0.266  0.00  0.00    +0.048 C 
ATOM     17  C   UNL     1       2.172   0.768   0.578  0.00  0.00    +0.229 C 
ENDBRANCH  15  17
ENDBRANCH  13  15
ENDBRANCH   1  13
BRANCH   3  18
ATOM     18  N   UNL     1      -2.469   4.126  -0.323  0.00  0.00    -0.259 N 
ATOM     19  H   UNL     1      -3.381   3.568  -0.582  0.00  0.00    +0.172 HD
BRANCH  18  20
ATOM     20  C   UNL     1      -2.447   5.518  -0.434  0.00  0.00    +0.047 A 
ATOM     21  C   UNL     1      -1.298   6.225  -0.102  0.00  0.00    +0.024 A 
ATOM     22  C   UNL     1      -1.278   7.601  -0.217  0.00  0.00    +0.002 A 
ATOM     23  C   UNL     1      -2.403   8.276  -0.654  0.00  0.00    +0.012 A 
ATOM     24  C   UNL     1      -3.550   7.577  -0.980  0.00  0.00    +0.057 A 
ATOM     25  C   UNL     1      -3.575   6.200  -0.872  0.00  0.00    +0.037 A 
BRANCH  24  26
ATOM     26  C   UNL     1      -4.774   8.317  -1.454  0.00  0.00    +0.417 C 
ATOM     27  F   UNL     1      -5.572   8.652  -0.355  0.00  0.00    -0.166 F 
ATOM     28  F   UNL     1      -4.384   9.483  -2.121  0.00  0.00    -0.166 F 
ATOM     29  F   UNL     1      -5.502   7.502  -2.328  0.00  0.00    -0.166 F 
ENDBRANCH  24  26
ENDBRANCH  18  20
ENDBRANCH   3  18
TORSDOF 7
