REMARK  Name = ZINC00078310
REMARK  3 active torsions:
REMARK  status: ('A' for Active; 'I' for Inactive)
REMARK    1  A    between atoms: C_1  and  N_2
REMARK    2  A    between atoms: C_19  and  N_23
REMARK    3  A    between atoms: C_20  and  C_21
REMARK                            x       y       z     vdW  Elec       q    Type
REMARK                         _______ _______ _______ _____ _____    ______ ____
ROOT
ATOM      1  C   UNL     1       0.808   6.216   0.025  0.00  0.00    +0.138 C 
ATOM      2  N   UNL     1      -0.240   5.193   0.030  0.00  0.00    -0.273 N 
ATOM      3  C   UNL     1       0.008   3.832   0.022  0.00  0.00    +0.041 A 
ATOM      4  C   UNL     1       1.227   3.153   0.007  0.00  0.00    +0.024 A 
ATOM      5  C   UNL     1       1.181   1.768   0.000  0.00  0.00    +0.002 A 
ATOM      6  C   UNL     1      -0.013   1.076   0.008  0.00  0.00    +0.000 A 
ATOM      7  C   UNL     1      -1.234   1.740   0.017  0.00  0.00    +0.007 A 
ATOM      8  C   UNL     1      -1.196   3.118   0.030  0.00  0.00    -0.001 A 
ATOM      9  C   UNL     1      -2.291   4.139   0.045  0.00  0.00    +0.148 C 
ATOM     10  C   UNL     1      -1.562   5.467   0.043  0.00  0.00    +0.240 C 
ATOM     11  O   UNL     1      -2.069   6.568   0.051  0.00  0.00    -0.274 OA
ATOM     12  C   UNL     1      -3.151   4.022  -1.179  0.00  0.00    +0.101 A 
ATOM     13  C   UNL     1      -2.675   4.428  -2.419  0.00  0.00    +0.262 A 
ATOM     14  N   UNL     1      -3.465   4.309  -3.482  0.00  0.00    -0.275 N 
ATOM     15  C   UNL     1      -4.686   3.813  -3.365  0.00  0.00    +0.329 A 
ATOM     16  N   UNL     1      -5.170   3.418  -2.199  0.00  0.00    -0.278 N 
ATOM     17  C   UNL     1      -4.436   3.508  -1.093  0.00  0.00    +0.215 A 
ATOM     18  O   UNL     1      -4.942   3.101   0.092  0.00  0.00    -0.425 OA
ATOM     19  C   UNL     1      -4.380   3.511   1.242  0.00  0.00    +0.201 C 
ATOM     20  C   UNL     1      -3.123   4.014   1.290  0.00  0.00    +0.110 C 
ATOM     21  O   UNL     1      -5.462   3.707  -4.470  0.00  0.00    -0.247 OA
ATOM     22  O   UNL     1      -1.425   4.937  -2.544  0.00  0.00    -0.267 OA
ATOM     23  H   UNL     1      -6.098   3.048  -2.149  0.00  0.00    +0.173 HD
ATOM     24  H   UNL     1      -3.133   4.597  -4.380  0.00  0.00    +0.173 HD
ENDROOT
BRANCH  19  25
ATOM     25  N   UNL     1      -5.103   3.417   2.405  0.00  0.00    -0.328 N 
ATOM     26  H   UNL     1      -6.004   3.058   2.389  0.00  0.00    +0.145 HD
ATOM     27  H   UNL     1      -4.712   3.708   3.244  0.00  0.00    +0.145 HD
ENDBRANCH  19  25
BRANCH  20  28
ATOM     28  C   UNL     1      -2.578   4.433   2.546  0.00  0.00    +0.102 C 
ATOM     29  N   UNL     1      -2.146   4.765   3.543  0.00  0.00    -0.191 NA
ENDBRANCH  20  28
TORSDOF 2
