REMARK  Name = ZINC63654390
REMARK  2 active torsions:
REMARK  status: ('A' for Active; 'I' for Inactive)
REMARK    1  A    between atoms: C_3  and  C_10
REMARK    2  A    between atoms: C_16  and  C_18
REMARK                            x       y       z     vdW  Elec       q    Type
REMARK                         _______ _______ _______ _____ _____    ______ ____
ROOT
ATOM      1  C   UNL     1       3.652   2.177  -0.021  0.00  0.00    +0.250 C 
ATOM      2  O   UNL     1       2.611   1.557  -0.121  0.00  0.00    -0.270 OA
ATOM      3  N   UNL     1       3.628   3.520   0.087  0.00  0.00    -0.297 N 
ATOM      4  C   UNL     1       2.353   4.238   0.221  0.00  0.00    +0.108 C 
ATOM      5  C   UNL     1       2.280   5.320  -0.862  0.00  0.00    +0.020 C 
ATOM      6  C   UNL     1       3.518   6.215  -0.767  0.00  0.00    +0.016 C 
ATOM      7  C   UNL     1       4.776   5.376  -1.006  0.00  0.00    +0.092 C 
ATOM      8  C   UNL     1       4.877   4.294   0.081  0.00  0.00    +0.120 C 
ENDROOT
BRANCH   1  11
ATOM      9  C   UNL     1       7.057   0.988   1.018  0.00  0.00    +0.005 A 
ATOM     10  C   UNL     1       5.854   1.660   1.020  0.00  0.00    +0.017 A 
ATOM     11  C   UNL     1       4.941   1.460  -0.019  0.00  0.00    +0.082 A 
ATOM     12  C   UNL     1       5.255   0.574  -1.057  0.00  0.00    +0.178 A 
ATOM     13  C   UNL     1       6.474  -0.098  -1.045  0.00  0.00    +0.167 A 
ATOM     14  C   UNL     1       7.368   0.112  -0.008  0.00  0.00    +0.049 A 
ATOM     15  O   UNL     1       6.543  -0.894  -2.152  0.00  0.00    -0.453 OA
ATOM     16  C   UNL     1       5.188  -1.011  -2.625  0.00  0.00    +0.466 C 
ATOM     17  O   UNL     1       4.561   0.202  -2.168  0.00  0.00    -0.452 OA
ENDBRANCH   1  11
BRANCH   7  18
ATOM     18  C   UNL     1       5.992   6.263  -0.944  0.00  0.00    +0.215 C 
ATOM     19  O   UNL     1       5.866   7.450  -0.730  0.00  0.00    -0.276 OA
ATOM     20  N   UNL     1       7.220   5.738  -1.127  0.00  0.00    -0.329 N 
ATOM     21  H   UNL     1       7.320   4.789  -1.298  0.00  0.00    +0.145 HD
ATOM     22  H   UNL     1       8.002   6.309  -1.087  0.00  0.00    +0.145 HD
ENDBRANCH   7  18
TORSDOF 2
