REMARK  Name = ZINC39387668
REMARK  7 active torsions:
REMARK  status: ('A' for Active; 'I' for Inactive)
REMARK    1  A    between atoms: C_6  and  C_7
REMARK    2  A    between atoms: C_7  and  C_11
REMARK    3  A    between atoms: C_15  and  C_18
REMARK    4  A    between atoms: C_18  and  C_19
REMARK    5  A    between atoms: C_19  and  C_20
REMARK    6  A    between atoms: N_22  and  C_23
REMARK    7  A    between atoms: C_23  and  C_24
REMARK                            x       y       z     vdW  Elec       q    Type
REMARK                         _______ _______ _______ _____ _____    ______ ____
ROOT
ATOM      1  C   UNL     1      -1.083  -2.290  -0.037  0.00  0.00    +0.212 C 
ATOM      2  N   UNL     1      -0.128  -2.646  -1.112  0.00  0.00    -0.226 NA
ATOM      3  N   UNL     1       0.680  -3.745  -0.581  0.00  0.00    -0.227 NA
ATOM      4  C   UNL     1       0.171  -3.996   0.787  0.00  0.00    +0.202 C 
ATOM      5  O   UNL     1      -0.451  -2.750   1.179  0.00  0.00    -0.341 OA
ATOM      6  H   UNL     1      -0.616  -2.927  -1.950  0.00  0.00    +0.143 HD
ATOM      7  H   UNL     1       0.592  -4.569  -1.157  0.00  0.00    +0.143 HD
ENDROOT
BRANCH   1   8
ATOM      8  C   UNL     1      -1.293  -0.775   0.011  0.00  0.00    +0.036 C 
ATOM      9  C   UNL     1      -2.322  -0.261  -1.010  0.00  0.00    +0.015 C 
ATOM     10  C   UNL     1      -3.392  -0.497   0.069  0.00  0.00    +0.002 C 
ATOM     11  C   UNL     1      -2.271  -0.323   1.107  0.00  0.00    +0.015 C 
BRANCH   8  17
ATOM     12  C   UNL     1      -0.017   1.378   0.010  0.00  0.00    +0.006 A 
ATOM     13  C   UNL     1       1.171   2.086   0.002  0.00  0.00    +0.020 A 
ATOM     14  C   UNL     1       2.378   1.410  -0.013  0.00  0.00    +0.041 A 
ATOM     15  C   UNL     1       2.396   0.027  -0.021  0.00  0.00    +0.020 A 
ATOM     16  C   UNL     1       1.208  -0.679  -0.013  0.00  0.00    +0.006 A 
ATOM     17  C   UNL     1       0.002  -0.004   0.002  0.00  0.00    -0.037 A 
ATOM     18 CL   UNL     1       3.870   2.298  -0.023  0.00  0.00    -0.084 Cl
ENDBRANCH   8  17
ENDBRANCH   1   8
BRANCH   4  19
ATOM     19  C   UNL     1       1.325  -4.340   1.731  0.00  0.00    +0.058 C 
BRANCH  19  20
ATOM     20  C   UNL     1       0.768  -4.681   3.114  0.00  0.00    +0.099 C 
BRANCH  20  21
ATOM     21  C   UNL     1       1.904  -5.020   4.044  0.00  0.00    +0.213 C 
ATOM     22  O   UNL     1       3.047  -4.992   3.640  0.00  0.00    -0.276 OA
ATOM     23  N   UNL     1       1.650  -5.355   5.325  0.00  0.00    -0.311 N 
ATOM     24  H   UNL     1       0.736  -5.377   5.648  0.00  0.00    +0.149 HD
BRANCH  23  25
ATOM     25  C   UNL     1       2.755  -5.685   6.228  0.00  0.00    +0.139 C 
BRANCH  25  26
ATOM     26  C   UNL     1       2.206  -6.020   7.591  0.00  0.00    -0.025 C 
ATOM     27  C   UNL     1       1.957  -7.306   7.985  0.00  0.00    +0.005 C 
ATOM     28  C   UNL     1       1.480  -7.577   9.338  0.00  0.00    -0.002 C 
ATOM     29  C   UNL     1       0.974  -6.628  10.134  0.00  0.00    +0.004 C 
ATOM     30  C   UNL     1       0.836  -5.232   9.604  0.00  0.00    +0.158 C 
ATOM     31  C   UNL     1       1.919  -5.034   8.552  0.00  0.00    -0.013 C 
ATOM     32  C   UNL     1       2.453  -3.831   8.817  0.00  0.00    +0.025 C 
ATOM     33  C   UNL     1       1.991  -3.380  10.074  0.00  0.00    +0.106 C 
ATOM     34  N   UNL     1       1.076  -4.174  10.574  0.00  0.00    -0.279 NA
ENDBRANCH  25  26
ENDBRANCH  23  25
ENDBRANCH  20  21
ENDBRANCH  19  20
ENDBRANCH   4  19
TORSDOF 7
