REMARK  Name = ZINC61544626
REMARK  10 active torsions:
REMARK  status: ('A' for Active; 'I' for Inactive)
REMARK    1  A    between atoms: C_1  and  C_2
REMARK    2  A    between atoms: C_2  and  C_3
REMARK    3  A    between atoms: C_2  and  N_4
REMARK    4  A    between atoms: C_5  and  C_7
REMARK    5  A    between atoms: N_9  and  N_10
REMARK    6  A    between atoms: C_11  and  C_13
REMARK    7  A    between atoms: C_13  and  N_14
REMARK    8  A    between atoms: C_15  and  C_17
REMARK    9  A    between atoms: C_22  and  O_23
REMARK   10  A    between atoms: O_23  and  C_24
REMARK                            x       y       z     vdW  Elec       q    Type
REMARK                         _______ _______ _______ _____ _____    ______ ____
ROOT
ATOM      1  N   UNL     1      -4.630  -3.959  -0.962  0.00  0.00    -0.233 N 
ATOM      2  C   UNL     1      -4.901  -5.183  -1.459  0.00  0.00    +0.246 C 
ATOM      3  O   UNL     1      -4.007  -5.863  -1.915  0.00  0.00    -0.273 OA
ATOM      4  H   UNL     1      -5.346  -3.415  -0.597  0.00  0.00    +0.173 HD
ENDROOT
BRANCH   1   7
ATOM      5  C   UNL     1      -3.045  -2.252  -0.474  0.00  0.00    +0.315 C 
ATOM      6  O   UNL     1      -3.940  -1.570  -0.018  0.00  0.00    -0.264 OA
ATOM      7  N   UNL     1      -3.316  -3.474  -0.972  0.00  0.00    -0.227 N 
ATOM      8  H   UNL     1      -2.601  -4.019  -1.336  0.00  0.00    +0.173 HD
BRANCH   5  10
ATOM      9  N   UNL     1      -1.372  -0.511   0.012  0.00  0.00    -0.305 N 
ATOM     10  C   UNL     1      -1.643  -1.734  -0.485  0.00  0.00    +0.301 C 
ATOM     11  O   UNL     1      -0.749  -2.415  -0.941  0.00  0.00    -0.265 OA
ATOM     12  H   UNL     1      -2.087   0.033   0.377  0.00  0.00    +0.149 HD
BRANCH   9  14
ATOM     13  C   UNL     1      -0.019   1.526   0.010  0.00  0.00    +0.027 C 
ATOM     14  C   UNL     1       0.002  -0.004   0.002  0.00  0.00    +0.067 C 
ATOM     15  C   UNL     1       0.742  -0.511   1.242  0.00  0.00    +0.027 C 
ENDBRANCH   9  14
ENDBRANCH   5  10
ENDBRANCH   1   7
BRANCH   2  16
ATOM     16  C   UNL     1      -6.315  -5.704  -1.448  0.00  0.00    +0.202 C 
BRANCH  16  17
ATOM     17  N   UNL     1      -6.346  -7.044  -2.039  0.00  0.00    -0.303 N 
ATOM     18  C   UNL     1      -7.512  -7.712  -2.135  0.00  0.00    +0.248 C 
ATOM     19  O   UNL     1      -8.540  -7.202  -1.732  0.00  0.00    -0.270 OA
ATOM     20  H   UNL     1      -5.526  -7.451  -2.361  0.00  0.00    +0.150 HD
BRANCH  18  21
ATOM     21  C   UNL     1      -7.543  -9.062  -2.730  0.00  0.00    +0.078 A 
ATOM     22  C   UNL     1      -6.364  -9.654  -3.189  0.00  0.00    +0.017 A 
ATOM     23  C   UNL     1      -6.399 -10.915  -3.744  0.00  0.00    +0.001 A 
ATOM     24  C   UNL     1      -7.600 -11.600  -3.848  0.00  0.00    +0.004 A 
ATOM     25  C   UNL     1      -8.772 -11.026  -3.398  0.00  0.00    +0.046 A 
ATOM     26  C   UNL     1      -8.754  -9.759  -2.833  0.00  0.00    +0.132 A 
BRANCH  26  27
ATOM     27  O   UNL     1      -9.905  -9.197  -2.385  0.00  0.00    -0.494 OA
ATOM     28  C   UNL     1     -11.100  -9.967  -2.523  0.00  0.00    +0.277 C 
ENDBRANCH  26  27
ENDBRANCH  18  21
ENDBRANCH  16  17
ENDBRANCH   2  16
TORSDOF 7
