REMARK  Name = ZINC41549959
REMARK  3 active torsions:
REMARK  status: ('A' for Active; 'I' for Inactive)
REMARK    1  A    between atoms: C_1  and  C_2
REMARK    2  A    between atoms: C_2  and  C_14
REMARK    3  A    between atoms: N_16  and  C_17
REMARK                            x       y       z     vdW  Elec       q    Type
REMARK                         _______ _______ _______ _____ _____    ______ ____
ROOT
ATOM      1  C   UNL     1       0.023   1.353  -0.206  0.00  0.00    +0.076 C 
ATOM      2  C   UNL     1       0.047  -0.162   0.003  0.00  0.00    +0.258 C 
ATOM      3  C   UNL     1       0.798  -0.813  -1.131  0.00  0.00    +0.270 C 
ATOM      4  O   UNL     1       0.201  -1.211  -2.108  0.00  0.00    -0.271 OA
ATOM      5  N   UNL     1       2.139  -0.950  -1.054  0.00  0.00    -0.279 N 
ATOM      6  C   UNL     1       2.795  -0.599   0.134  0.00  0.00    +0.077 A 
ATOM      7  C   UNL     1       4.177  -0.509   0.175  0.00  0.00    +0.047 A 
ATOM      8  C   UNL     1       4.809  -0.149   1.352  0.00  0.00    +0.043 A 
ATOM      9  C   UNL     1       4.064   0.122   2.486  0.00  0.00    +0.024 A 
ATOM     10  C   UNL     1       2.684   0.030   2.452  0.00  0.00    +0.049 A 
ATOM     11  C   UNL     1       2.046  -0.337   1.279  0.00  0.00    +0.144 A 
ATOM     12  O   UNL     1       0.692  -0.461   1.242  0.00  0.00    -0.465 OA
ATOM     13 CL   UNL     1       6.540  -0.038   1.407  0.00  0.00    -0.083 Cl
ATOM     14  H   UNL     1       2.642  -1.287  -1.811  0.00  0.00    +0.155 HD
ENDROOT
BRANCH   2  15
ATOM     15  C   UNL     1      -1.366  -0.686   0.033  0.00  0.00    +0.270 C 
ATOM     16  O   UNL     1      -1.872  -1.125  -0.979  0.00  0.00    -0.271 OA
ATOM     17  N   UNL     1      -2.067  -0.669   1.184  0.00  0.00    -0.282 N 
ATOM     18  H   UNL     1      -1.638  -0.390   2.008  0.00  0.00    +0.155 HD
BRANCH  17  19
ATOM     19  C   UNL     1      -3.413  -1.052   1.190  0.00  0.00    +0.036 A 
ATOM     20  C   UNL     1      -3.950  -1.688   2.302  0.00  0.00    +0.026 A 
ATOM     21  C   UNL     1      -5.279  -2.066   2.307  0.00  0.00    +0.043 A 
ATOM     22  C   UNL     1      -6.076  -1.812   1.204  0.00  0.00    +0.159 A 
ATOM     23  C   UNL     1      -5.543  -1.177   0.092  0.00  0.00    +0.160 A 
ATOM     24  C   UNL     1      -4.215  -0.792   0.086  0.00  0.00    +0.064 A 
ATOM     25  F   UNL     1      -6.323  -0.930  -0.984  0.00  0.00    -0.202 F 
ATOM     26  F   UNL     1      -7.375  -2.183   1.211  0.00  0.00    -0.202 F 
ENDBRANCH  17  19
ENDBRANCH   2  15
TORSDOF 2
