REMARK  Name = ZINC40701788
REMARK  6 active torsions:
REMARK  status: ('A' for Active; 'I' for Inactive)
REMARK    1  A    between atoms: C_1  and  C_2
REMARK    2  A    between atoms: C_7  and  N_8
REMARK    3  A    between atoms: C_10  and  N_26
REMARK    4  A    between atoms: C_11  and  N_15
REMARK    5  A    between atoms: N_15  and  C_16
REMARK    6  A    between atoms: C_21  and  C_22
REMARK                            x       y       z     vdW  Elec       q    Type
REMARK                         _______ _______ _______ _____ _____    ______ ____
ROOT
ATOM      1  N   UNL     1      -0.758  -0.044   2.416  0.00  0.00    -0.298 N 
ATOM      2  C   UNL     1      -0.618  -0.737   3.613  0.00  0.00    +0.149 A 
ATOM      3  C   UNL     1      -0.562  -0.051   4.828  0.00  0.00    +0.106 A 
ATOM      4  C   UNL     1      -0.421  -0.795   6.000  0.00  0.00    +0.149 A 
ATOM      5  N   UNL     1      -0.346  -2.122   5.916  0.00  0.00    -0.219 NA
ATOM      6  C   UNL     1      -0.404  -2.731   4.749  0.00  0.00    +0.225 A 
ATOM      7  N   UNL     1      -0.541  -2.066   3.620  0.00  0.00    -0.219 NA
ATOM      8  H   UNL     1      -0.919   0.913   2.426  0.00  0.00    +0.154 HD
ENDROOT
BRANCH   1  15
ATOM      9  C   UNL     1      -2.131   1.032   0.169  0.00  0.00    +0.045 C 
ATOM     10  C   UNL     1      -1.321  -0.235   0.077  0.00  0.00    -0.029 A 
ATOM     11  C   UNL     1      -1.223  -0.908  -1.126  0.00  0.00    +0.005 A 
ATOM     12  C   UNL     1      -0.480  -2.071  -1.211  0.00  0.00    +0.000 A 
ATOM     13  C   UNL     1       0.168  -2.564  -0.093  0.00  0.00    +0.002 A 
ATOM     14  C   UNL     1       0.075  -1.897   1.112  0.00  0.00    +0.023 A 
ATOM     15  C   UNL     1      -0.666  -0.725   1.200  0.00  0.00    +0.035 A 
ENDBRANCH   1  15
BRANCH   3  16
ATOM     16  N   UNL     1      -0.644   1.350   4.869  0.00  0.00    -0.353 N 
ATOM     17  H   UNL     1      -0.741   1.855   4.047  0.00  0.00    +0.143 HD
ATOM     18  H   UNL     1      -0.603   1.814   5.721  0.00  0.00    +0.143 HD
ENDBRANCH   3  16
BRANCH   4  19
ATOM     19  N   UNL     1      -0.359  -0.162   7.237  0.00  0.00    -0.297 N 
ATOM     20  H   UNL     1      -0.333   0.807   7.284  0.00  0.00    +0.154 HD
BRANCH  19  21
ATOM     21  C   UNL     1      -0.334  -0.920   8.410  0.00  0.00    +0.044 A 
ATOM     22  C   UNL     1      -0.908  -2.185   8.434  0.00  0.00    +0.024 A 
ATOM     23  C   UNL     1      -0.881  -2.932   9.595  0.00  0.00    +0.002 A 
ATOM     24  C   UNL     1      -0.285  -2.422  10.733  0.00  0.00    +0.001 A 
ATOM     25  C   UNL     1       0.287  -1.164  10.713  0.00  0.00    +0.014 A 
ATOM     26  C   UNL     1       0.269  -0.413   9.554  0.00  0.00    +0.076 A 
BRANCH  26  27
ATOM     27  C   UNL     1       0.898   0.956   9.531  0.00  0.00    +0.419 C 
ATOM     28  F   UNL     1       1.437   1.242  10.790  0.00  0.00    -0.166 F 
ATOM     29  F   UNL     1       1.915   0.986   8.571  0.00  0.00    -0.166 F 
ATOM     30  F   UNL     1      -0.073   1.910   9.211  0.00  0.00    -0.166 F 
ENDBRANCH  26  27
ENDBRANCH  19  21
ENDBRANCH   4  19
TORSDOF 5
