REMARK  Name = ZINC49238181
REMARK  8 active torsions:
REMARK  status: ('A' for Active; 'I' for Inactive)
REMARK    1  A    between atoms: C_1  and  C_2
REMARK    2  A    between atoms: C_2  and  C_4
REMARK    3  A    between atoms: C_2  and  N_10
REMARK    4  A    between atoms: C_4  and  N_5
REMARK    5  A    between atoms: N_10  and  S_11
REMARK    6  A    between atoms: S_11  and  C_14
REMARK    7  A    between atoms: C_19  and  N_20
REMARK    8  A    between atoms: N_20  and  N_21
REMARK                            x       y       z     vdW  Elec       q    Type
REMARK                         _______ _______ _______ _____ _____    ______ ____
ROOT
ATOM      1  S   UNL     1      -1.684  -2.040   3.290  0.00  0.00    +0.062 S 
ATOM      2  O   UNL     1      -0.885  -2.312   4.433  0.00  0.00    -0.153 OA
ATOM      3  O   UNL     1      -3.051  -1.662   3.388  0.00  0.00    -0.153 OA
ENDROOT
BRANCH   1   4
ATOM      4  C   UNL     1      -1.632  -3.485   2.283  0.00  0.00    +0.146 A 
ATOM      5  C   UNL     1      -2.797  -4.017   1.760  0.00  0.00    +0.033 A 
ATOM      6  C   UNL     1      -2.709  -5.157   0.972  0.00  0.00    +0.022 A 
ATOM      7  C   UNL     1      -1.472  -5.721   0.734  0.00  0.00    +0.113 A 
ATOM      8  N   UNL     1      -0.377  -5.192   1.246  0.00  0.00    -0.237 NA
ATOM      9  C   UNL     1      -0.419  -4.102   1.998  0.00  0.00    +0.159 A 
BRANCH   9  10
ATOM     10  N   UNL     1       0.760  -3.574   2.512  0.00  0.00    -0.266 N 
ATOM     11  H   UNL     1       0.757  -2.702   2.935  0.00  0.00    +0.167 HD
BRANCH  10  12
ATOM     12  N   UNL     1       1.923  -4.285   2.421  0.00  0.00    -0.255 NA
ATOM     13  H   UNL     1       2.134  -4.512   1.460  0.00  0.00    +0.140 HD
ATOM     14  H   UNL     1       2.687  -3.784   2.850  0.00  0.00    +0.140 HD
ENDBRANCH  10  12
ENDBRANCH   9  10
ENDBRANCH   1   4
BRANCH   1  15
ATOM     15  N   UNL     1      -0.918  -0.833   2.454  0.00  0.00    -0.185 NA
ATOM     16  H   UNL     1      -0.073  -0.480   2.776  0.00  0.00    +0.148 HD
BRANCH  15  18
ATOM     17  C   UNL     1      -2.363   0.931   1.569  0.00  0.00    +0.027 C 
ATOM     18  C   UNL     1      -1.516  -0.296   1.229  0.00  0.00    +0.093 C 
BRANCH  18  19
ATOM     19  C   UNL     1      -0.408   0.103   0.253  0.00  0.00    +0.142 C 
BRANCH  19  20
ATOM     20  N   UNL     1       0.308  -1.095  -0.191  0.00  0.00    -0.335 N 
ATOM     21  C   UNL     1       1.457  -1.603   0.353  0.00  0.00    +0.107 A 
ATOM     22  C   UNL     1       1.769  -2.706  -0.354  0.00  0.00    +0.130 A 
ATOM     23  N   UNL     1       0.835  -2.868  -1.304  0.00  0.00    -0.244 NA
ATOM     24  C   UNL     1      -0.046  -1.909  -1.209  0.00  0.00    +0.199 A 
ENDBRANCH  19  20
ENDBRANCH  18  19
ENDBRANCH  15  18
ENDBRANCH   1  15
TORSDOF 7
