REMARK  Name = ZINC39659137
REMARK  8 active torsions:
REMARK  status: ('A' for Active; 'I' for Inactive)
REMARK    1  A    between atoms: C_1  and  C_2
REMARK    2  A    between atoms: C_2  and  C_36
REMARK    3  A    between atoms: C_5  and  C_8
REMARK    4  A    between atoms: C_8  and  N_9
REMARK    5  A    between atoms: C_10  and  C_12
REMARK    6  A    between atoms: C_23  and  C_25
REMARK    7  A    between atoms: C_28  and  O_31
REMARK    8  A    between atoms: O_31  and  C_32
REMARK                            x       y       z     vdW  Elec       q    Type
REMARK                         _______ _______ _______ _____ _____    ______ ____
ROOT
ATOM      1  C   UNL     1       3.733  -1.025   5.773  0.00  0.00    +0.100 C 
ATOM      2  C   UNL     1       2.246  -0.827   6.144  0.00  0.00    +0.121 C 
ATOM      3  N   UNL     1       1.875  -2.060   6.876  0.00  0.00    -0.296 N 
ATOM      4  C   UNL     1       3.063  -2.366   7.709  0.00  0.00    +0.115 C 
ATOM      5  C   UNL     1       4.267  -2.033   6.805  0.00  0.00    -0.004 C 
ATOM      6  C   UNL     1       5.387  -1.404   7.627  0.00  0.00    -0.010 C 
ATOM      7  C   UNL     1       5.941  -2.444   8.606  0.00  0.00    -0.082 C 
ATOM      8  N   UNL     1       6.446  -3.602   7.859  0.00  0.00    +0.379 N 
ATOM      9  C   UNL     1       5.343  -4.256   7.144  0.00  0.00    -0.082 C 
ATOM     10  C   UNL     1       4.764  -3.293   6.104  0.00  0.00    -0.010 C 
ATOM     11  C   UNL     1       0.719  -2.749   6.801  0.00  0.00    +0.247 C 
ATOM     12  O   UNL     1      -0.118  -2.443   5.975  0.00  0.00    -0.270 OA
ATOM     13  H   UNL     1       7.140  -3.295   7.194  0.00  0.00    -0.086 HD
ATOM     14  H   UNL     1       6.865  -4.258   8.501  0.00  0.00    -0.086 HD
ENDROOT
BRANCH  11  15
ATOM     15  C   UNL     1       0.470  -3.874   7.723  0.00  0.00    +0.037 A 
ATOM     16  C   UNL     1       1.178  -3.966   8.924  0.00  0.00    +0.016 A 
ATOM     17  C   UNL     1       0.942  -5.017   9.782  0.00  0.00    +0.047 A 
ATOM     18  C   UNL     1       0.001  -5.986   9.454  0.00  0.00    +0.130 A 
ATOM     19  C   UNL     1      -0.705  -5.899   8.261  0.00  0.00    +0.047 A 
ATOM     20  C   UNL     1      -0.479  -4.848   7.400  0.00  0.00    +0.016 A 
BRANCH  18  21
ATOM     21  O   UNL     1      -0.228  -7.021  10.302  0.00  0.00    -0.406 OA
BRANCH  21  22
ATOM     22  C   UNL     1      -1.208  -7.982   9.903  0.00  0.00    +0.575 C 
ATOM     23  F   UNL     1      -0.822  -8.566   8.692  0.00  0.00    -0.133 F 
ATOM     24  F   UNL     1      -1.316  -8.972  10.885  0.00  0.00    -0.133 F 
ATOM     25  F   UNL     1      -2.444  -7.347   9.742  0.00  0.00    -0.133 F 
ENDBRANCH  21  22
ENDBRANCH  18  21
ENDBRANCH  11  15
BRANCH   1  27
ATOM     26  N   UNL     1       4.991  -1.399   3.676  0.00  0.00    -0.312 N 
ATOM     27  C   UNL     1       3.857  -1.585   4.380  0.00  0.00    +0.218 C 
ATOM     28  O   UNL     1       2.935  -2.204   3.891  0.00  0.00    -0.275 OA
ATOM     29  H   UNL     1       5.728  -0.903   4.066  0.00  0.00    +0.149 HD
BRANCH  26  30
ATOM     30  C   UNL     1       5.111  -1.943   2.321  0.00  0.00    +0.138 C 
BRANCH  30  35
ATOM     31  C   UNL     1       8.965   0.210   1.099  0.00  0.00    +0.074 C 
ATOM     32  C   UNL     1       7.588  -0.042   0.482  0.00  0.00    +0.165 C 
ATOM     33  O   UNL     1       7.615  -1.259  -0.276  0.00  0.00    -0.347 OA
ATOM     34  C   UNL     1       6.650  -2.153   0.316  0.00  0.00    +0.196 C 
ATOM     35  C   UNL     1       6.486  -1.593   1.750  0.00  0.00    +0.164 C 
ATOM     36  O   UNL     1       6.606  -0.168   1.525  0.00  0.00    -0.342 OA
ATOM     37  C   UNL     1       7.215   1.123  -0.437  0.00  0.00    +0.074 C 
ENDBRANCH  30  35
ENDBRANCH  26  30
ENDBRANCH   1  27
TORSDOF 6
