REMARK  Name = ZINC37136850
REMARK  6 active torsions:
REMARK  status: ('A' for Active; 'I' for Inactive)
REMARK    1  A    between atoms: C_1  and  C_2
REMARK    2  A    between atoms: C_4  and  C_8
REMARK    3  A    between atoms: C_5  and  C_7
REMARK    4  A    between atoms: C_10  and  C_18
REMARK    5  A    between atoms: C_12  and  C_17
REMARK    6  A    between atoms: N_20  and  C_21
REMARK                            x       y       z     vdW  Elec       q    Type
REMARK                         _______ _______ _______ _____ _____    ______ ____
ROOT
ATOM      1  C   UNL     1      -1.443  -4.124  -0.690  0.00  0.00    +0.079 A 
ATOM      2  C   UNL     1      -2.833  -4.221  -0.811  0.00  0.00    +0.042 A 
ATOM      3  C   UNL     1      -3.430  -5.476  -0.758  0.00  0.00    +0.053 A 
ATOM      4  C   UNL     1      -2.594  -6.599  -0.582  0.00  0.00    +0.076 A 
ATOM      5  C   UNL     1      -2.837  -8.037  -0.481  0.00  0.00    +0.091 A 
ATOM      6  N   UNL     1      -1.684  -8.614  -0.323  0.00  0.00    -0.080 NA
ATOM      7  O   UNL     1      -0.661  -7.640  -0.311  0.00  0.00    -0.334 OA
ATOM      8  C   UNL     1      -1.205  -6.416  -0.468  0.00  0.00    +0.260 A 
ATOM      9  N   UNL     1      -0.688  -5.199  -0.530  0.00  0.00    -0.210 NA
ATOM     10  C   UNL     1      -4.177  -8.723  -0.547  0.00  0.00    +0.070 C 
ENDROOT
BRANCH   1  14
ATOM     11  C   UNL     1      -0.693   0.917  -1.050  0.00  0.00    +0.086 C 
ATOM     12  C   UNL     1      -0.493  -0.570  -0.906  0.00  0.00    +0.103 A 
ATOM     13  C   UNL     1      -1.469  -1.492  -0.915  0.00  0.00    +0.054 A 
ATOM     14  C   UNL     1      -0.802  -2.789  -0.746  0.00  0.00    +0.041 A 
ATOM     15  C   UNL     1       0.525  -2.511  -0.651  0.00  0.00    +0.111 A 
ATOM     16  O   UNL     1       0.689  -1.186  -0.753  0.00  0.00    -0.464 OA
ATOM     17  C   UNL     1       1.626  -3.524  -0.466  0.00  0.00    +0.087 C 
ENDBRANCH   1  14
BRANCH   3  18
ATOM     18  C   UNL     1      -4.897  -5.629  -0.882  0.00  0.00    +0.249 C 
ATOM     19  O   UNL     1      -5.360  -6.573  -1.492  0.00  0.00    -0.270 OA
ATOM     20  N   UNL     1      -5.719  -4.722  -0.318  0.00  0.00    -0.281 N 
ATOM     21  H   UNL     1      -5.350  -3.933   0.109  0.00  0.00    +0.155 HD
BRANCH  20  22
ATOM     22  C   UNL     1      -7.103  -4.918  -0.348  0.00  0.00    +0.048 A 
ATOM     23  C   UNL     1      -7.681  -5.638  -1.386  0.00  0.00    +0.024 A 
ATOM     24  C   UNL     1      -9.049  -5.830  -1.413  0.00  0.00    +0.002 A 
ATOM     25  C   UNL     1      -9.843  -5.306  -0.409  0.00  0.00    +0.001 A 
ATOM     26  C   UNL     1      -9.271  -4.588   0.625  0.00  0.00    +0.017 A 
ATOM     27  C   UNL     1      -7.903  -4.398   0.662  0.00  0.00    +0.039 A 
ATOM     28 BR   UNL     1      -7.120  -3.423   2.081  0.00  0.00    -0.048 Br
ENDBRANCH  20  22
ENDBRANCH   3  18
TORSDOF 3
