REMARK  Name = ZINC42736601
REMARK  12 active torsions:
REMARK  status: ('A' for Active; 'I' for Inactive)
REMARK    1  A    between atoms: C_1  and  C_2
REMARK    2  A    between atoms: C_2  and  C_4
REMARK    3  A    between atoms: C_2  and  N_15
REMARK    4  A    between atoms: N_6  and  C_7
REMARK    5  A    between atoms: C_12  and  N_13
REMARK    6  A    between atoms: N_15  and  C_16
REMARK    7  A    between atoms: N_15  and  C_17
REMARK    8  A    between atoms: C_17  and  C_19
REMARK    9  A    between atoms: C_17  and  C_20
REMARK   10  A    between atoms: C_20  and  C_21
REMARK   11  A    between atoms: C_20  and  C_22
REMARK   12  A    between atoms: C_20  and  C_23
REMARK                            x       y       z     vdW  Elec       q    Type
REMARK                         _______ _______ _______ _____ _____    ______ ____
ROOT
ATOM      1  C   UNL     1       0.978  -0.246  -1.190  0.00  0.00    +0.203 C 
ATOM      2  O   UNL     1       1.853  -1.072  -1.041  0.00  0.00    -0.277 OA
ATOM      3  N   UNL     1       0.748   0.281  -2.408  0.00  0.00    -0.285 N 
ATOM      4  H   UNL     1       0.008   0.894  -2.540  0.00  0.00    +0.155 HD
ENDROOT
BRANCH   3   5
ATOM      5  C   UNL     1       1.578  -0.057  -3.486  0.00  0.00    +0.054 A 
ATOM      6  C   UNL     1       2.874  -0.491  -3.256  0.00  0.00    +0.026 A 
ATOM      7  C   UNL     1       3.692  -0.824  -4.319  0.00  0.00    +0.022 A 
ATOM      8  C   UNL     1       3.220  -0.725  -5.617  0.00  0.00    +0.043 A 
ATOM      9  C   UNL     1       1.928  -0.293  -5.856  0.00  0.00    +0.044 A 
ATOM     10  C   UNL     1       1.100   0.037  -4.793  0.00  0.00    +0.047 A 
ATOM     11 CL   UNL     1       4.253  -1.144  -6.948  0.00  0.00    -0.083 Cl
BRANCH  10  12
ATOM     12  N   UNL     1      -0.209   0.469  -5.032  0.00  0.00    -0.356 N 
ATOM     13  H   UNL     1      -0.786   0.703  -4.288  0.00  0.00    +0.142 HD
ATOM     14  H   UNL     1      -0.540   0.533  -5.941  0.00  0.00    +0.142 HD
ENDBRANCH  10  12
ENDBRANCH   3   5
BRANCH   1  16
ATOM     15  C   UNL     1       0.325   1.693   0.211  0.00  0.00    -0.004 C 
ATOM     16  C   UNL     1       0.146   0.190  -0.011  0.00  0.00    +0.016 C 
BRANCH  16  17
ATOM     17  N   UNL     1       0.580  -0.537   1.190  0.00  0.00    +0.387 N 
ATOM     18  C   UNL     1       0.350  -1.975   1.002  0.00  0.00    -0.095 C 
ATOM     19  H   UNL     1       1.563  -0.371   1.347  0.00  0.00    -0.081 HD
BRANCH  17  20
ATOM     20  C   UNL     1      -0.187  -0.066   2.351  0.00  0.00    -0.066 C 
ATOM     21  C   UNL     1      -1.488  -0.864   2.461  0.00  0.00    -0.013 C 
BRANCH  20  22
ATOM     22  C   UNL     1       0.640  -0.262   3.623  0.00  0.00    -0.050 C 
ATOM     23  C   UNL     1       1.941   0.536   3.513  0.00  0.00    +0.009 C 
ATOM     24  C   UNL     1      -0.159   0.228   4.832  0.00  0.00    +0.009 C 
ATOM     25  C   UNL     1       0.966  -1.747   3.795  0.00  0.00    +0.009 C 
ENDBRANCH  20  22
ENDBRANCH  17  20
ENDBRANCH  16  17
ENDBRANCH   1  16
TORSDOF 6
