REMARK  Name = ZINC42411926
REMARK  5 active torsions:
REMARK  status: ('A' for Active; 'I' for Inactive)
REMARK    1  A    between atoms: C_1  and  N_2
REMARK    2  A    between atoms: C_4  and  N_7
REMARK    3  A    between atoms: N_7  and  C_8
REMARK    4  A    between atoms: C_8  and  C_9
REMARK    5  A    between atoms: C_14  and  O_15
REMARK                            x       y       z     vdW  Elec       q    Type
REMARK                         _______ _______ _______ _____ _____    ______ ____
ROOT
ATOM      1  C   UNL     1       0.060  -4.566  -0.897  0.00  0.00    +0.140 C 
ENDROOT
BRANCH   1   2
ATOM      2  C   UNL     1       0.069  -5.608  -1.986  0.00  0.00    +0.012 A 
ATOM      3  C   UNL     1      -1.103  -6.248  -2.341  0.00  0.00    +0.009 A 
ATOM      4  C   UNL     1      -1.096  -7.204  -3.339  0.00  0.00    +0.002 A 
ATOM      5  C   UNL     1       0.084  -7.522  -3.987  0.00  0.00    +0.019 A 
ATOM      6  C   UNL     1       1.259  -6.885  -3.636  0.00  0.00    +0.060 A 
ATOM      7  C   UNL     1       1.253  -5.921  -2.637  0.00  0.00    +0.135 A 
ATOM      8 BR   UNL     1       2.873  -7.321  -4.521  0.00  0.00    -0.047 Br
BRANCH   7   9
ATOM      9  O   UNL     1       2.406  -5.289  -2.294  0.00  0.00    -0.505 OA
ATOM     10  H   UNL     1       2.905  -5.732  -1.594  0.00  0.00    +0.292 HD
ENDBRANCH   7   9
ENDBRANCH   1   2
BRANCH   1  11
ATOM     11  N   UNL     1       0.039  -3.231  -1.500  0.00  0.00    -0.337 N 
ATOM     12  H   UNL     1       0.033  -3.134  -2.465  0.00  0.00    +0.146 HD
BRANCH  11  16
ATOM     13  C   UNL     1      -0.018   1.461   0.010  0.00  0.00    +0.172 C 
ATOM     14  N   UNL     1       0.002  -0.004   0.002  0.00  0.00    -0.273 N 
ATOM     15  C   UNL     1       0.008  -0.798  -1.101  0.00  0.00    +0.131 A 
ATOM     16  C   UNL     1       0.027  -2.087  -0.677  0.00  0.00    +0.065 A 
ATOM     17  C   UNL     1       0.034  -2.079   0.725  0.00  0.00    +0.157 A 
ATOM     18  N   UNL     1       0.025  -0.835   1.130  0.00  0.00    -0.178 NA
ENDBRANCH  11  16
ENDBRANCH   1  11
TORSDOF 4
