REMARK  Name = ZINC22033151
REMARK  8 active torsions:
REMARK  status: ('A' for Active; 'I' for Inactive)
REMARK    1  A    between atoms: C_1  and  C_2
REMARK    2  A    between atoms: C_8  and  N_10
REMARK    3  A    between atoms: C_11  and  C_13
REMARK    4  A    between atoms: C_13  and  C_15
REMARK    5  A    between atoms: C_13  and  S_16
REMARK    6  A    between atoms: S_16  and  C_17
REMARK    7  A    between atoms: C_20  and  C_24
REMARK    8  A    between atoms: C_21  and  N_23
REMARK                            x       y       z     vdW  Elec       q    Type
REMARK                         _______ _______ _______ _____ _____    ______ ____
ROOT
ATOM      1  C   UNL     1       4.958  -1.076   3.623  0.00  0.00    +0.137 C 
ATOM      2  C   UNL     1       4.979  -2.606   3.615  0.00  0.00    +0.029 C 
ENDROOT
BRANCH   1   4
ATOM      3  N   UNL     1       2.886  -0.467   2.418  0.00  0.00    -0.311 N 
ATOM      4  C   UNL     1       4.229  -0.577   2.402  0.00  0.00    +0.226 C 
ATOM      5  O   UNL     1       4.851  -0.275   1.406  0.00  0.00    -0.275 OA
ATOM      6  H   UNL     1       2.322  -0.741   3.321  0.00  0.00    +0.149 HD
BRANCH   3  13
ATOM      7  C   UNL     1       0.763  -2.041   1.233  0.00  0.00    +0.009 C 
ATOM      8  C   UNL     1       0.742  -0.511   1.242  0.00  0.00    +0.006 C 
ATOM      9  C   UNL     1       0.002  -0.004   0.002  0.00  0.00    +0.005 C 
ATOM     10  C   UNL     1      -0.019   1.526   0.010  0.00  0.00    +0.000 C 
ATOM     11  C   UNL     1       1.417   2.055  -0.000  0.00  0.00    +0.002 C 
ATOM     12  C   UNL     1       2.157   1.548   1.239  0.00  0.00    +0.022 C 
ATOM     13  C   UNL     1       2.178   0.019   1.231  0.00  0.00    +0.076 C 
ENDBRANCH   3  13
ENDBRANCH   1   4
BRANCH   1  14
ATOM     14  S   UNL     1       6.656  -0.450   3.610  0.00  0.00    -0.074 S 
BRANCH  14  15
ATOM     15  C   UNL     1       7.212  -1.040   5.175  0.00  0.00    +0.191 A 
ATOM     16  N   UNL     1       6.371  -1.728   5.938  0.00  0.00    -0.229 NA
ATOM     17  C   UNL     1       6.745  -2.195   7.116  0.00  0.00    +0.136 A 
ATOM     18  C   UNL     1       8.047  -1.947   7.563  0.00  0.00    +0.109 A 
ATOM     19  C   UNL     1       8.911  -1.207   6.726  0.00  0.00    +0.138 A 
ATOM     20  N   UNL     1       8.455  -0.779   5.555  0.00  0.00    -0.206 NA
BRANCH  19  21
ATOM     21  N   UNL     1      10.205  -0.934   7.118  0.00  0.00    -0.342 N 
ATOM     22  H   UNL     1      10.869  -0.356   6.458  0.00  0.00    +0.144 HD
ATOM     23  H   UNL     1      10.573  -1.293   8.090  0.00  0.00    +0.144 HD
ENDBRANCH  19  21
BRANCH  18  24
ATOM     24  C   UNL     1       8.492  -2.430   8.836  0.00  0.00    +0.104 C 
ATOM     25  N   UNL     1       8.845  -2.813   9.846  0.00  0.00    -0.191 NA
ENDBRANCH  18  24
ENDBRANCH  14  15
ENDBRANCH   1  14
TORSDOF 6
