REMARK  Name = ZINC48332929
REMARK  2 active torsions:
REMARK  status: ('A' for Active; 'I' for Inactive)
REMARK    1  A    between atoms: C_1  and  N_2
REMARK    2  A    between atoms: N_5  and  C_6
REMARK                            x       y       z     vdW  Elec       q    Type
REMARK                         _______ _______ _______ _____ _____    ______ ____
ROOT
ATOM      1  C   UNL     1      -1.126   1.180  -0.443  0.00  0.00    +0.129 C 
ATOM      2  N   UNL     1      -0.525  -0.136  -0.214  0.00  0.00    -0.302 N 
ATOM      3  C   UNL     1       0.050  -0.801  -1.236  0.00  0.00    +0.304 C 
ATOM      4  O   UNL     1       0.069  -0.309  -2.347  0.00  0.00    -0.253 OA
ATOM      5  N   UNL     1       0.603  -2.012  -1.025  0.00  0.00    -0.269 N 
ATOM      6  H   UNL     1      -0.540  -0.529   0.673  0.00  0.00    +0.150 HD
ATOM      7  H   UNL     1       0.647  -2.376  -0.127  0.00  0.00    +0.156 HD
ENDROOT
BRANCH   5   8
ATOM      8  C   UNL     1       1.115  -2.744  -2.103  0.00  0.00    +0.048 A 
ATOM      9  C   UNL     1       1.722  -2.087  -3.165  0.00  0.00    +0.024 A 
ATOM     10  C   UNL     1       2.226  -2.812  -4.227  0.00  0.00    +0.002 A 
ATOM     11  C   UNL     1       2.127  -4.192  -4.233  0.00  0.00    +0.001 A 
ATOM     12  C   UNL     1       1.524  -4.849  -3.177  0.00  0.00    +0.016 A 
ATOM     13  C   UNL     1       1.023  -4.130  -2.109  0.00  0.00    +0.035 A 
ATOM     14  I   UNL     1       0.117  -5.128  -0.505  0.00  0.00    -0.042 I 
ENDBRANCH   5   8
TORSDOF 1
