REMARK  Name = ZINC36939739
REMARK  7 active torsions:
REMARK  status: ('A' for Active; 'I' for Inactive)
REMARK    1  A    between atoms: C_1  and  C_2
REMARK    2  A    between atoms: C_2  and  N_3
REMARK    3  A    between atoms: C_7  and  C_9
REMARK    4  A    between atoms: C_9  and  N_10
REMARK    5  A    between atoms: C_11  and  C_13
REMARK    6  A    between atoms: C_14  and  C_20
REMARK    7  A    between atoms: C_18  and  N_19
REMARK                            x       y       z     vdW  Elec       q    Type
REMARK                         _______ _______ _______ _____ _____    ______ ____
ROOT
ATOM      1  N   UNL     1      -1.377  -1.737   2.629  0.00  0.00    -0.313 N 
ATOM      2  C   UNL     1      -2.177  -1.969   3.688  0.00  0.00    +0.249 C 
ATOM      3  O   UNL     1      -1.814  -2.724   4.571  0.00  0.00    -0.270 OA
ATOM      4  H   UNL     1      -1.666  -1.136   1.925  0.00  0.00    +0.149 HD
ENDROOT
BRANCH   2   5
ATOM      5  C   UNL     1      -3.487  -1.313   3.776  0.00  0.00    +0.098 A 
ATOM      6  C   UNL     1      -4.714  -1.812   3.281  0.00  0.00    +0.074 A 
ATOM      7  N   UNL     1      -5.646  -0.944   3.552  0.00  0.00    -0.177 NA
ATOM      8  N   UNL     1      -5.080   0.144   4.225  0.00  0.00    -0.264 N 
ATOM      9  H   UNL     1      -5.559   0.927   4.539  0.00  0.00    +0.190 HD
ATOM     10  C   UNL     1      -3.759  -0.081   4.368  0.00  0.00    +0.124 A 
ATOM     11  C   UNL     1      -4.910  -3.123   2.563  0.00  0.00    +0.068 C 
BRANCH  10  12
ATOM     12  N   UNL     1      -2.846   0.752   4.983  0.00  0.00    -0.343 N 
ATOM     13  H   UNL     1      -1.912   0.496   5.031  0.00  0.00    +0.144 HD
ATOM     14  H   UNL     1      -3.140   1.593   5.366  0.00  0.00    +0.144 HD
ENDBRANCH  10  12
ENDBRANCH   2   5
BRANCH   1  15
ATOM     15  C   UNL     1      -0.070  -2.393   2.541  0.00  0.00    +0.089 C 
BRANCH  15  20
ATOM     16  N   UNL     1       0.713  -0.491   1.192  0.00  0.00    +0.382 N 
ATOM     17  C   UNL     1       2.136  -0.100   1.116  0.00  0.00    -0.078 C 
ATOM     18  C   UNL     1       2.907  -1.290   1.740  0.00  0.00    -0.020 C 
ATOM     19  C   UNL     1       2.078  -2.500   1.235  0.00  0.00    -0.016 C 
ATOM     20  C   UNL     1       0.632  -1.962   1.251  0.00  0.00    -0.051 C 
ATOM     21  H   UNL     1       0.298  -0.094   2.022  0.00  0.00    -0.081 HD
BRANCH  16  23
ATOM     22  C   UNL     1      -0.019   1.526   0.010  0.00  0.00    -0.017 C 
ATOM     23  C   UNL     1       0.002  -0.004   0.002  0.00  0.00    -0.082 C 
ENDBRANCH  16  23
ENDBRANCH  15  20
ENDBRANCH   1  15
TORSDOF 5
