REMARK  Name = ZINC28242606
REMARK  7 active torsions:
REMARK  status: ('A' for Active; 'I' for Inactive)
REMARK    1  A    between atoms: C_1  and  N_2
REMARK    2  A    between atoms: C_4  and  S_10
REMARK    3  A    between atoms: C_6  and  C_7
REMARK    4  A    between atoms: S_10  and  N_13
REMARK    5  A    between atoms: N_13  and  C_14
REMARK    6  A    between atoms: C_17  and  C_20
REMARK    7  A    between atoms: N_28  and  C_29
REMARK                            x       y       z     vdW  Elec       q    Type
REMARK                         _______ _______ _______ _____ _____    ______ ____
ROOT
ATOM      1  C   UNL     1      -1.474  -2.883   1.293  0.00  0.00    +0.048 A 
ATOM      2  C   UNL     1      -0.280  -2.293   1.694  0.00  0.00    +0.025 A 
ATOM      3  C   UNL     1      -0.078  -0.944   1.500  0.00  0.00    +0.013 A 
ATOM      4  C   UNL     1      -1.074  -0.170   0.901  0.00  0.00    +0.018 A 
ATOM      5  C   UNL     1      -2.274  -0.764   0.505  0.00  0.00    +0.013 A 
ATOM      6  C   UNL     1      -2.468  -2.114   0.696  0.00  0.00    +0.025 A 
ENDROOT
BRANCH   4   7
ATOM      7  C   UNL     1      -0.860   1.278   0.692  0.00  0.00    +0.146 A 
ATOM      8  N   UNL     1      -0.117   2.048   1.449  0.00  0.00    -0.227 NA
ATOM      9  C   UNL     1      -0.142   3.316   0.972  0.00  0.00    +0.090 A 
ATOM     10  C   UNL     1       0.458   4.510   1.386  0.00  0.00    +0.030 A 
ATOM     11  C   UNL     1       0.240   5.661   0.683  0.00  0.00    +0.002 A 
ATOM     12  C   UNL     1      -0.574   5.660  -0.441  0.00  0.00    +0.002 A 
ATOM     13  C   UNL     1      -1.176   4.495  -0.868  0.00  0.00    +0.028 A 
ATOM     14  C   UNL     1      -0.967   3.316  -0.167  0.00  0.00    +0.074 A 
ATOM     15  N   UNL     1      -1.403   2.015  -0.326  0.00  0.00    -0.267 N 
BRANCH  15  16
ATOM     16  C   UNL     1      -2.285   1.518  -1.385  0.00  0.00    +0.450 C 
ATOM     17  F   UNL     1      -3.589   1.973  -1.158  0.00  0.00    -0.185 F 
ATOM     18  F   UNL     1      -1.837   1.986  -2.624  0.00  0.00    -0.185 F 
ENDBRANCH  15  16
ENDBRANCH   4   7
BRANCH   1  19
ATOM     19  N   UNL     1      -1.675  -4.248   1.490  0.00  0.00    -0.216 N 
ATOM     20  H   UNL     1      -0.885  -4.965   1.223  0.00  0.00    +0.174 HD
BRANCH  19  21
ATOM     21  S   UNL     1      -3.105  -4.791   2.127  0.00  0.00    +0.074 S 
ATOM     22  O   UNL     1      -4.142  -4.210   1.349  0.00  0.00    -0.150 OA
ATOM     23  O   UNL     1      -2.970  -6.196   2.288  0.00  0.00    -0.150 OA
BRANCH  21  27
ATOM     24  C   UNL     1      -2.868  -4.156   7.347  0.00  0.00    +0.149 C 
ATOM     25  N   UNL     1      -3.133  -3.875   5.934  0.00  0.00    -0.344 N 
ATOM     26  C   UNL     1      -2.871  -4.710   4.900  0.00  0.00    +0.114 A 
ATOM     27  C   UNL     1      -3.247  -4.109   3.745  0.00  0.00    +0.127 A 
ATOM     28  C   UNL     1      -3.772  -2.854   4.067  0.00  0.00    +0.061 A 
ATOM     29  C   UNL     1      -3.695  -2.721   5.437  0.00  0.00    +0.106 A 
BRANCH  29  30
ATOM     30  C   UNL     1      -4.131  -1.561   6.221  0.00  0.00    +0.258 C 
ATOM     31  O   UNL     1      -3.929  -1.527   7.421  0.00  0.00    -0.269 OA
ATOM     32  N   UNL     1      -4.756  -0.533   5.614  0.00  0.00    -0.324 N 
ATOM     33  H   UNL     1      -5.083   0.337   6.202  0.00  0.00    +0.145 HD
ATOM     34  H   UNL     1      -4.938  -0.564   4.530  0.00  0.00    +0.145 HD
ENDBRANCH  29  30
ENDBRANCH  21  27
ENDBRANCH  19  21
ENDBRANCH   1  19
TORSDOF 6
