REMARK  Name = ZINC01507740
REMARK  3 active torsions:
REMARK  status: ('A' for Active; 'I' for Inactive)
REMARK    1  A    between atoms: C_5  and  N_7
REMARK    2  A    between atoms: N_10  and  C_13
REMARK    3  A    between atoms: C_16  and  N_19
REMARK                            x       y       z     vdW  Elec       q    Type
REMARK                         _______ _______ _______ _____ _____    ______ ____
ROOT
ATOM      1  C   UNL     1      -3.037   4.159   0.038  0.00  0.00    +0.003 A 
ATOM      2  C   UNL     1      -1.675   4.430   0.040  0.00  0.00    +0.014 A 
ATOM      3  C   UNL     1      -0.764   3.389   0.026  0.00  0.00    +0.052 A 
ATOM      4  C   UNL     1      -1.222   2.053   0.018  0.00  0.00    +0.070 A 
ATOM      5  C   UNL     1      -2.591   1.793   0.024  0.00  0.00    +0.038 A 
ATOM      6  C   UNL     1      -3.494   2.859   0.033  0.00  0.00    +0.023 A 
ATOM      7  C   UNL     1      -0.014   1.211   0.009  0.00  0.00    +0.260 C 
ATOM      8  O   UNL     1       0.002  -0.004   0.002  0.00  0.00    -0.269 OA
ATOM      9  N   UNL     1       1.068   2.010   0.003  0.00  0.00    -0.202 N 
ATOM     10  C   UNL     1       0.712   3.307   0.012  0.00  0.00    +0.258 C 
ATOM     11  O   UNL     1       1.474   4.253   0.009  0.00  0.00    -0.269 OA
ENDROOT
BRANCH   9  12
ATOM     12  C   UNL     1       2.394   1.551  -0.012  0.00  0.00    +0.045 A 
ATOM     13  C   UNL     1       2.656   0.187  -0.015  0.00  0.00    +0.026 A 
ATOM     14  C   UNL     1       3.960  -0.265  -0.034  0.00  0.00    +0.024 A 
ATOM     15  C   UNL     1       5.011   0.644  -0.039  0.00  0.00    +0.025 A 
ATOM     16  C   UNL     1       4.748   2.008  -0.031  0.00  0.00    +0.024 A 
ATOM     17  C   UNL     1       3.443   2.459  -0.017  0.00  0.00    +0.026 A 
BRANCH  15  18
ATOM     18  N   UNL     1       6.332   0.186  -0.053  0.00  0.00    -0.358 N 
ATOM     19  H   UNL     1       7.065   0.821  -0.056  0.00  0.00    +0.142 HD
ATOM     20  H   UNL     1       6.515  -0.766  -0.059  0.00  0.00    +0.142 HD
ENDBRANCH  15  18
ENDBRANCH   9  12
BRANCH   5  21
ATOM     21  N   UNL     1      -3.054   0.485   0.020  0.00  0.00    -0.357 N 
ATOM     22  H   UNL     1      -2.424  -0.252   0.013  0.00  0.00    +0.142 HD
ATOM     23  H   UNL     1      -4.008   0.309   0.024  0.00  0.00    +0.142 HD
ENDBRANCH   5  21
TORSDOF 3
