REMARK  Name = ZINC20267253
REMARK  2 active torsions:
REMARK  status: ('A' for Active; 'I' for Inactive)
REMARK    1  A    between atoms: C_10  and  C_12
REMARK    2  A    between atoms: N_16  and  C_19
REMARK                            x       y       z     vdW  Elec       q    Type
REMARK                         _______ _______ _______ _____ _____    ______ ____
ROOT
ATOM      1  C   UNL     1       4.501   0.698   0.837  0.00  0.00    +0.072 A 
ATOM      2  C   UNL     1       5.787   0.640   0.387  0.00  0.00    +0.260 A 
ATOM      3  N   UNL     1       6.818   0.611   1.292  0.00  0.00    -0.274 N 
ATOM      4  C   UNL     1       6.566   0.639   2.613  0.00  0.00    +0.337 A 
ATOM      5  N   UNL     1       5.304   0.695   3.076  0.00  0.00    -0.229 N 
ATOM      6  C   UNL     1       4.263   0.732   2.222  0.00  0.00    +0.267 A 
ATOM      7  O   UNL     1       3.122   0.788   2.647  0.00  0.00    -0.267 OA
ATOM      8  O   UNL     1       7.493   0.612   3.400  0.00  0.00    -0.246 OA
ATOM      9  O   UNL     1       6.044   0.611  -0.938  0.00  0.00    -0.267 OA
ATOM     10  H   UNL     1       7.735   0.569   0.976  0.00  0.00    +0.173 HD
ENDROOT
BRANCH   1  20
ATOM     11  C   UNL     1       1.411   4.527   0.188  0.00  0.00    +0.000 A 
ATOM     12  C   UNL     1       2.790   4.437   0.228  0.00  0.00    +0.000 A 
ATOM     13  C   UNL     1       3.403   3.205   0.123  0.00  0.00    +0.002 A 
ATOM     14  C   UNL     1       2.642   2.054  -0.022  0.00  0.00    -0.054 A 
ATOM     15  C   UNL     1       1.266   2.144  -0.059  0.00  0.00    -0.047 A 
ATOM     16  C   UNL     1       0.652   3.383   0.045  0.00  0.00    +0.004 A 
ATOM     17  C   UNL     1       0.402   0.918  -0.207  0.00  0.00    +0.016 C 
ATOM     18  C   UNL     1       1.249  -0.255  -0.703  0.00  0.00    -0.077 C 
ATOM     19  N   UNL     1       2.436  -0.374   0.158  0.00  0.00    +0.387 N 
ATOM     20  C   UNL     1       3.352   0.731  -0.138  0.00  0.00    +0.001 C 
ATOM     21  H   UNL     1       2.156  -0.330   1.126  0.00  0.00    -0.085 HD
ATOM     22  H   UNL     1       2.897  -1.252  -0.023  0.00  0.00    -0.085 HD
ENDBRANCH   1  20
BRANCH   5  23
ATOM     23  C   UNL     1       5.071   0.723   4.458  0.00  0.00    +0.054 A 
ATOM     24  C   UNL     1       4.908  -0.465   5.159  0.00  0.00    +0.028 A 
ATOM     25  C   UNL     1       4.678  -0.435   6.521  0.00  0.00    +0.022 A 
ATOM     26  C   UNL     1       4.611   0.776   7.186  0.00  0.00    +0.041 A 
ATOM     27  C   UNL     1       4.774   1.961   6.490  0.00  0.00    +0.022 A 
ATOM     28  C   UNL     1       5.010   1.937   5.129  0.00  0.00    +0.028 A 
ATOM     29 CL   UNL     1       4.321   0.810   8.898  0.00  0.00    -0.084 Cl
ENDBRANCH   5  23
TORSDOF 2
