REMARK  Name = ZINC16388967
REMARK  5 active torsions:
REMARK  status: ('A' for Active; 'I' for Inactive)
REMARK    1  A    between atoms: C_1  and  C_2
REMARK    2  A    between atoms: C_8  and  N_10
REMARK    3  A    between atoms: C_11  and  C_13
REMARK    4  A    between atoms: C_13  and  C_15
REMARK    5  A    between atoms: C_13  and  N_16
REMARK                            x       y       z     vdW  Elec       q    Type
REMARK                         _______ _______ _______ _____ _____    ______ ____
ROOT
ATOM      1  N   UNL     1       2.455  -0.649   1.212  0.00  0.00    -0.311 N 
ATOM      2  C   UNL     1       2.941  -0.166   2.373  0.00  0.00    +0.230 C 
ATOM      3  O   UNL     1       2.359  -0.387   3.413  0.00  0.00    -0.274 OA
ATOM      4  H   UNL     1       2.921  -0.472   0.380  0.00  0.00    +0.149 HD
ENDROOT
BRANCH   1  11
ATOM      5  C   UNL     1       0.224   0.122  -0.466  0.00  0.00    +0.009 C 
ATOM      6  C   UNL     1       0.557  -1.341  -0.167  0.00  0.00    +0.006 C 
ATOM      7  C   UNL     1       1.512  -1.875  -1.236  0.00  0.00    +0.005 C 
ATOM      8  C   UNL     1       1.845  -3.338  -0.937  0.00  0.00    +0.000 C 
ATOM      9  C   UNL     1       2.511  -3.439   0.437  0.00  0.00    +0.002 C 
ATOM     10  C   UNL     1       1.556  -2.904   1.507  0.00  0.00    +0.022 C 
ATOM     11  C   UNL     1       1.223  -1.441   1.207  0.00  0.00    +0.076 C 
ENDBRANCH   1  11
BRANCH   2  12
ATOM     12  C   UNL     1       4.209   0.649   2.377  0.00  0.00    +0.140 C 
ATOM     13  C   UNL     1       3.933   2.025   1.768  0.00  0.00    +0.034 C 
BRANCH  12  14
ATOM     14  N   UNL     1       4.681   0.811   3.759  0.00  0.00    -0.282 NA
ATOM     15  C   UNL     1       3.794   1.707   4.518  0.00  0.00    +0.104 C 
ATOM     16  C   UNL     1       4.142   1.599   6.004  0.00  0.00    +0.119 C 
ATOM     17  N   UNL     1       5.580   1.763   6.195  0.00  0.00    -0.313 N 
ATOM     18  C   UNL     1       6.465   1.623   5.202  0.00  0.00    +0.227 C 
ATOM     19  O   UNL     1       7.645   1.746   5.455  0.00  0.00    -0.274 OA
ATOM     20  C   UNL     1       6.059   1.319   3.788  0.00  0.00    +0.181 C 
ATOM     21  H   UNL     1       5.908   1.983   7.080  0.00  0.00    +0.149 HD
ENDBRANCH  12  14
ENDBRANCH   2  12
TORSDOF 3
