REMARK  Name = ZINC59449619
REMARK  7 active torsions:
REMARK  status: ('A' for Active; 'I' for Inactive)
REMARK    1  A    between atoms: C_4  and  N_10
REMARK    2  A    between atoms: C_5  and  C_7
REMARK    3  A    between atoms: N_10  and  N_11
REMARK    4  A    between atoms: C_13  and  C_21
REMARK    5  A    between atoms: N_15  and  C_18
REMARK    6  A    between atoms: C_18  and  N_20
REMARK    7  A    between atoms: C_24  and  N_27
REMARK                            x       y       z     vdW  Elec       q    Type
REMARK                         _______ _______ _______ _____ _____    ______ ____
ROOT
ATOM      1  N   UNL     1       5.018   0.170  -0.202  0.00  0.00    -0.175 NA
ATOM      2  C   UNL     1       6.190  -0.415  -0.052  0.00  0.00    +0.173 C 
ATOM      3  C   UNL     1       6.465  -1.859   0.104  0.00  0.00    +0.122 C 
ATOM      4  N   UNL     1       7.758  -1.999   0.222  0.00  0.00    -0.168 NA
ATOM      5  N   UNL     1       8.409  -0.768   0.160  0.00  0.00    -0.134 N 
ATOM      6  C   UNL     1       7.515   0.227  -0.010  0.00  0.00    +0.294 C 
ATOM      7  O   UNL     1       7.755   1.417  -0.107  0.00  0.00    -0.266 OA
ENDROOT
BRANCH   3   8
ATOM      8  C   UNL     1       5.458  -2.947   0.124  0.00  0.00    +0.004 A 
ATOM      9  C   UNL     1       5.126  -3.614  -1.054  0.00  0.00    +0.012 A 
ATOM     10  C   UNL     1       4.188  -4.626  -1.029  0.00  0.00    +0.033 A 
ATOM     11  C   UNL     1       3.578  -4.979   0.161  0.00  0.00    +0.126 A 
ATOM     12  C   UNL     1       3.904  -4.320   1.333  0.00  0.00    +0.033 A 
ATOM     13  C   UNL     1       4.844  -3.310   1.322  0.00  0.00    +0.012 A 
BRANCH  11  14
ATOM     14  N   UNL     1       2.573  -6.065   0.181  0.00  0.00    +0.056 N 
ATOM     15  O   UNL     1       2.286  -6.642  -0.842  0.00  0.00    -0.126 OA
ATOM     16  O   UNL     1       2.038  -6.375   1.220  0.00  0.00    -0.126 OA
ENDBRANCH  11  14
ENDBRANCH   3   8
BRANCH   1  17
ATOM     17  N   UNL     1       3.938  -0.535  -0.179  0.00  0.00    -0.236 N 
ATOM     18  H   UNL     1       3.992  -1.503  -0.141  0.00  0.00    +0.174 HD
BRANCH  17  22
ATOM     19  C   UNL     1       0.221   1.346  -0.265  0.00  0.00    +0.001 A 
ATOM     20  C   UNL     1       1.382   2.097  -0.172  0.00  0.00    +0.002 A 
ATOM     21  C   UNL     1       2.615   1.477  -0.142  0.00  0.00    +0.025 A 
ATOM     22  C   UNL     1       2.698   0.091  -0.207  0.00  0.00    +0.060 A 
ATOM     23  C   UNL     1       1.524  -0.672  -0.302  0.00  0.00    +0.059 A 
ATOM     24  C   UNL     1       0.285  -0.029  -0.330  0.00  0.00    +0.015 A 
BRANCH  23  25
ATOM     25  C   UNL     1       1.599  -2.144  -0.372  0.00  0.00    +0.243 C 
ATOM     26  O   UNL     1       2.673  -2.703  -0.267  0.00  0.00    -0.270 OA
ATOM     27  N   UNL     1       0.477  -2.868  -0.552  0.00  0.00    -0.325 N 
ATOM     28  H   UNL     1      -0.369  -2.420  -0.709  0.00  0.00    +0.145 HD
ATOM     29  H   UNL     1       0.515  -3.837  -0.525  0.00  0.00    +0.145 HD
ENDBRANCH  23  25
ENDBRANCH  17  22
ENDBRANCH   1  17
BRANCH   5  30
ATOM     30  C   UNL     1       9.742  -0.597   0.252  0.00  0.00    +0.158 C 
ATOM     31  S   UNL     1      10.412   0.976   0.161  0.00  0.00    -0.017 S 
BRANCH  30  32
ATOM     32  N   UNL     1      10.549  -1.665   0.416  0.00  0.00    -0.339 N 
ATOM     33  H   UNL     1      10.169  -2.556   0.468  0.00  0.00    +0.144 HD
ATOM     34  H   UNL     1      11.509  -1.542   0.482  0.00  0.00    +0.144 HD
ENDBRANCH  30  32
ENDBRANCH   5  30
TORSDOF 7
