REMARK  Name = ZINC62825209
REMARK  2 active torsions:
REMARK  status: ('A' for Active; 'I' for Inactive)
REMARK    1  A    between atoms: C_5  and  N_17
REMARK    2  A    between atoms: C_6  and  C_7
REMARK                            x       y       z     vdW  Elec       q    Type
REMARK                         _______ _______ _______ _____ _____    ______ ____
ROOT
ATOM      1  C   UNL     1       0.139   1.121  -0.810  0.00  0.00    +0.028 A 
ATOM      2  C   UNL     1       1.325   1.828  -0.814  0.00  0.00    +0.020 A 
ATOM      3  C   UNL     1       2.381   1.425  -0.014  0.00  0.00    +0.032 A 
ATOM      4  C   UNL     1       2.259   0.311   0.795  0.00  0.00    +0.040 A 
ATOM      5  C   UNL     1       1.073  -0.411   0.810  0.00  0.00    +0.050 A 
ATOM      6  C   UNL     1       0.002  -0.004   0.002  0.00  0.00    +0.042 A 
ATOM      7 BR   UNL     1       3.708  -0.231   1.882  0.00  0.00    -0.048 Br
ATOM      8 BR   UNL     1       1.508   3.353  -1.917  0.00  0.00    -0.050 Br
ENDROOT
BRANCH   6   9
ATOM      9  C   UNL     1      -1.265  -0.764   0.011  0.00  0.00    +0.166 A 
ATOM     10  N   UNL     1      -1.398  -2.071  -0.082  0.00  0.00    -0.129 NA
ATOM     11  N   UNL     1      -2.645  -2.386  -0.032  0.00  0.00    -0.134 NA
ATOM     12  C   UNL     1      -3.371  -1.312   0.096  0.00  0.00    +0.134 A 
ATOM     13  N   UNL     1      -2.524  -0.248   0.121  0.00  0.00    -0.311 N 
ATOM     14  C   UNL     1      -2.899   1.162   0.228  0.00  0.00    +0.125 C 
ATOM     15  C   UNL     1      -4.224   1.279   0.987  0.00  0.00    +0.022 C 
ATOM     16  C   UNL     1      -5.390   1.200   0.003  0.00  0.00    +0.002 C 
ATOM     17  C   UNL     1      -5.391  -0.142  -0.722  0.00  0.00    +0.008 C 
ATOM     18  C   UNL     1      -4.872  -1.234   0.210  0.00  0.00    +0.076 C 
ENDBRANCH   6   9
BRANCH   5  19
ATOM     19  N   UNL     1       0.947  -1.535   1.625  0.00  0.00    -0.357 N 
ATOM     20  H   UNL     1       1.690  -1.815   2.184  0.00  0.00    +0.142 HD
ATOM     21  H   UNL     1       0.118  -2.038   1.634  0.00  0.00    +0.142 HD
ENDBRANCH   5  19
TORSDOF 2
