REMARK  Name = ZINC44458286
REMARK  6 active torsions:
REMARK  status: ('A' for Active; 'I' for Inactive)
REMARK    1  A    between atoms: C_1  and  C_2
REMARK    2  A    between atoms: C_5  and  N_12
REMARK    3  A    between atoms: C_8  and  C_10
REMARK    4  A    between atoms: C_8  and  C_11
REMARK    5  A    between atoms: C_13  and  C_15
REMARK    6  A    between atoms: N_24  and  C_25
REMARK                            x       y       z     vdW  Elec       q    Type
REMARK                         _______ _______ _______ _____ _____    ______ ____
ROOT
ATOM      1  N   UNL     1      -2.788  -2.555   0.018  0.00  0.00    -0.312 N 
ATOM      2  C   UNL     1      -3.465  -2.692  -1.139  0.00  0.00    +0.218 C 
ATOM      3  O   UNL     1      -2.938  -2.391  -2.189  0.00  0.00    -0.275 OA
ATOM      4  H   UNL     1      -3.209  -2.796   0.858  0.00  0.00    +0.149 HD
ENDROOT
BRANCH   2   5
ATOM      5  C   UNL     1      -4.877  -3.218  -1.129  0.00  0.00    +0.092 C 
ATOM      6  C   UNL     1      -5.413  -3.273  -2.561  0.00  0.00    +0.016 C 
ATOM      7  C   UNL     1      -6.835  -3.838  -2.554  0.00  0.00    +0.020 C 
ATOM      8  C   UNL     1      -7.743  -2.916  -1.734  0.00  0.00    +0.109 C 
ATOM      9  N   UNL     1      -7.156  -2.742  -0.398  0.00  0.00    -0.285 N 
ATOM     10  C   UNL     1      -5.762  -2.290  -0.291  0.00  0.00    +0.122 C 
ATOM     11  C   UNL     1      -7.883  -2.993   0.709  0.00  0.00    +0.302 C 
ATOM     12  O   UNL     1      -7.360  -2.938   1.805  0.00  0.00    -0.253 OA
ATOM     13  N   UNL     1      -9.190  -3.305   0.601  0.00  0.00    -0.296 N 
ATOM     14  H   UNL     1      -9.590  -3.421  -0.275  0.00  0.00    +0.151 HD
BRANCH  13  15
ATOM     15  C   UNL     1     -10.005  -3.470   1.806  0.00  0.00    +0.075 C 
ATOM     16  C   UNL     1     -10.967  -4.660   1.851  0.00  0.00    +0.024 C 
ATOM     17  C   UNL     1     -11.512  -3.241   1.677  0.00  0.00    +0.024 C 
ENDBRANCH  13  15
ENDBRANCH   2   5
BRANCH   1  21
ATOM     18  C   UNL     1      -0.033   1.550   0.006  0.00  0.00    +0.007 C 
ATOM     19  C   UNL     1      -0.007   0.020   0.001  0.00  0.00    -0.012 C 
ATOM     20  C   UNL     1      -1.441  -0.514   0.012  0.00  0.00    +0.025 C 
ATOM     21  C   UNL     1      -1.415  -2.044   0.007  0.00  0.00    +0.074 C 
ATOM     22  C   UNL     1      -0.674  -2.546   1.249  0.00  0.00    +0.028 C 
ATOM     23  C   UNL     1       0.759  -2.011   1.238  0.00  0.00    -0.033 C 
ATOM     24  C   UNL     1       0.734  -0.481   1.242  0.00  0.00    +0.009 C 
ATOM     25  C   UNL     1       1.478  -2.505  -0.019  0.00  0.00    +0.011 C 
ATOM     26  C   UNL     1       1.500  -2.513   2.479  0.00  0.00    +0.011 C 
ENDBRANCH   1  21
TORSDOF 3
