REMARK  Name = ZINC01880896
REMARK  5 active torsions:
REMARK  status: ('A' for Active; 'I' for Inactive)
REMARK    1  A    between atoms: C_7  and  C_11
REMARK    2  A    between atoms: N_12  and  N_13
REMARK    3  A    between atoms: C_14  and  C_16
REMARK    4  A    between atoms: C_16  and  N_17
REMARK    5  A    between atoms: C_18  and  C_20
REMARK                            x       y       z     vdW  Elec       q    Type
REMARK                         _______ _______ _______ _____ _____    ______ ____
ROOT
ATOM      1  N   UNL     1       3.671   1.218  -0.026  0.00  0.00    -0.206 N 
ATOM      2  C   UNL     1       2.406   0.752  -0.017  0.00  0.00    +0.249 C 
ATOM      3  O   UNL     1       2.201  -0.444  -0.021  0.00  0.00    -0.272 OA
ATOM      4  H   UNL     1       3.835   2.174  -0.023  0.00  0.00    +0.177 HD
ENDROOT
BRANCH   1   6
ATOM      5  C   UNL     1       5.966   0.772  -0.051  0.00  0.00    +0.140 C 
ATOM      6  N   UNL     1       4.748   0.323  -0.042  0.00  0.00    -0.188 NA
BRANCH   5  13
ATOM      7  C   UNL     1       6.234  -3.904  -0.078  0.00  0.00    +0.001 A 
ATOM      8  C   UNL     1       7.546  -4.358  -0.094  0.00  0.00    +0.002 A 
ATOM      9  C   UNL     1       8.597  -3.467  -0.100  0.00  0.00    +0.026 A 
ATOM     10  C   UNL     1       8.347  -2.099  -0.089  0.00  0.00    +0.047 A 
ATOM     11  C   UNL     1       7.020  -1.640  -0.074  0.00  0.00    +0.008 A 
ATOM     12  C   UNL     1       5.966  -2.553  -0.069  0.00  0.00    +0.010 A 
ATOM     13  C   UNL     1       7.098  -0.169  -0.067  0.00  0.00    +0.020 A 
ATOM     14  C   UNL     1       8.420   0.150  -0.084  0.00  0.00    +0.093 A 
ATOM     15  N   UNL     1       9.167  -0.990  -0.091  0.00  0.00    -0.360 N 
ATOM     16  H   UNL     1      10.137  -1.018  -0.101  0.00  0.00    +0.165 HD
ENDBRANCH   5  13
ENDBRANCH   1   6
BRANCH   2  17
ATOM     17  C   UNL     1       1.248   1.716  -0.001  0.00  0.00    +0.202 C 
BRANCH  17  18
ATOM     18  N   UNL     1      -0.011   0.966   0.007  0.00  0.00    -0.303 N 
ATOM     19  C   UNL     1      -1.187   1.624   0.017  0.00  0.00    +0.246 C 
ATOM     20  O   UNL     1      -1.204   2.839   0.023  0.00  0.00    -0.270 OA
ATOM     21  H   UNL     1       0.002  -0.004   0.002  0.00  0.00    +0.150 HD
BRANCH  19  22
ATOM     22  C   UNL     1      -2.457   0.868   0.018  0.00  0.00    +0.051 A 
ATOM     23  C   UNL     1      -2.442  -0.528   0.005  0.00  0.00    +0.014 A 
ATOM     24  C   UNL     1      -3.630  -1.228   0.011  0.00  0.00    +0.001 A 
ATOM     25  C   UNL     1      -4.837  -0.550   0.021  0.00  0.00    +0.001 A 
ATOM     26  C   UNL     1      -4.860   0.833   0.029  0.00  0.00    +0.016 A 
ATOM     27  C   UNL     1      -3.678   1.546   0.028  0.00  0.00    +0.030 A 
ATOM     28 BR   UNL     1      -3.711   3.437   0.038  0.00  0.00    -0.050 Br
ENDBRANCH  19  22
ENDBRANCH  17  18
ENDBRANCH   2  17
TORSDOF 5
