REMARK  Name = ZINC37174335
REMARK  6 active torsions:
REMARK  status: ('A' for Active; 'I' for Inactive)
REMARK    1  A    between atoms: C_1  and  N_2
REMARK    2  A    between atoms: N_2  and  C_3
REMARK    3  A    between atoms: N_2  and  S_9
REMARK    4  A    between atoms: S_9  and  C_12
REMARK    5  A    between atoms: C_15  and  O_19
REMARK    6  A    between atoms: C_16  and  N_18
REMARK                            x       y       z     vdW  Elec       q    Type
REMARK                         _______ _______ _______ _____ _____    ______ ____
ROOT
ATOM      1  C   UNL     1       1.682  -1.059  -1.905  0.00  0.00    +0.107 A 
ATOM      2  C   UNL     1       2.322  -0.108  -2.677  0.00  0.00    +0.032 A 
ATOM      3  C   UNL     1       3.642  -0.287  -3.047  0.00  0.00    +0.049 A 
ATOM      4  C   UNL     1       4.327  -1.421  -2.645  0.00  0.00    +0.137 A 
ATOM      5  C   UNL     1       3.683  -2.381  -1.867  0.00  0.00    +0.068 A 
ATOM      6  C   UNL     1       2.360  -2.192  -1.495  0.00  0.00    +0.055 A 
ENDROOT
BRANCH   1   7
ATOM      7  S   UNL     1      -0.000  -0.824  -1.437  0.00  0.00    +0.061 S 
ATOM      8  O   UNL     1      -0.531  -2.115  -1.167  0.00  0.00    -0.153 OA
ATOM      9  O   UNL     1      -0.572   0.049  -2.401  0.00  0.00    -0.153 OA
BRANCH   7  11
ATOM     10  C   UNL     1      -0.018   1.461   0.010  0.00  0.00    +0.132 C 
ATOM     11  N   UNL     1       0.002  -0.004   0.002  0.00  0.00    -0.176 NA
BRANCH  11  12
ATOM     12  C   UNL     1       0.024  -0.743   1.267  0.00  0.00    +0.090 C 
ATOM     13  C   UNL     1       1.312  -0.398   2.013  0.00  0.00    +0.032 C 
ATOM     14  C   UNL     1       1.084   0.828   2.941  0.00  0.00    +0.071 C 
ATOM     15  S   UNL     1      -0.608   0.432   3.565  0.00  0.00    -0.159 S 
ATOM     16  C   UNL     1      -1.252  -0.403   2.060  0.00  0.00    +0.089 C 
ENDBRANCH  11  12
ENDBRANCH   7  11
ENDBRANCH   1   7
BRANCH   5  17
ATOM     17  N   UNL     1       4.370  -3.530  -1.458  0.00  0.00    -0.355 N 
ATOM     18  H   UNL     1       5.296  -3.659  -1.716  0.00  0.00    +0.142 HD
ATOM     19  H   UNL     1       3.920  -4.197  -0.917  0.00  0.00    +0.142 HD
ENDBRANCH   5  17
BRANCH   4  20
ATOM     20  O   UNL     1       5.626  -1.599  -3.009  0.00  0.00    -0.505 OA
ATOM     21  H   UNL     1       6.264  -1.232  -2.382  0.00  0.00    +0.292 HD
ENDBRANCH   4  20
TORSDOF 5
