REMARK  Name = ZINC39677289
REMARK  5 active torsions:
REMARK  status: ('A' for Active; 'I' for Inactive)
REMARK    1  A    between atoms: C_1  and  C_2
REMARK    2  A    between atoms: C_6  and  C_7
REMARK    3  A    between atoms: C_7  and  N_8
REMARK    4  A    between atoms: C_9  and  C_11
REMARK    5  A    between atoms: C_22  and  C_24
REMARK                            x       y       z     vdW  Elec       q    Type
REMARK                         _______ _______ _______ _____ _____    ______ ____
ROOT
ATOM      1  C   UNL     1      -3.088   0.587   4.781  0.00  0.00    +0.100 C 
ATOM      2  C   UNL     1      -3.800  -0.782   4.700  0.00  0.00    +0.121 C 
ATOM      3  N   UNL     1      -3.651  -1.362   6.056  0.00  0.00    -0.297 N 
ATOM      4  C   UNL     1      -3.836  -0.210   6.972  0.00  0.00    +0.115 C 
ATOM      5  C   UNL     1      -3.117   0.960   6.272  0.00  0.00    -0.004 C 
ATOM      6  C   UNL     1      -1.696   1.101   6.810  0.00  0.00    -0.010 C 
ATOM      7  C   UNL     1      -1.751   1.528   8.279  0.00  0.00    -0.082 C 
ATOM      8  N   UNL     1      -2.468   2.804   8.393  0.00  0.00    +0.379 N 
ATOM      9  C   UNL     1      -3.861   2.637   7.961  0.00  0.00    -0.082 C 
ATOM     10  C   UNL     1      -3.895   2.256   6.478  0.00  0.00    -0.010 C 
ATOM     11  C   UNL     1      -3.403  -2.646   6.383  0.00  0.00    +0.260 C 
ATOM     12  O   UNL     1      -3.178  -3.460   5.513  0.00  0.00    -0.271 OA
ATOM     13  H   UNL     1      -2.450   3.114   9.354  0.00  0.00    -0.086 HD
ATOM     14  H   UNL     1      -2.018   3.495   7.812  0.00  0.00    -0.086 HD
ENDROOT
BRANCH  11  15
ATOM     15  C   UNL     1      -3.405  -3.069   7.830  0.00  0.00    +0.296 C 
ATOM     16  C   UNL     1      -4.834  -3.003   8.386  0.00  0.00    +0.283 C 
ATOM     17  O   UNL     1      -4.803  -3.424   9.754  0.00  0.00    -0.484 OA
ATOM     18  C   UNL     1      -4.095  -4.553  10.030  0.00  0.00    +0.162 A 
ATOM     19  C   UNL     1      -4.310  -5.215  11.230  0.00  0.00    +0.049 A 
ATOM     20  C   UNL     1      -3.597  -6.361  11.526  0.00  0.00    +0.004 A 
ATOM     21  C   UNL     1      -2.668  -6.851  10.627  0.00  0.00    +0.004 A 
ATOM     22  C   UNL     1      -2.450  -6.198   9.429  0.00  0.00    +0.049 A 
ATOM     23  C   UNL     1      -3.163  -5.048   9.126  0.00  0.00    +0.163 A 
ATOM     24  O   UNL     1      -2.942  -4.419   7.938  0.00  0.00    -0.473 OA
ENDBRANCH  11  15
BRANCH   1  26
ATOM     25  N   UNL     1      -1.061   1.523   3.715  0.00  0.00    -0.310 N 
ATOM     26  C   UNL     1      -1.665   0.468   4.297  0.00  0.00    +0.218 C 
ATOM     27  O   UNL     1      -1.064  -0.577   4.433  0.00  0.00    -0.275 OA
ATOM     28  H   UNL     1      -1.542   2.358   3.607  0.00  0.00    +0.149 HD
BRANCH  25  29
ATOM     29  C   UNL     1       0.321   1.407   3.245  0.00  0.00    +0.147 C 
BRANCH  29  35
ATOM     30  C   UNL     1       1.661   3.752   4.709  0.00  0.00    +0.044 C 
ATOM     31  C   UNL     1       1.350   3.779   3.235  0.00  0.00    -0.039 A 
ATOM     32  C   UNL     1       1.669   4.885   2.470  0.00  0.00    +0.011 A 
ATOM     33  C   UNL     1       1.375   4.876   1.147  0.00  0.00    +0.046 A 
ATOM     34  S   UNL     1       0.623   3.270   0.946  0.00  0.00    -0.100 S 
ATOM     35  C   UNL     1       0.756   2.716   2.638  0.00  0.00    +0.010 A 
ENDBRANCH  29  35
ENDBRANCH  25  29
ENDBRANCH   1  26
TORSDOF 4
