REMARK  Name = ZINC17660807
REMARK  6 active torsions:
REMARK  status: ('A' for Active; 'I' for Inactive)
REMARK    1  A    between atoms: C_4  and  C_7
REMARK    2  A    between atoms: C_7  and  C_8
REMARK    3  A    between atoms: C_8  and  N_9
REMARK    4  A    between atoms: C_18  and  S_19
REMARK    5  A    between atoms: S_19  and  C_20
REMARK    6  A    between atoms: C_20  and  C_21
REMARK                            x       y       z     vdW  Elec       q    Type
REMARK                         _______ _______ _______ _____ _____    ______ ____
ROOT
ATOM      1  N   UNL     1      -0.863  -2.202  -0.003  0.00  0.00    -0.287 N 
ATOM      2  C   UNL     1      -1.135  -0.876   0.007  0.00  0.00    +0.263 A 
ATOM      3  O   UNL     1      -2.277  -0.450   0.020  0.00  0.00    -0.267 OA
ATOM      4  C   UNL     1       0.002  -0.004   0.002  0.00  0.00    +0.076 A 
ATOM      5  C   UNL     1      -0.018   1.450   0.010  0.00  0.00    -0.023 A 
ATOM      6  C   UNL     1       1.183   2.073   0.002  0.00  0.00    -0.004 A 
ATOM      7  S   UNL     1       2.385   0.767  -0.016  0.00  0.00    -0.073 S 
ATOM      8  C   UNL     1       1.280  -0.609  -0.013  0.00  0.00    +0.117 A 
ATOM      9  N   UNL     1       1.479  -1.921  -0.023  0.00  0.00    -0.216 NA
ATOM     10  C   UNL     1       0.404  -2.699  -0.017  0.00  0.00    +0.173 A 
ATOM     11  C   UNL     1       1.438   3.548   0.007  0.00  0.00    +0.043 C 
ATOM     12  C   UNL     1       0.131   4.270  -0.351  0.00  0.00    +0.005 C 
ATOM     13  C   UNL     1      -1.001   3.680   0.495  0.00  0.00    +0.005 C 
ATOM     14  C   UNL     1      -1.312   2.259   0.033  0.00  0.00    +0.037 C 
ENDROOT
BRANCH   1  15
ATOM     15  C   UNL     1      -1.984  -3.146   0.001  0.00  0.00    +0.132 C 
BRANCH  15  16
ATOM     16  C   UNL     1      -2.387  -3.465  -1.440  0.00  0.00    +0.057 C 
BRANCH  16  20
ATOM     17  C   UNL     1      -5.654  -6.216  -1.429  0.00  0.00    +0.000 A 
ATOM     18  C   UNL     1      -5.897  -4.856  -1.419  0.00  0.00    +0.000 A 
ATOM     19  C   UNL     1      -4.839  -3.965  -1.422  0.00  0.00    +0.004 A 
ATOM     20  C   UNL     1      -3.539  -4.436  -1.436  0.00  0.00    -0.046 A 
ATOM     21  C   UNL     1      -3.297  -5.797  -1.452  0.00  0.00    +0.004 A 
ATOM     22  C   UNL     1      -4.355  -6.687  -1.443  0.00  0.00    +0.000 A 
ENDBRANCH  16  20
ENDBRANCH  15  16
ENDBRANCH   1  15
BRANCH  10  23
ATOM     23  S   UNL     1       0.627  -4.447  -0.030  0.00  0.00    -0.080 S 
BRANCH  23  24
ATOM     24  C   UNL     1       2.435  -4.533  -0.047  0.00  0.00    +0.153 C 
BRANCH  24  25
ATOM     25  C   UNL     1       2.868  -5.976  -0.059  0.00  0.00    +0.146 A 
ATOM     26  N   UNL     1       3.074  -6.613   1.081  0.00  0.00    -0.199 NA
ATOM     27  C   UNL     1       3.452  -7.889   1.074  0.00  0.00    +0.217 A 
ATOM     28  N   UNL     1       3.634  -8.520  -0.081  0.00  0.00    -0.181 NA
ATOM     29  C   UNL     1       3.431  -7.875  -1.225  0.00  0.00    +0.217 A 
ATOM     30  N   UNL     1       3.048  -6.601  -1.210  0.00  0.00    -0.199 NA
ATOM     31  N   UNL     1       3.618  -8.526  -2.428  0.00  0.00    -0.327 N 
ATOM     32  N   UNL     1       3.661  -8.554   2.265  0.00  0.00    -0.327 N 
ATOM     33  H   UNL     1       3.471  -8.055  -3.262  0.00  0.00    +0.145 HD
ATOM     34  H   UNL     1       3.898  -9.455  -2.438  0.00  0.00    +0.145 HD
ATOM     35  H   UNL     1       3.941  -9.483   2.259  0.00  0.00    +0.145 HD
ATOM     36  H   UNL     1       3.529  -8.093   3.107  0.00  0.00    +0.145 HD
ENDBRANCH  24  25
ENDBRANCH  23  24
ENDBRANCH  10  23
TORSDOF 6
