REMARK  Name = ZINC56099979
REMARK  13 active torsions:
REMARK  status: ('A' for Active; 'I' for Inactive)
REMARK    1  A    between atoms: C_1  and  C_2
REMARK    2  A    between atoms: C_2  and  C_4
REMARK    3  A    between atoms: C_2  and  N_25
REMARK    4  A    between atoms: C_10  and  C_13
REMARK    5  A    between atoms: C_13  and  N_14
REMARK    6  A    between atoms: N_14  and  C_15
REMARK    7  A    between atoms: C_15  and  C_16
REMARK    8  A    between atoms: C_15  and  C_17
REMARK    9  A    between atoms: C_18  and  O_20
REMARK   10  A    between atoms: O_20  and  C_21
REMARK   11  A    between atoms: C_21  and  C_22
REMARK   12  A    between atoms: C_21  and  C_23
REMARK   13  A    between atoms: C_21  and  C_24
REMARK                            x       y       z     vdW  Elec       q    Type
REMARK                         _______ _______ _______ _____ _____    ______ ____
ROOT
ATOM      1  C   UNL     1      -1.420  -0.486   0.130  0.00  0.00    +0.236 C 
ATOM      2  O   UNL     1      -1.880  -1.245  -0.697  0.00  0.00    -0.274 OA
ATOM      3  N   UNL     1      -2.181  -0.075   1.163  0.00  0.00    -0.300 N 
ATOM      4  C   UNL     1      -1.679   0.932   2.108  0.00  0.00    +0.108 C 
ATOM      5  C   UNL     1      -2.695   2.075   2.198  0.00  0.00    +0.019 C 
ATOM      6  C   UNL     1      -4.068   1.504   2.559  0.00  0.00    +0.008 C 
ATOM      7  C   UNL     1      -4.524   0.536   1.464  0.00  0.00    +0.024 C 
ATOM      8  C   UNL     1      -3.531  -0.619   1.363  0.00  0.00    +0.112 C 
ENDROOT
BRANCH   1  10
ATOM      9  C   UNL     1       0.023   1.329  -0.749  0.00  0.00    +0.038 C 
ATOM     10  C   UNL     1       0.002  -0.004   0.002  0.00  0.00    +0.157 C 
BRANCH  10  11
ATOM     11  N   UNL     1       0.789  -0.994  -0.738  0.00  0.00    -0.289 N 
ATOM     12  C   UNL     1       2.123  -1.063  -0.562  0.00  0.00    +0.298 C 
ATOM     13  O   UNL     1       2.674  -0.304   0.212  0.00  0.00    -0.253 OA
ATOM     14  N   UNL     1       2.847  -1.974  -1.243  0.00  0.00    -0.313 N 
ATOM     15  H   UNL     1       0.349  -1.599  -1.356  0.00  0.00    +0.151 HD
ATOM     16  H   UNL     1       2.407  -2.579  -1.860  0.00  0.00    +0.146 HD
ATOM     17  H   UNL     1       3.807  -2.023  -1.116  0.00  0.00    +0.146 HD
ENDBRANCH  10  11
ENDBRANCH   1  10
BRANCH   7  18
ATOM     18  C   UNL     1      -5.911  -0.009   1.810  0.00  0.00    +0.116 C 
BRANCH  18  19
ATOM     19  N   UNL     1      -6.885   1.086   1.790  0.00  0.00    -0.265 N 
ATOM     20  C   UNL     1      -7.130   1.791   2.912  0.00  0.00    +0.404 C 
ATOM     21  O   UNL     1      -6.543   1.518   3.941  0.00  0.00    -0.226 OA
BRANCH  19  22
ATOM     22  C   UNL     1      -7.592   1.414   0.549  0.00  0.00    +0.073 C 
ATOM     23  C   UNL     1      -9.098   1.256   0.764  0.00  0.00    +0.028 C 
ATOM     24  C   UNL     1      -7.282   2.859   0.153  0.00  0.00    +0.028 C 
ENDBRANCH  19  22
BRANCH  20  25
ATOM     25  O   UNL     1      -8.025   2.797   2.893  0.00  0.00    -0.445 OA
BRANCH  25  26
ATOM     26  C   UNL     1      -8.235   3.501   4.119  0.00  0.00    +0.107 C 
ATOM     27  C   UNL     1      -6.918   4.131   4.577  0.00  0.00    +0.055 C 
ATOM     28  C   UNL     1      -9.277   4.600   3.903  0.00  0.00    +0.055 C 
ATOM     29  C   UNL     1      -8.734   2.527   5.188  0.00  0.00    +0.055 C 
ENDBRANCH  25  26
ENDBRANCH  20  25
ENDBRANCH  18  19
ENDBRANCH   7  18
TORSDOF 7
