REMARK  Name = ZINC36083123
REMARK  7 active torsions:
REMARK  status: ('A' for Active; 'I' for Inactive)
REMARK    1  A    between atoms: C_4  and  C_7
REMARK    2  A    between atoms: C_7  and  C_9
REMARK    3  A    between atoms: C_11  and  C_23
REMARK    4  A    between atoms: C_17  and  C_18
REMARK    5  A    between atoms: C_17  and  O_22
REMARK    6  A    between atoms: C_25  and  N_30
REMARK    7  A    between atoms: C_28  and  O_29
REMARK                            x       y       z     vdW  Elec       q    Type
REMARK                         _______ _______ _______ _____ _____    ______ ____
ROOT
ATOM      1  C   UNL     1       3.716  -2.186  -0.046  0.00  0.00    +0.144 C 
ATOM      2  C   UNL     1       5.030  -2.676  -0.664  0.00  0.00    +0.124 C 
ATOM      3  N   UNL     1       6.146  -2.257   0.186  0.00  0.00    -0.292 N 
ATOM      4  C   UNL     1       5.992  -2.094   1.509  0.00  0.00    +0.302 C 
ATOM      5  O   UNL     1       6.954  -1.755   2.171  0.00  0.00    -0.253 OA
ATOM      6  N   UNL     1       4.820  -2.290   2.130  0.00  0.00    -0.264 N 
ATOM      7  C   UNL     1       3.623  -2.710   1.391  0.00  0.00    +0.243 C 
ATOM      8  H   UNL     1       7.014  -2.095  -0.215  0.00  0.00    +0.151 HD
ATOM      9  H   UNL     1       4.760  -2.150   3.088  0.00  0.00    +0.153 HD
ENDROOT
BRANCH   2  10
ATOM     10  C   UNL     1       5.193  -2.081  -2.039  0.00  0.00    +0.017 A 
ATOM     11  C   UNL     1       6.016  -0.987  -2.227  0.00  0.00    +0.041 A 
ATOM     12  C   UNL     1       6.165  -0.442  -3.488  0.00  0.00    +0.127 A 
ATOM     13  C   UNL     1       5.492  -0.988  -4.565  0.00  0.00    +0.036 A 
ATOM     14  C   UNL     1       4.668  -2.082  -4.383  0.00  0.00    +0.048 A 
ATOM     15  C   UNL     1       4.521  -2.635  -3.119  0.00  0.00    +0.122 A 
BRANCH  12  16
ATOM     16  N   UNL     1       7.047   0.730  -3.686  0.00  0.00    +0.056 N 
ATOM     17  O   UNL     1       7.636   1.210  -2.745  0.00  0.00    -0.126 OA
ATOM     18  O   UNL     1       7.179   1.209  -4.789  0.00  0.00    -0.126 OA
ENDBRANCH  12  16
BRANCH  15  19
ATOM     19  O   UNL     1       3.714  -3.714  -2.938  0.00  0.00    -0.506 OA
ATOM     20  H   UNL     1       2.796  -3.489  -2.734  0.00  0.00    +0.292 HD
ENDBRANCH  15  19
ENDBRANCH   2  10
BRANCH   7  21
ATOM     21  C   UNL     1       3.545  -4.238   1.373  0.00  0.00    +0.436 C 
ATOM     22  F   UNL     1       4.691  -4.757   0.762  0.00  0.00    -0.166 F 
ATOM     23  F   UNL     1       3.460  -4.716   2.686  0.00  0.00    -0.166 F 
ATOM     24  F   UNL     1       2.412  -4.639   0.657  0.00  0.00    -0.166 F 
ENDBRANCH   7  21
BRANCH   1  25
ATOM     25  C   UNL     1       3.691  -0.679  -0.038  0.00  0.00    +0.173 C 
ATOM     26  O   UNL     1       4.731  -0.056  -0.045  0.00  0.00    -0.292 OA
BRANCH  25  30
ATOM     27  C   UNL     1      -0.017   1.380   0.010  0.00  0.00    +0.000 A 
ATOM     28  C   UNL     1       1.168   2.095   0.002  0.00  0.00    +0.001 A 
ATOM     29  C   UNL     1       2.377   1.433  -0.013  0.00  0.00    +0.011 A 
ATOM     30  C   UNL     1       2.405   0.035  -0.021  0.00  0.00    +0.018 A 
ATOM     31  C   UNL     1       1.203  -0.681  -0.013  0.00  0.00    +0.011 A 
ATOM     32  C   UNL     1       0.002  -0.004   0.002  0.00  0.00    +0.001 A 
ENDBRANCH  25  30
ENDBRANCH   1  25
BRANCH   7  33
ATOM     33  O   UNL     1       2.455  -2.178   2.018  0.00  0.00    -0.364 OA
ATOM     34  H   UNL     1       2.333  -2.469   2.933  0.00  0.00    +0.212 HD
ENDBRANCH   7  33
TORSDOF 7
