REMARK  Name = ZINC44686848
REMARK  5 active torsions:
REMARK  status: ('A' for Active; 'I' for Inactive)
REMARK    1  A    between atoms: C_3  and  N_21
REMARK    2  A    between atoms: C_4  and  S_8
REMARK    3  A    between atoms: S_8  and  N_11
REMARK    4  A    between atoms: N_11  and  C_12
REMARK    5  A    between atoms: N_16  and  C_18
REMARK                            x       y       z     vdW  Elec       q    Type
REMARK                         _______ _______ _______ _____ _____    ______ ____
ROOT
ATOM      1  S   UNL     1       3.867  -0.824  -0.174  0.00  0.00    +0.060 S 
ATOM      2  O   UNL     1       4.621  -0.395   0.951  0.00  0.00    -0.153 OA
ATOM      3  O   UNL     1       3.412  -2.162  -0.321  0.00  0.00    -0.153 OA
ENDROOT
BRANCH   1   7
ATOM      4  C   UNL     1       0.192   1.821  -0.355  0.00  0.00    +0.017 A 
ATOM      5  C   UNL     1       0.393   0.859  -1.325  0.00  0.00    +0.026 A 
ATOM      6  C   UNL     1       1.518   0.046  -1.273  0.00  0.00    +0.051 A 
ATOM      7  C   UNL     1       2.438   0.204  -0.245  0.00  0.00    +0.127 A 
ATOM      8  C   UNL     1       2.232   1.168   0.722  0.00  0.00    +0.045 A 
ATOM      9  C   UNL     1       1.110   1.976   0.668  0.00  0.00    +0.020 A 
ATOM     10 BR   UNL     1       0.831   3.295   1.994  0.00  0.00    -0.050 Br
BRANCH   6  11
ATOM     11  N   UNL     1       1.724  -0.928  -2.253  0.00  0.00    -0.356 N 
ATOM     12  H   UNL     1       1.042  -1.093  -2.924  0.00  0.00    +0.142 HD
ATOM     13  H   UNL     1       2.547  -1.440  -2.263  0.00  0.00    +0.142 HD
ENDBRANCH   6  11
ENDBRANCH   1   7
BRANCH   1  14
ATOM     14  N   UNL     1       4.781  -0.486  -1.513  0.00  0.00    -0.189 NA
ATOM     15  H   UNL     1       4.925  -1.168  -2.187  0.00  0.00    +0.148 HD
BRANCH  14  16
ATOM     16  C   UNL     1       5.371   0.845  -1.679  0.00  0.00    +0.058 C 
ATOM     17  C   UNL     1       6.856   0.831  -1.247  0.00  0.00    -0.000 C 
ATOM     18  C   UNL     1       7.606   0.651  -2.590  0.00  0.00    -0.077 C 
ATOM     19  N   UNL     1       6.804   1.464  -3.539  0.00  0.00    +0.383 N 
ATOM     20  C   UNL     1       5.388   1.240  -3.168  0.00  0.00    -0.058 C 
ATOM     21  H   UNL     1       7.037   2.441  -3.444  0.00  0.00    -0.081 HD
BRANCH  19  22
ATOM     22  C   UNL     1       7.043   1.016  -4.918  0.00  0.00    -0.069 C 
ATOM     23  C   UNL     1       7.768   1.980  -5.858  0.00  0.00    -0.017 C 
ATOM     24  C   UNL     1       6.271   1.721  -6.034  0.00  0.00    -0.017 C 
ENDBRANCH  19  22
ENDBRANCH  14  16
ENDBRANCH   1  14
TORSDOF 5
