REMARK  Name = ZINC27533950
REMARK  7 active torsions:
REMARK  status: ('A' for Active; 'I' for Inactive)
REMARK    1  A    between atoms: CB_1  and  CA_2
REMARK    2  A    between atoms: CA_2  and  C_4
REMARK    3  A    between atoms: CA_2  and  N_7
REMARK    4  A    between atoms: C_8  and  CA_10
REMARK    5  A    between atoms: CA_10  and  N_17
REMARK    6  A    between atoms: C_11  and  C_12
REMARK    7  A    between atoms: C_18  and  C_20
REMARK                            x       y       z     vdW  Elec       q    Type
REMARK                         _______ _______ _______ _____ _____    ______ ____
ROOT
ATOM      1  CA  UNL     1      -1.283   1.981   0.046  0.00  0.00    +0.100 C 
ATOM      2  C   UNL     1      -1.281   3.340   0.049  0.00  0.00    +0.074 C 
ENDROOT
BRANCH   2   3
ATOM      3  C   UNL     1      -2.504   4.050   0.134  0.00  0.00    +0.130 A 
ATOM      4  C   UNL     1      -2.657   5.418   0.049  0.00  0.00    +0.049 A 
ATOM      5  C   UNL     1      -4.031   5.675   0.185  0.00  0.00    +0.042 A 
ATOM      6  C   UNL     1      -4.647   4.484   0.344  0.00  0.00    +0.195 A 
ATOM      7  O   UNL     1      -3.727   3.508   0.308  0.00  0.00    -0.463 OA
ENDBRANCH   2   3
BRANCH   1   9
ATOM      8  N   UNL     1       1.153   1.919   0.085  0.00  0.00    -0.297 N 
ATOM      9  C   UNL     1      -0.015   1.247   0.068  0.00  0.00    +0.259 C 
ATOM     10  O   UNL     1      -0.017   0.029   0.067  0.00  0.00    -0.269 OA
ATOM     11  H   UNL     1       1.154   3.019   0.087  0.00  0.00    +0.150 HD
BRANCH   8  13
ATOM     12  CB  UNL     1       2.818   0.823  -1.331  0.00  0.00    +0.040 C 
ATOM     13  CA  UNL     1       2.421   1.185   0.101  0.00  0.00    +0.183 C 
BRANCH  13  14
ATOM     14  C   UNL     1       3.492   2.046   0.717  0.00  0.00    +0.376 C 
ATOM     15  O   UNL     1       3.225   3.160   1.103  0.00  0.00    -0.244 OA
ATOM     16  OXT UNL     1       4.744   1.577   0.837  0.00  0.00    -0.244 OA
ENDBRANCH  13  14
ENDBRANCH   8  13
ENDBRANCH   1   9
BRANCH   1  17
ATOM     17  N   UNL     1      -2.496   1.283   0.023  0.00  0.00    -0.275 N 
ATOM     18  C   UNL     1      -2.769   0.440  -0.992  0.00  0.00    +0.284 C 
ATOM     19  O   UNL     1      -1.927   0.219  -1.843  0.00  0.00    -0.266 OA
ATOM     20  H   UNL     1      -3.226   1.422   0.834  0.00  0.00    +0.155 HD
BRANCH  18  21
ATOM     21  C   UNL     1      -4.079  -0.211  -1.072  0.00  0.00    +0.191 A 
ATOM     22  C   UNL     1      -4.521  -1.003  -2.094  0.00  0.00    +0.056 A 
ATOM     23  C   UNL     1      -5.821  -1.410  -1.756  0.00  0.00    +0.058 A 
ATOM     24  C   UNL     1      -6.116  -0.849  -0.561  0.00  0.00    +0.171 A 
ATOM     25  O   UNL     1      -5.064  -0.127  -0.152  0.00  0.00    -0.444 OA
ATOM     26 BR   UNL     1      -7.744  -1.051   0.379  0.00  0.00    -0.008 Br
ENDBRANCH  18  21
ENDBRANCH   1  17
TORSDOF 6
