REMARK  Name = ZINC37799404
REMARK  2 active torsions:
REMARK  status: ('A' for Active; 'I' for Inactive)
REMARK    1  A    between atoms: C_8  and  C_12
REMARK    2  A    between atoms: C_19  and  C_21
REMARK                            x       y       z     vdW  Elec       q    Type
REMARK                         _______ _______ _______ _____ _____    ______ ____
ROOT
ATOM      1  C   UNL     1       2.371  -4.262  -0.037  0.00  0.00    +0.234 C 
ATOM      2  O   UNL     1       2.923  -4.730   0.936  0.00  0.00    -0.274 OA
ATOM      3  N   UNL     1       1.885  -5.077  -0.993  0.00  0.00    -0.289 N 
ATOM      4  C   UNL     1       1.103  -4.535  -2.113  0.00  0.00    +0.108 C 
ATOM      5  C   UNL     1       1.732  -5.007  -3.428  0.00  0.00    +0.019 C 
ATOM      6  C   UNL     1       1.840  -6.533  -3.417  0.00  0.00    +0.004 C 
ATOM      7  C   UNL     1       2.744  -6.975  -2.264  0.00  0.00    +0.032 C 
ATOM      8  C   UNL     1       2.131  -6.524  -0.939  0.00  0.00    +0.162 C 
ENDROOT
BRANCH   1  16
ATOM      9  C   UNL     1      -0.636   1.123   0.438  0.00  0.00    +0.000 A 
ATOM     10  C   UNL     1       0.499   1.908   0.518  0.00  0.00    +0.000 A 
ATOM     11  C   UNL     1       1.746   1.317   0.502  0.00  0.00    +0.005 A 
ATOM     12  C   UNL     1       1.868  -0.061   0.407  0.00  0.00    -0.030 A 
ATOM     13  C   UNL     1       0.736  -0.844   0.331  0.00  0.00    -0.041 A 
ATOM     14  C   UNL     1      -0.516  -0.249   0.344  0.00  0.00    +0.004 A 
ATOM     15  C   UNL     1       0.818  -2.346   0.238  0.00  0.00    +0.063 C 
ATOM     16  C   UNL     1       2.228  -2.768  -0.176  0.00  0.00    +0.145 C 
ATOM     17  N   UNL     1       3.195  -2.091   0.703  0.00  0.00    -0.301 NA
ATOM     18  C   UNL     1       3.251  -0.659   0.389  0.00  0.00    +0.117 C 
ATOM     19  H   UNL     1       2.967  -2.239   1.674  0.00  0.00    +0.123 HD
ENDBRANCH   1  16
BRANCH   8  20
ATOM     20  C   UNL     1       3.085  -6.833   0.186  0.00  0.00    +0.231 C 
ATOM     21  O   UNL     1       4.205  -6.369   0.176  0.00  0.00    -0.274 OA
ATOM     22  N   UNL     1       2.692  -7.624   1.204  0.00  0.00    -0.328 N 
ATOM     23  H   UNL     1       1.796  -7.995   1.212  0.00  0.00    +0.145 HD
ATOM     24  H   UNL     1       3.306  -7.823   1.929  0.00  0.00    +0.145 HD
ENDBRANCH   8  20
TORSDOF 2
