REMARK  Name = ZINC39726223
REMARK  5 active torsions:
REMARK  status: ('A' for Active; 'I' for Inactive)
REMARK    1  A    between atoms: C_1  and  O_2
REMARK    2  A    between atoms: O_2  and  C_3
REMARK    3  A    between atoms: C_6  and  C_10
REMARK    4  A    between atoms: C_8  and  O_9
REMARK    5  A    between atoms: C_11  and  C_12
REMARK                            x       y       z     vdW  Elec       q    Type
REMARK                         _______ _______ _______ _____ _____    ______ ____
ROOT
ATOM      1  C   UNL     1       3.990  -2.456   6.277  0.00  0.00    +0.165 C 
ATOM      2  N   UNL     1       4.032  -3.781   6.294  0.00  0.00    -0.156 NA
ATOM      3  C   UNL     1       4.697  -4.467   7.221  0.00  0.00    +0.272 C 
ATOM      4  O   UNL     1       4.717  -5.687   7.206  0.00  0.00    -0.268 OA
ATOM      5  C   UNL     1       5.423  -3.698   8.284  0.00  0.00    +0.071 C 
ATOM      6  C   UNL     1       6.097  -4.187   9.338  0.00  0.00    -0.042 C 
ATOM      7  C   UNL     1       6.099  -5.661   9.736  0.00  0.00    +0.033 C 
ATOM      8  C   UNL     1       5.642  -5.724  11.200  0.00  0.00    +0.004 C 
ATOM      9  C   UNL     1       6.494  -4.794  12.060  0.00  0.00    +0.002 C 
ATOM     10  C   UNL     1       6.309  -3.335  11.633  0.00  0.00    +0.019 C 
ATOM     11  C   UNL     1       6.836  -3.174  10.205  0.00  0.00    +0.079 C 
ATOM     12  S   UNL     1       6.265  -1.581   9.501  0.00  0.00    -0.097 S 
ATOM     13  C   UNL     1       5.311  -2.229   8.152  0.00  0.00    +0.112 C 
ATOM     14  N   UNL     1       4.619  -1.696   7.178  0.00  0.00    -0.222 NA
ENDROOT
BRANCH   1  16
ATOM     15  C   UNL     1       2.576  -2.533   4.289  0.00  0.00    +0.031 C 
ATOM     16  C   UNL     1       3.223  -1.794   5.216  0.00  0.00    +0.083 C 
ATOM     17 CL   UNL     1       3.148  -0.061   5.152  0.00  0.00    -0.080 Cl
BRANCH  15  21
ATOM     18  C   UNL     1       0.742  -0.638   0.962  0.00  0.00    +0.161 A 
ATOM     19  C   UNL     1       0.181  -1.788   1.502  0.00  0.00    +0.050 A 
ATOM     20  C   UNL     1       0.773  -2.406   2.582  0.00  0.00    +0.012 A 
ATOM     21  C   UNL     1       1.943  -1.875   3.137  0.00  0.00    -0.020 A 
ATOM     22  C   UNL     1       2.508  -0.717   2.592  0.00  0.00    +0.057 A 
ATOM     23  C   UNL     1       1.911  -0.106   1.506  0.00  0.00    +0.159 A 
BRANCH  18  25
ATOM     24  C   UNL     1      -1.041  -0.630  -0.609  0.00  0.00    +0.277 C 
ATOM     25  O   UNL     1       0.154  -0.033  -0.102  0.00  0.00    -0.491 OA
ENDBRANCH  18  25
BRANCH  23  26
ATOM     26  O   UNL     1       2.460   1.017   0.971  0.00  0.00    -0.503 OA
ATOM     27  H   UNL     1       2.137   1.839   1.364  0.00  0.00    +0.292 HD
ENDBRANCH  23  26
ENDBRANCH  15  21
ENDBRANCH   1  16
TORSDOF 4
