REMARK  Name = ZINC31167830
REMARK  18 active torsions:
REMARK  status: ('A' for Active; 'I' for Inactive)
REMARK    1  A    between atoms: C_1  and  C_2
REMARK    2  A    between atoms: C_2  and  C_3
REMARK    3  A    between atoms: C_2  and  C_4
REMARK    4  A    between atoms: C_4  and  C_5
REMARK    5  A    between atoms: C_5  and  C_6
REMARK    6  A    between atoms: C_6  and  O_37
REMARK    7  A    between atoms: C_7  and  O_36
REMARK    8  A    between atoms: C_9  and  C_34
REMARK    9  A    between atoms: C_9  and  C_35
REMARK   10  A    between atoms: C_10  and  O_17
REMARK   11  A    between atoms: C_12  and  C_15
REMARK   12  A    between atoms: C_12  and  C_16
REMARK   13  A    between atoms: O_17  and  C_18
REMARK   14  A    between atoms: C_20  and  O_33
REMARK   15  A    between atoms: C_22  and  O_32
REMARK   16  A    between atoms: C_24  and  O_31
REMARK   17  A    between atoms: C_26  and  C_29
REMARK   18  A    between atoms: C_29  and  O_30
REMARK                            x       y       z     vdW  Elec       q    Type
REMARK                         _______ _______ _______ _____ _____    ______ ____
ROOT
ATOM      1  C   UNL     1       1.050   8.616   0.773  0.00  0.00    +0.150 C 
ATOM      2  C   UNL     1       0.613   8.038   2.108  0.00  0.00    +0.161 C 
ATOM      3  C   UNL     1       1.534   6.981   2.687  0.00  0.00    +0.021 C 
ATOM      4  C   UNL     1       1.954   5.910   1.700  0.00  0.00    +0.142 C 
ATOM      5  C   UNL     1       2.434   6.420   0.352  0.00  0.00    +0.053 C 
ATOM      6  C   UNL     1       1.583   7.555  -0.147  0.00  0.00    +0.175 C 
ATOM      7  O   UNL     1       1.319   7.616  -1.338  0.00  0.00    -0.294 OA
ATOM      8  C   UNL     1       3.907   6.835   0.409  0.00  0.00    +0.021 C 
ATOM      9  C   UNL     1       2.321   5.262  -0.665  0.00  0.00    +0.021 C 
ATOM     10  C   UNL     1       0.744   6.267   3.817  0.00  0.00    +0.016 C 
ATOM     11  C   UNL     1       2.753   7.622   3.356  0.00  0.00    +0.016 C 
ENDROOT
BRANCH   2  12
ATOM     12  O   UNL     1      -0.708   7.488   1.971  0.00  0.00    -0.388 OA
ATOM     13  H   UNL     1      -1.201   7.020   2.836  0.00  0.00    +0.210 HD
ENDBRANCH   2  12
BRANCH   1  14
ATOM     14  O   UNL     1      -0.112   9.201   0.141  0.00  0.00    -0.378 OA
ATOM     15  H   UNL     1      -0.985   8.574  -0.092  0.00  0.00    +0.211 HD
ENDBRANCH   1  14
BRANCH   1  16
ATOM     16  C   UNL     1       2.075   9.738   0.960  0.00  0.00    +0.045 C 
BRANCH  16  17
ATOM     17  C   UNL     1       2.389  10.373  -0.396  0.00  0.00    +0.006 C 
BRANCH  17  19
ATOM     18  C   UNL     1       4.737  10.900   0.275  0.00  0.00    +0.007 C 
ATOM     19  C   UNL     1       3.413  11.494  -0.209  0.00  0.00    -0.017 C 
ATOM     20  C   UNL     1       3.633  12.211  -1.543  0.00  0.00    +0.007 C 
ENDBRANCH  17  19
ENDBRANCH  16  17
ENDBRANCH   1  16
BRANCH   4  21
ATOM     21  O   UNL     1       0.858   5.002   1.494  0.00  0.00    -0.344 OA
BRANCH  21  22
ATOM     22  C   UNL     1       1.067   3.703   2.051  0.00  0.00    +0.282 C 
ATOM     23  C   UNL     1      -0.200   2.862   1.872  0.00  0.00    +0.201 C 
ATOM     24  C   UNL     1       0.052   1.452   2.417  0.00  0.00    +0.179 C 
ATOM     25  C   UNL     1       1.260   0.846   1.696  0.00  0.00    +0.177 C 
ATOM     26  C   UNL     1       2.470   1.765   1.882  0.00  0.00    +0.178 C 
ATOM     27  O   UNL     1       2.158   3.067   1.382  0.00  0.00    -0.341 OA
BRANCH  25  28
ATOM     28  O   UNL     1       1.548  -0.441   2.247  0.00  0.00    -0.386 OA
ATOM     29  H   UNL     1       2.388  -1.032   1.853  0.00  0.00    +0.210 HD
ENDBRANCH  25  28
BRANCH  24  30
ATOM     30  O   UNL     1      -1.100   0.638   2.187  0.00  0.00    -0.386 OA
ATOM     31  H   UNL     1      -1.105  -0.412   2.513  0.00  0.00    +0.210 HD
ENDBRANCH  24  30
BRANCH  23  32
ATOM     32  O   UNL     1      -1.279   3.465   2.588  0.00  0.00    -0.384 OA
ATOM     33  H   UNL     1      -2.276   2.999   2.576  0.00  0.00    +0.210 HD
ENDBRANCH  23  32
BRANCH  26  34
ATOM     34  C   UNL     1       3.665   1.197   1.114  0.00  0.00    +0.190 C 
BRANCH  34  35
ATOM     35  O   UNL     1       4.823   1.990   1.381  0.00  0.00    -0.392 OA
ATOM     36  H   UNL     1       5.785   1.733   0.914  0.00  0.00    +0.210 HD
ENDBRANCH  34  35
ENDBRANCH  26  34
ENDBRANCH  21  22
ENDBRANCH   4  21
TORSDOF 12
