REMARK  Name = ZINC39933391
REMARK  3 active torsions:
REMARK  status: ('A' for Active; 'I' for Inactive)
REMARK    1  A    between atoms: C_1  and  C_2
REMARK    2  A    between atoms: C_6  and  C_10
REMARK    3  A    between atoms: N_8  and  C_9
REMARK                            x       y       z     vdW  Elec       q    Type
REMARK                         _______ _______ _______ _____ _____    ______ ____
ROOT
ATOM      1  C   UNL     1      -0.087   1.494   0.547  0.00  0.00    +0.029 C 
ATOM      2  C   UNL     1      -0.046  -0.027   0.384  0.00  0.00    +0.082 C 
ATOM      3  C   UNL     1       0.390  -0.389  -1.004  0.00  0.00    -0.031 C 
ATOM      4  C   UNL     1       1.679  -0.767  -0.975  0.00  0.00    +0.001 C 
ATOM      5  C   UNL     1       2.189  -0.693   0.430  0.00  0.00    +0.086 C 
ATOM      6  N   UNL     1       0.976  -0.614   1.288  0.00  0.00    -0.292 NA
ATOM      7  C   UNL     1       0.568  -1.948   1.748  0.00  0.00    +0.106 C 
ATOM      8  C   UNL     1       3.052   0.557   0.615  0.00  0.00    +0.029 C 
ATOM      9  C   UNL     1       2.358  -1.159  -2.220  0.00  0.00    +0.091 C 
ATOM     10  S   UNL     1       3.926  -1.844  -2.222  0.00  0.00    -0.034 S 
ATOM     11  N   UNL     1       1.666  -0.944  -3.366  0.00  0.00    -0.274 N 
ATOM     12  N   UNL     1       0.545  -0.180  -3.410  0.00  0.00    -0.238 NA
ATOM     13  C   UNL     1      -0.389  -0.382  -2.295  0.00  0.00    +0.134 C 
ATOM     14  H   UNL     1       1.984  -1.353  -4.186  0.00  0.00    +0.167 HD
ATOM     15  H   UNL     1       0.777   0.796  -3.515  0.00  0.00    +0.145 HD
ENDROOT
TORSDOF 0
