REMARK  Name = ZINC35776223
REMARK  5 active torsions:
REMARK  status: ('A' for Active; 'I' for Inactive)
REMARK    1  A    between atoms: C_1  and  C_2
REMARK    2  A    between atoms: N_8  and  C_9
REMARK    3  A    between atoms: C_12  and  C_19
REMARK    4  A    between atoms: C_14  and  C_15
REMARK    5  A    between atoms: N_16  and  O_17
REMARK                            x       y       z     vdW  Elec       q    Type
REMARK                         _______ _______ _______ _____ _____    ______ ____
ROOT
ATOM      1  C   UNL     1       1.094   0.363   2.217  0.00  0.00    +0.041 A 
ATOM      2  C   UNL     1       0.195   0.664   3.231  0.00  0.00    +0.024 A 
ATOM      3  C   UNL     1       0.559   1.530   4.243  0.00  0.00    +0.014 A 
ATOM      4  C   UNL     1       1.820   2.102   4.255  0.00  0.00    +0.056 A 
ATOM      5  C   UNL     1       2.726   1.813   3.256  0.00  0.00    +0.025 A 
ATOM      6  C   UNL     1       2.373   0.936   2.230  0.00  0.00    +0.039 A 
ENDROOT
BRANCH   1  13
ATOM      7  C   UNL     1       1.568  -2.281   2.672  0.00  0.00    +0.030 C 
ATOM      8  C   UNL     1       1.049  -1.944   1.273  0.00  0.00    +0.096 C 
ATOM      9  C   UNL     1      -0.230  -2.741   0.990  0.00  0.00    +0.182 C 
ATOM     10  O   UNL     1      -0.807  -2.285  -0.235  0.00  0.00    -0.376 OA
ATOM     11  C   UNL     1      -1.217  -0.915  -0.215  0.00  0.00    +0.178 C 
ATOM     12  C   UNL     1       0.011  -0.025   0.005  0.00  0.00    +0.133 C 
ATOM     13  N   UNL     1       0.729  -0.509   1.195  0.00  0.00    -0.322 N 
ENDBRANCH   1  13
BRANCH   6  14
ATOM     14  C   UNL     1       3.342   0.618   1.159  0.00  0.00    +0.164 C 
ATOM     15  N   UNL     1       2.975  -0.113   0.146  0.00  0.00    -0.071 NA
ATOM     16  N   UNL     1       4.639   1.096   1.234  0.00  0.00    -0.340 N 
ATOM     17  H   UNL     1       4.912   1.640   1.989  0.00  0.00    +0.144 HD
ATOM     18  H   UNL     1       5.274   0.887   0.532  0.00  0.00    +0.144 HD
BRANCH  15  19
ATOM     19  O   UNL     1       3.902  -0.418  -0.879  0.00  0.00    -0.408 OA
ATOM     20  H   UNL     1       3.538  -0.965  -1.589  0.00  0.00    +0.328 HD
ENDBRANCH  15  19
ENDBRANCH   6  14
BRANCH   4  21
ATOM     21  C   UNL     1       2.205   3.046   5.366  0.00  0.00    +0.417 C 
ATOM     22  F   UNL     1       1.133   3.183   6.253  0.00  0.00    -0.166 F 
ATOM     23  F   UNL     1       3.313   2.534   6.049  0.00  0.00    -0.166 F 
ATOM     24  F   UNL     1       2.526   4.296   4.825  0.00  0.00    -0.166 F 
ENDBRANCH   4  21
TORSDOF 4
