REMARK  Name = ZINC37622815
REMARK  8 active torsions:
REMARK  status: ('A' for Active; 'I' for Inactive)
REMARK    1  A    between atoms: C_1  and  C_2
REMARK    2  A    between atoms: C_4  and  N_11
REMARK    3  A    between atoms: C_5  and  O_9
REMARK    4  A    between atoms: O_9  and  C_10
REMARK    5  A    between atoms: C_12  and  C_14
REMARK    6  A    between atoms: C_14  and  C_16
REMARK    7  A    between atoms: C_14  and  N_20
REMARK    8  A    between atoms: C_16  and  C_17
REMARK                            x       y       z     vdW  Elec       q    Type
REMARK                         _______ _______ _______ _____ _____    ______ ____
ROOT
ATOM      1  N   UNL     1       0.028  -2.768  -2.427  0.00  0.00    -0.284 N 
ATOM      2  C   UNL     1      -0.089  -2.093  -3.588  0.00  0.00    +0.203 C 
ATOM      3  O   UNL     1      -0.106  -0.880  -3.585  0.00  0.00    -0.277 OA
ATOM      4  H   UNL     1       0.123  -3.733  -2.434  0.00  0.00    +0.155 HD
ENDROOT
BRANCH   1   8
ATOM      5  C   UNL     1      -1.302   1.185   0.178  0.00  0.00    +0.045 C 
ATOM      6  C   UNL     1      -0.624  -0.157   0.083  0.00  0.00    -0.030 A 
ATOM      7  C   UNL     1      -0.610  -0.839  -1.119  0.00  0.00    +0.031 A 
ATOM      8  C   UNL     1       0.014  -2.075  -1.209  0.00  0.00    +0.076 A 
ATOM      9  C   UNL     1       0.626  -2.626  -0.085  0.00  0.00    +0.143 A 
ATOM     10  C   UNL     1       0.608  -1.937   1.117  0.00  0.00    +0.067 A 
ATOM     11  C   UNL     1      -0.012  -0.702   1.198  0.00  0.00    +0.047 A 
ATOM     12 CL   UNL     1      -0.026   0.163   2.703  0.00  0.00    -0.083 Cl
BRANCH   9  13
ATOM     13  O   UNL     1       1.238  -3.837  -0.167  0.00  0.00    -0.493 OA
ATOM     14  C   UNL     1       1.844  -4.339   1.026  0.00  0.00    +0.277 C 
ENDBRANCH   9  13
ENDBRANCH   1   8
BRANCH   2  15
ATOM     15  C   UNL     1      -0.199  -2.845  -4.889  0.00  0.00    +0.022 C 
BRANCH  15  16
ATOM     16  N   UNL     1       0.161  -1.956  -6.001  0.00  0.00    +0.386 N 
ATOM     17  H   UNL     1       1.109  -1.631  -5.879  0.00  0.00    -0.089 HD
ATOM     18  H   UNL     1       0.088  -2.459  -6.872  0.00  0.00    -0.089 HD
ATOM     19  H   UNL     1      -0.466  -1.165  -6.016  0.00  0.00    -0.089 HD
ENDBRANCH  15  16
BRANCH  15  20
ATOM     20  C   UNL     1      -1.636  -3.337  -5.074  0.00  0.00    +0.088 C 
BRANCH  20  21
ATOM     21  C   UNL     1      -1.718  -4.193  -6.312  0.00  0.00    +0.209 C 
ATOM     22  O   UNL     1      -0.726  -4.390  -6.980  0.00  0.00    -0.276 OA
ATOM     23  N   UNL     1      -2.896  -4.739  -6.676  0.00  0.00    -0.329 N 
ATOM     24  H   UNL     1      -3.689  -4.581  -6.141  0.00  0.00    +0.145 HD
ATOM     25  H   UNL     1      -2.949  -5.290  -7.473  0.00  0.00    +0.145 HD
ENDBRANCH  20  21
ENDBRANCH  15  20
ENDBRANCH   2  15
TORSDOF 6
