REMARK  Name = ZINC13248989
REMARK  9 active torsions:
REMARK  status: ('A' for Active; 'I' for Inactive)
REMARK    1  A    between atoms: C_1  and  C_2
REMARK    2  A    between atoms: C_5  and  N_9
REMARK    3  A    between atoms: C_6  and  C_8
REMARK    4  A    between atoms: N_9  and  S_10
REMARK    5  A    between atoms: S_10  and  C_13
REMARK    6  A    between atoms: C_15  and  N_20
REMARK    7  A    between atoms: C_21  and  C_23
REMARK    8  A    between atoms: C_23  and  C_24
REMARK    9  A    between atoms: C_24  and  C_31
REMARK                            x       y       z     vdW  Elec       q    Type
REMARK                         _______ _______ _______ _____ _____    ______ ____
ROOT
ATOM      1  C   UNL     1       4.286   1.311  -1.735  0.00  0.00    +0.128 A 
ATOM      2  C   UNL     1       4.842   0.775  -2.880  0.00  0.00    +0.053 A 
ATOM      3  C   UNL     1       4.309   1.090  -4.123  0.00  0.00    +0.035 A 
ATOM      4  C   UNL     1       3.217   1.943  -4.211  0.00  0.00    +0.025 A 
ATOM      5  C   UNL     1       2.664   2.477  -3.063  0.00  0.00    +0.024 A 
ATOM      6  C   UNL     1       3.195   2.157  -1.825  0.00  0.00    +0.068 A 
ATOM      7 CL   UNL     1       2.493   2.823  -0.384  0.00  0.00    -0.082 Cl
ENDROOT
BRANCH   3   8
ATOM      8  N   UNL     1       4.871   0.548  -5.285  0.00  0.00    -0.285 N 
ATOM      9  C   UNL     1       5.421  -0.682  -5.257  0.00  0.00    +0.218 C 
ATOM     10  O   UNL     1       5.353  -1.354  -4.250  0.00  0.00    -0.275 OA
ATOM     11  H   UNL     1       4.865   1.058  -6.109  0.00  0.00    +0.155 HD
BRANCH   9  12
ATOM     12  C   UNL     1       6.121  -1.222  -6.478  0.00  0.00    +0.114 C 
BRANCH  12  13
ATOM     13  C   UNL     1       6.900  -2.484  -6.102  0.00  0.00    +0.080 C 
ATOM     14  C   UNL     1       8.121  -2.602  -6.973  0.00  0.00    +0.019 C 
ATOM     15  C   UNL     1       7.954  -1.881  -8.324  0.00  0.00    +0.001 C 
ATOM     16  C   UNL     1       6.562  -2.100  -8.949  0.00  0.00    +0.000 C 
ATOM     17  C   UNL     1       6.086  -3.520  -8.811  0.00  0.00    +0.000 C 
ATOM     18  C   UNL     1       5.216  -3.625  -7.542  0.00  0.00    +0.001 C 
ATOM     19  C   UNL     1       6.015  -3.727  -6.329  0.00  0.00    +0.019 C 
BRANCH  13  20
ATOM     20  C   UNL     1       7.311  -2.413  -4.654  0.00  0.00    +0.362 C 
ATOM     21  O   UNL     1       6.971  -3.282  -3.886  0.00  0.00    -0.246 OA
ATOM     22  O   UNL     1       8.054  -1.384  -4.217  0.00  0.00    -0.246 OA
ENDBRANCH  13  20
ENDBRANCH  12  13
ENDBRANCH   9  12
ENDBRANCH   3   8
BRANCH   1  23
ATOM     23  S   UNL     1       4.962   0.911  -0.158  0.00  0.00    +0.074 S 
ATOM     24  O   UNL     1       6.056   0.037  -0.395  0.00  0.00    -0.150 OA
ATOM     25  O   UNL     1       3.867   0.554   0.674  0.00  0.00    -0.150 OA
BRANCH  23  26
ATOM     26  N   UNL     1       5.597   2.306   0.470  0.00  0.00    -0.216 N 
ATOM     27  H   UNL     1       5.162   2.743   1.219  0.00  0.00    +0.174 HD
BRANCH  26  32
ATOM     28  C   UNL     1      10.316   4.526  -1.758  0.00  0.00    +0.044 C 
ATOM     29  C   UNL     1       9.062   3.936  -1.166  0.00  0.00    -0.050 A 
ATOM     30  C   UNL     1       8.144   3.304  -1.984  0.00  0.00    +0.005 A 
ATOM     31  C   UNL     1       6.991   2.767  -1.446  0.00  0.00    +0.025 A 
ATOM     32  C   UNL     1       6.760   2.852  -0.079  0.00  0.00    +0.051 A 
ATOM     33  C   UNL     1       7.687   3.482   0.741  0.00  0.00    -0.028 A 
ATOM     34  C   UNL     1       8.835   4.022   0.196  0.00  0.00    +0.008 A 
ATOM     35  C   UNL     1       7.440   3.578   2.225  0.00  0.00    +0.046 C 
ENDBRANCH  26  32
ENDBRANCH  23  26
ENDBRANCH   1  23
TORSDOF 7
