REMARK  Name = ZINC48950546
REMARK  6 active torsions:
REMARK  status: ('A' for Active; 'I' for Inactive)
REMARK    1  A    between atoms: C_1  and  C_2
REMARK    2  A    between atoms: C_2  and  C_4
REMARK    3  A    between atoms: C_2  and  S_12
REMARK    4  A    between atoms: N_6  and  N_7
REMARK    5  A    between atoms: N_10  and  C_11
REMARK    6  A    between atoms: S_12  and  C_13
REMARK                            x       y       z     vdW  Elec       q    Type
REMARK                         _______ _______ _______ _____ _____    ______ ____
ROOT
ATOM      1  C   UNL     1       0.597  -0.521  -1.296  0.00  0.00    +0.242 C 
ATOM      2  O   UNL     1      -0.127  -0.835  -2.217  0.00  0.00    -0.273 OA
ATOM      3  N   UNL     1       1.934  -0.632  -1.422  0.00  0.00    -0.232 N 
ATOM      4  H   UNL     1       2.513  -0.381  -0.686  0.00  0.00    +0.173 HD
ENDROOT
BRANCH   3   5
ATOM      5  N   UNL     1       2.488  -1.111  -2.617  0.00  0.00    -0.218 N 
ATOM      6  C   UNL     1       3.825  -1.222  -2.743  0.00  0.00    +0.316 C 
ATOM      7  O   UNL     1       4.306  -1.637  -3.780  0.00  0.00    -0.251 OA
ATOM      8  N   UNL     1       4.630  -0.873  -1.719  0.00  0.00    -0.301 N 
ATOM      9  C   UNL     1       6.083  -0.994  -1.856  0.00  0.00    +0.129 C 
ATOM     10  H   UNL     1       1.909  -1.361  -3.354  0.00  0.00    +0.174 HD
ATOM     11  H   UNL     1       4.247  -0.542  -0.892  0.00  0.00    +0.150 HD
ENDBRANCH   3   5
BRANCH   1  13
ATOM     12  C   UNL     1      -0.021   1.523  -0.036  0.00  0.00    +0.029 C 
ATOM     13  C   UNL     1       0.002  -0.006  -0.011  0.00  0.00    +0.135 C 
BRANCH  13  14
ATOM     14  S   UNL     1      -1.692  -0.633   0.164  0.00  0.00    -0.111 S 
BRANCH  14  15
ATOM     15  C   UNL     1      -1.481  -2.361   0.434  0.00  0.00    +0.027 A 
ATOM     16  C   UNL     1      -0.206  -2.892   0.586  0.00  0.00    +0.016 A 
ATOM     17  C   UNL     1      -0.044  -4.247   0.799  0.00  0.00    +0.001 A 
ATOM     18  C   UNL     1      -1.150  -5.076   0.860  0.00  0.00    +0.001 A 
ATOM     19  C   UNL     1      -2.421  -4.552   0.709  0.00  0.00    +0.021 A 
ATOM     20  C   UNL     1      -2.591  -3.196   0.502  0.00  0.00    +0.054 A 
ATOM     21 CL   UNL     1      -4.187  -2.538   0.321  0.00  0.00    -0.082 Cl
ENDBRANCH  14  15
ENDBRANCH  13  14
ENDBRANCH   1  13
TORSDOF 4
