REMARK  Name = ZINC64871155
REMARK  4 active torsions:
REMARK  status: ('A' for Active; 'I' for Inactive)
REMARK    1  A    between atoms: C_3  and  C_8
REMARK    2  A    between atoms: C_11  and  C_15
REMARK    3  A    between atoms: N_25  and  C_28
REMARK    4  A    between atoms: C_28  and  C_29
REMARK                            x       y       z     vdW  Elec       q    Type
REMARK                         _______ _______ _______ _____ _____    ______ ____
ROOT
ATOM      1  C   UNL     1       6.926   2.423  -1.121  0.00  0.00    -0.000 A 
ATOM      2  C   UNL     1       7.266   2.035   0.166  0.00  0.00    +0.008 A 
ATOM      3  C   UNL     1       8.587   1.996   0.558  0.00  0.00    +0.016 A 
ATOM      4  C   UNL     1       9.582   2.350  -0.350  0.00  0.00    +0.063 A 
ATOM      5  C   UNL     1       9.237   2.743  -1.655  0.00  0.00    +0.056 A 
ATOM      6  C   UNL     1       7.903   2.771  -2.032  0.00  0.00    +0.034 A 
ATOM      7  N   UNL     1      10.249   3.090  -2.538  0.00  0.00    -0.307 N 
ATOM      8  H   UNL     1      10.025   3.363  -3.442  0.00  0.00    +0.170 HD
ATOM      9  C   UNL     1      11.537   3.050  -2.154  0.00  0.00    +0.330 A 
ATOM     10  O   UNL     1      12.393   3.362  -2.958  0.00  0.00    -0.246 OA
ATOM     11  N   UNL     1      11.916   2.682  -0.920  0.00  0.00    -0.256 N 
ATOM     12  C   UNL     1      11.010   2.325   0.015  0.00  0.00    +0.265 A 
ATOM     13  O   UNL     1      11.363   1.993   1.130  0.00  0.00    -0.267 OA
ENDROOT
BRANCH   1  16
ATOM     14  C   UNL     1       3.672   2.183  -0.022  0.00  0.00    +0.180 C 
ATOM     15  N   UNL     1       4.714   1.446  -0.774  0.00  0.00    -0.265 NA
ATOM     16  C   UNL     1       5.476   2.460  -1.531  0.00  0.00    +0.242 C 
ATOM     17  O   UNL     1       4.906   3.743  -1.214  0.00  0.00    -0.274 OA
ATOM     18  N   UNL     1       3.519   3.452  -0.783  0.00  0.00    -0.177 NA
ATOM     19  H   UNL     1       5.317   0.933  -0.149  0.00  0.00    +0.127 HD
ATOM     20  H   UNL     1       2.913   3.326  -1.580  0.00  0.00    +0.156 HD
BRANCH  14  23
ATOM     21  C   UNL     1      -0.017   1.378   0.010  0.00  0.00    +0.001 A 
ATOM     22  C   UNL     1       1.171   2.086   0.002  0.00  0.00    +0.006 A 
ATOM     23  C   UNL     1       2.378   1.411  -0.013  0.00  0.00    -0.013 A 
ATOM     24  C   UNL     1       2.397   0.029  -0.022  0.00  0.00    +0.021 A 
ATOM     25  C   UNL     1       1.210  -0.679  -0.014  0.00  0.00    +0.018 A 
ATOM     26  C   UNL     1       0.002  -0.004   0.002  0.00  0.00    +0.015 A 
ATOM     27 BR   UNL     1       1.236  -2.570  -0.025  0.00  0.00    -0.050 Br
ENDBRANCH  14  23
ENDBRANCH   1  16
BRANCH  11  28
ATOM     28  C   UNL     1      13.342   2.666  -0.583  0.00  0.00    +0.165 C 
BRANCH  28  29
ATOM     29  C   UNL     1      13.744   4.012  -0.036  0.00  0.00    -0.027 A 
ATOM     30  C   UNL     1      14.189   5.000  -0.894  0.00  0.00    +0.008 A 
ATOM     31  C   UNL     1      14.557   6.235  -0.395  0.00  0.00    +0.038 A 
ATOM     32  C   UNL     1      14.480   6.482   0.966  0.00  0.00    +0.123 A 
ATOM     33  C   UNL     1      14.034   5.491   1.824  0.00  0.00    +0.038 A 
ATOM     34  C   UNL     1      13.661   4.259   1.321  0.00  0.00    +0.008 A 
ATOM     35  F   UNL     1      14.840   7.689   1.455  0.00  0.00    -0.205 F 
ENDBRANCH  28  29
ENDBRANCH  11  28
TORSDOF 4
