REMARK  Name = ZINC20479473
REMARK  2 active torsions:
REMARK  status: ('A' for Active; 'I' for Inactive)
REMARK    1  A    between atoms: C_3  and  N_8
REMARK    2  A    between atoms: C_15  and  N_19
REMARK                            x       y       z     vdW  Elec       q    Type
REMARK                         _______ _______ _______ _____ _____    ______ ____
ROOT
ATOM      1  N   UNL     1       1.282  -0.417  -0.012  0.00  0.00    -0.202 N 
ATOM      2  C   UNL     1       2.128   0.628  -0.015  0.00  0.00    +0.258 C 
ATOM      3  O   UNL     1       3.341   0.560  -0.027  0.00  0.00    -0.269 OA
ATOM      4  C   UNL     1       1.334   1.874  -0.001  0.00  0.00    +0.052 A 
ATOM      5  C   UNL     1       1.649   3.222   0.004  0.00  0.00    +0.014 A 
ATOM      6  C   UNL     1       0.635   4.170   0.019  0.00  0.00    +0.003 A 
ATOM      7  C   UNL     1      -0.688   3.784   0.030  0.00  0.00    +0.023 A 
ATOM      8  C   UNL     1      -1.028   2.429   0.030  0.00  0.00    +0.038 A 
ATOM      9  C   UNL     1      -0.018   1.468   0.010  0.00  0.00    +0.070 A 
ATOM     10  C   UNL     1       0.002  -0.004   0.002  0.00  0.00    +0.260 C 
ATOM     11  O   UNL     1      -0.975  -0.726   0.007  0.00  0.00    -0.269 OA
ENDROOT
BRANCH   1  14
ATOM     12  C   UNL     1       3.422  -3.410  -0.050  0.00  0.00    +0.003 A 
ATOM     13  C   UNL     1       3.031  -2.085  -0.039  0.00  0.00    +0.024 A 
ATOM     14  C   UNL     1       1.681  -1.761  -0.024  0.00  0.00    +0.045 A 
ATOM     15  C   UNL     1       0.728  -2.770  -0.015  0.00  0.00    +0.038 A 
ATOM     16  C   UNL     1       1.125  -4.093  -0.031  0.00  0.00    +0.015 A 
ATOM     17  C   UNL     1       2.471  -4.413  -0.046  0.00  0.00    +0.014 A 
ATOM     18  I   UNL     1      -0.313  -5.617  -0.025  0.00  0.00    -0.044 I 
ENDBRANCH   1  14
BRANCH   8  19
ATOM     19  N   UNL     1      -2.360   2.043   0.046  0.00  0.00    -0.357 N 
ATOM     20  H   UNL     1      -2.623   0.975   0.046  0.00  0.00    +0.142 HD
ATOM     21  H   UNL     1      -3.153   2.804   0.060  0.00  0.00    +0.142 HD
ENDBRANCH   8  19
TORSDOF 2
