REMARK  Name = ZINC20463239
REMARK  7 active torsions:
REMARK  status: ('A' for Active; 'I' for Inactive)
REMARK    1  A    between atoms: C_1  and  C_2
REMARK    2  A    between atoms: N_7  and  C_10
REMARK    3  A    between atoms: C_10  and  C_11
REMARK    4  A    between atoms: C_11  and  C_12
REMARK    5  A    between atoms: C_18  and  C_20
REMARK    6  A    between atoms: C_20  and  C_21
REMARK    7  A    between atoms: C_24  and  C_26
REMARK                            x       y       z     vdW  Elec       q    Type
REMARK                         _______ _______ _______ _____ _____    ______ ____
ROOT
ATOM      1  C   UNL     1      -0.724   3.110   1.292  0.00  0.00    +0.011 C 
ATOM      2  C   UNL     1      -1.474   3.641   0.066  0.00  0.00    +0.111 C 
ATOM      3  N   UNL     1      -0.879   3.055  -1.143  0.00  0.00    -0.301 N 
ATOM      4  C   UNL     1      -0.755   1.594  -1.232  0.00  0.00    +0.108 C 
ATOM      5  C   UNL     1      -0.013   1.086   0.008  0.00  0.00    +0.023 C 
ATOM      6  C   UNL     1      -0.730   1.580   1.266  0.00  0.00    +0.006 C 
ATOM      7  C   UNL     1      -0.457   3.843  -2.151  0.00  0.00    +0.219 C 
ATOM      8  O   UNL     1      -0.565   5.048  -2.066  0.00  0.00    -0.275 OA
ENDROOT
BRANCH   7   9
ATOM      9  C   UNL     1       0.151   3.227  -3.385  0.00  0.00    +0.075 C 
ATOM     10  C   UNL     1       1.645   3.451  -3.625  0.00  0.00    +0.013 C 
ATOM     11  C   UNL     1       0.613   4.175  -4.494  0.00  0.00    +0.013 C 
ENDBRANCH   7   9
BRANCH   1  12
ATOM     12  C   UNL     1       0.721   3.615   1.265  0.00  0.00    +0.020 C 
BRANCH  12  13
ATOM     13  C   UNL     1       0.731   5.138   1.412  0.00  0.00    +0.085 C 
BRANCH  13  20
ATOM     14  C   UNL     1       6.096   7.130   3.981  0.00  0.00    +0.109 C 
ATOM     15  C   UNL     1       5.259   7.740   2.886  0.00  0.00    +0.213 C 
ATOM     16  O   UNL     1       5.324   8.931   2.666  0.00  0.00    -0.276 OA
ATOM     17  N   UNL     1       4.437   6.963   2.153  0.00  0.00    -0.299 N 
ATOM     18  C   UNL     1       3.611   7.539   1.081  0.00  0.00    +0.123 C 
ATOM     19  C   UNL     1       2.162   7.088   1.287  0.00  0.00    +0.103 C 
ATOM     20  N   UNL     1       2.118   5.622   1.386  0.00  0.00    -0.299 NA
ATOM     21  C   UNL     1       2.864   5.145   2.558  0.00  0.00    +0.103 C 
ATOM     22  C   UNL     1       4.343   5.517   2.404  0.00  0.00    +0.123 C 
ENDBRANCH  13  20
ENDBRANCH  12  13
ENDBRANCH   1  12
BRANCH   6  23
ATOM     23  C   UNL     1      -0.011   1.046   2.506  0.00  0.00    +0.129 C 
BRANCH  23  24
ATOM     24  C   UNL     1      -0.126  -0.456   2.546  0.00  0.00    +0.356 C 
ATOM     25  O   UNL     1      -0.722  -1.040   1.671  0.00  0.00    -0.246 OA
ATOM     26  O   UNL     1       0.434  -1.146   3.552  0.00  0.00    -0.246 OA
ENDBRANCH  23  24
ENDBRANCH   6  23
TORSDOF 6
