REMARK  Name = ZINC63067875
REMARK  9 active torsions:
REMARK  status: ('A' for Active; 'I' for Inactive)
REMARK    1  A    between atoms: C_1  and  C_2
REMARK    2  A    between atoms: N_10  and  CA_11
REMARK    3  A    between atoms: CA_11  and  CB_13
REMARK    4  A    between atoms: CA_11  and  C_20
REMARK    5  A    between atoms: CB_13  and  CG_14
REMARK    6  A    between atoms: C_24  and  C_27
REMARK    7  A    between atoms: C_30  and  O_35
REMARK    8  A    between atoms: C_31  and  O_33
REMARK    9  A    between atoms: O_33  and  C_34
REMARK                            x       y       z     vdW  Elec       q    Type
REMARK                         _______ _______ _______ _____ _____    ______ ____
ROOT
ATOM      1  C   UNK A   0       0.940   1.431   0.165  0.00  0.00    +0.045 C 
ATOM      2  C   UNK A   0       0.714  -0.058   0.117  0.00  0.00    -0.029 A 
ATOM      3  C   UNK A   0       0.498  -0.678  -1.099  0.00  0.00    +0.051 A 
ATOM      4  C   UNK A   0       0.287  -2.048  -1.153  0.00  0.00    +0.131 A 
ATOM      5  C   UNK A   0       0.294  -2.790   0.036  0.00  0.00    +0.039 A 
ATOM      6  C   UNK A   0       0.515  -2.158   1.257  0.00  0.00    +0.033 A 
ATOM      7  C   UNK A   0       0.729  -0.793   1.291  0.00  0.00    +0.045 A 
ATOM      8 CL   UNK A   0       1.010   0.002   2.808  0.00  0.00    -0.083 Cl
ATOM      9  C   UNK A   0       0.058  -4.249  -0.028  0.00  0.00    +0.051 C 
ATOM     10  N   HIS A   1      -0.174  -4.949   1.036  0.00  0.00    -0.272 NA
ATOM     11  C   UNK A   0       0.103  -4.882  -1.407  0.00  0.00    +0.105 C 
ATOM     12  C   UNK A   0      -0.593  -3.912  -2.373  0.00  0.00    +0.209 C 
ATOM     13  O   UNK A   0       0.082  -2.654  -2.348  0.00  0.00    -0.483 OA
ENDROOT
BRANCH  12  14
ATOM     14  C   UNK A   0      -0.551  -4.477  -3.769  0.00  0.00    -0.003 A 
ATOM     15  C   UNK A   0       0.599  -4.361  -4.527  0.00  0.00    +0.011 A 
ATOM     16  C   UNK A   0       0.642  -4.877  -5.808  0.00  0.00    +0.049 A 
ATOM     17  C   UNK A   0      -0.470  -5.513  -6.337  0.00  0.00    +0.158 A 
ATOM     18  C   UNK A   0      -1.628  -5.630  -5.574  0.00  0.00    +0.162 A 
ATOM     19  C   UNK A   0      -1.663  -5.114  -4.288  0.00  0.00    +0.056 A 
BRANCH  18  20
ATOM     20  O   UNK A   0      -2.722  -6.253  -6.088  0.00  0.00    -0.491 OA
ATOM     21  C   UNK A   0      -3.876  -6.336  -5.248  0.00  0.00    +0.277 C 
ENDBRANCH  18  20
BRANCH  17  22
ATOM     22  O   UNK A   0      -0.430  -6.021  -7.597  0.00  0.00    -0.503 OA
ATOM     23  H   UNK A   0      -0.129  -6.939  -7.642  0.00  0.00    +0.292 HD
ENDBRANCH  17  22
ENDBRANCH  12  14
BRANCH  10  24
ATOM     24  CA  HIS A   1      -0.266  -6.408   0.948  0.00  0.00    +0.224 C 
BRANCH  24  25
ATOM     25  C   HIS A   1       0.722  -7.033   1.900  0.00  0.00    +0.380 C 
ATOM     26  O   HIS A   1       1.027  -6.453   2.928  0.00  0.00    -0.244 OA
ATOM     27  OXT HIS A   1       1.215  -8.117   1.642  0.00  0.00    -0.244 OA
ENDBRANCH  24  25
BRANCH  24  28
ATOM     28  CB  HIS A   1      -1.682  -6.853   1.317  0.00  0.00    +0.093 C 
BRANCH  28  29
ATOM     29  CG  HIS A   1      -2.656  -6.329   0.294  0.00  0.00    +0.036 A 
ATOM     30  HD1 HIS A   1      -3.384  -4.545   1.116  0.00  0.00    +0.166 HD
ATOM     31  CD2 HIS A   1      -2.974  -6.906  -0.881  0.00  0.00    +0.105 A 
ATOM     32  NE2 HIS A   1      -3.876  -6.127  -1.496  0.00  0.00    -0.352 N 
ATOM     33  CE1 HIS A   1      -4.129  -5.088  -0.746  0.00  0.00    +0.171 A 
ATOM     34  ND1 HIS A   1      -3.392  -5.179   0.382  0.00  0.00    -0.350 N 
ATOM     35  HE2 HIS A   1      -4.277  -6.306  -2.360  0.00  0.00    +0.166 HD
ENDBRANCH  28  29
ENDBRANCH  24  28
ENDBRANCH  10  24
TORSDOF 7
