REMARK  Name = ZINC25572078
REMARK  5 active torsions:
REMARK  status: ('A' for Active; 'I' for Inactive)
REMARK    1  A    between atoms: C_4  and  C_7
REMARK    2  A    between atoms: C_11  and  C_14
REMARK    3  A    between atoms: C_12  and  O_13
REMARK    4  A    between atoms: N_18  and  C_19
REMARK    5  A    between atoms: N_24  and  C_27
REMARK                            x       y       z     vdW  Elec       q    Type
REMARK                         _______ _______ _______ _____ _____    ______ ____
ROOT
ATOM      1  C   UNL     1       5.804  -5.026  -0.272  0.00  0.00    +0.102 C 
ATOM      2  N   UNL     1       5.559  -6.298  -0.390  0.00  0.00    -0.371 N 
ATOM      3  C   UNL     1       6.820  -7.050  -0.461  0.00  0.00    +0.133 C 
ATOM      4  C   UNL     1       7.912  -5.967  -0.361  0.00  0.00    +0.128 C 
ATOM      5  N   UNL     1       7.144  -4.716  -0.250  0.00  0.00    -0.303 N 
ATOM      6  H   UNL     1       4.674  -6.693  -0.427  0.00  0.00    +0.161 HD
ENDROOT
BRANCH   5   7
ATOM      7  C   UNL     1       7.711  -3.370  -0.132  0.00  0.00    +0.170 C 
ATOM      8  C   UNL     1       8.708  -3.302   1.042  0.00  0.00    +0.128 C 
ATOM      9  C   UNL     1      10.018  -2.943   0.375  0.00  0.00    +0.228 C 
ATOM     10  O   UNL     1      11.077  -2.788   0.944  0.00  0.00    -0.275 OA
ATOM     11  N   UNL     1       9.822  -2.824  -0.944  0.00  0.00    -0.209 N 
ATOM     12  C   UNL     1       8.558  -3.041  -1.341  0.00  0.00    +0.247 C 
ATOM     13  O   UNL     1       8.159  -2.984  -2.484  0.00  0.00    -0.273 OA
BRANCH  11  14
ATOM     14  C   UNL     1      10.851  -2.497  -1.837  0.00  0.00    +0.047 A 
ATOM     15  C   UNL     1      10.820  -1.289  -2.523  0.00  0.00    +0.024 A 
ATOM     16  C   UNL     1      11.835  -0.969  -3.403  0.00  0.00    +0.005 A 
ATOM     17  C   UNL     1      12.883  -1.848  -3.603  0.00  0.00    +0.038 A 
ATOM     18  C   UNL     1      12.918  -3.053  -2.921  0.00  0.00    +0.125 A 
ATOM     19  C   UNL     1      11.906  -3.376  -2.034  0.00  0.00    +0.062 A 
ATOM     20  F   UNL     1      13.943  -3.911  -3.119  0.00  0.00    -0.205 F 
ENDBRANCH  11  14
ENDBRANCH   5   7
BRANCH   1  25
ATOM     21  C   UNL     1       1.859  -2.322  -1.437  0.00  0.00    +0.015 C 
ATOM     22  C   UNL     1       2.917  -2.764  -0.726  0.00  0.00    -0.005 C 
ATOM     23  C   UNL     1       3.380  -2.229   0.610  0.00  0.00    +0.044 C 
ATOM     24  C   UNL     1       4.611  -3.081   0.963  0.00  0.00    +0.047 C 
ATOM     25  C   UNL     1       4.782  -4.048  -0.182  0.00  0.00    +0.032 C 
ATOM     26  C   UNL     1       3.816  -3.849  -1.107  0.00  0.00    +0.126 C 
BRANCH  21  30
ATOM     27  C   UNL     1      -0.212   1.169  -0.207  0.00  0.00    +0.000 A 
ATOM     28  C   UNL     1       1.165   1.104  -0.077  0.00  0.00    +0.001 A 
ATOM     29  C   UNL     1       1.845  -0.028  -0.475  0.00  0.00    +0.008 A 
ATOM     30  C   UNL     1       1.140  -1.111  -1.010  0.00  0.00    -0.025 A 
ATOM     31  C   UNL     1      -0.250  -1.037  -1.137  0.00  0.00    +0.008 A 
ATOM     32  C   UNL     1      -0.916   0.102  -0.735  0.00  0.00    +0.001 A 
ENDBRANCH  21  30
BRANCH  26  33
ATOM     33  O   UNL     1       3.699  -4.567  -2.250  0.00  0.00    -0.506 OA
ATOM     34  H   UNL     1       2.913  -4.351  -2.771  0.00  0.00    +0.292 HD
ENDBRANCH  26  33
ENDBRANCH   1  25
TORSDOF 5
