REMARK  Name = ZINC35166958
REMARK  8 active torsions:
REMARK  status: ('A' for Active; 'I' for Inactive)
REMARK    1  A    between atoms: C_1  and  C_2
REMARK    2  A    between atoms: C_3  and  C_19
REMARK    3  A    between atoms: C_4  and  C_10
REMARK    4  A    between atoms: C_13  and  N_16
REMARK    5  A    between atoms: N_16  and  C_17
REMARK    6  A    between atoms: N_16  and  C_18
REMARK    7  A    between atoms: N_21  and  N_22
REMARK    8  A    between atoms: C_23  and  C_24
REMARK                            x       y       z     vdW  Elec       q    Type
REMARK                         _______ _______ _______ _____ _____    ______ ____
ROOT
ATOM      1  C   UNL     1       0.255   1.463  -0.081  0.00  0.00    +0.061 C 
ATOM      2  C   UNL     1       0.161  -0.041  -0.051  0.00  0.00    +0.017 C 
ATOM      3  C   UNL     1      -1.053  -0.631  -0.066  0.00  0.00    +0.057 C 
ATOM      4  C   UNL     1      -1.101  -2.145  -0.035  0.00  0.00    +0.139 C 
ATOM      5  N   UNL     1       0.189  -2.853   0.008  0.00  0.00    -0.315 N 
ATOM      6  C   UNL     1       1.322  -2.123   0.018  0.00  0.00    +0.135 C 
ATOM      7  S   UNL     1       2.829  -2.933   0.068  0.00  0.00    -0.019 S 
ATOM      8  N   UNL     1       1.306  -0.784  -0.016  0.00  0.00    -0.300 N 
ATOM      9  H   UNL     1       0.223  -3.822   0.029  0.00  0.00    +0.149 HD
ATOM     10  H   UNL     1       2.156  -0.317  -0.011  0.00  0.00    +0.154 HD
ENDROOT
BRANCH   4  11
ATOM     11  C   UNL     1      -1.845  -2.611  -1.261  0.00  0.00    -0.023 A 
ATOM     12  C   UNL     1      -1.198  -2.664  -2.482  0.00  0.00    +0.007 A 
ATOM     13  C   UNL     1      -1.877  -3.091  -3.606  0.00  0.00    +0.023 A 
ATOM     14  C   UNL     1      -3.211  -3.466  -3.510  0.00  0.00    +0.029 A 
ATOM     15  C   UNL     1      -3.857  -3.411  -2.282  0.00  0.00    +0.023 A 
ATOM     16  C   UNL     1      -3.171  -2.989  -1.160  0.00  0.00    +0.007 A 
BRANCH  14  17
ATOM     17  N   UNL     1      -3.900  -3.897  -4.646  0.00  0.00    -0.336 N 
ATOM     18  C   UNL     1      -3.186  -4.074  -5.913  0.00  0.00    +0.129 C 
ATOM     19  C   UNL     1      -5.337  -4.172  -4.570  0.00  0.00    +0.129 C 
ENDBRANCH  14  17
ENDBRANCH   4  11
BRANCH   3  20
ATOM     20  C   UNL     1      -2.240   0.139  -0.108  0.00  0.00    +0.263 C 
ATOM     21  O   UNL     1      -2.912   0.278   0.898  0.00  0.00    -0.269 OA
ATOM     22  N   UNL     1      -2.627   0.719  -1.262  0.00  0.00    -0.203 N 
ATOM     23  H   UNL     1      -2.135   0.547  -2.080  0.00  0.00    +0.178 HD
BRANCH  22  24
ATOM     24  N   UNL     1      -3.741   1.569  -1.280  0.00  0.00    -0.187 NA
ATOM     25  C   UNL     1      -4.114   2.127  -2.391  0.00  0.00    +0.138 C 
BRANCH  25  26
ATOM     26  C   UNL     1      -5.285   3.022  -2.410  0.00  0.00    -0.005 A 
ATOM     27  C   UNL     1      -5.993   3.275  -1.232  0.00  0.00    +0.011 A 
ATOM     28  C   UNL     1      -7.088   4.114  -1.257  0.00  0.00    +0.020 A 
ATOM     29  C   UNL     1      -7.487   4.703  -2.445  0.00  0.00    +0.041 A 
ATOM     30  C   UNL     1      -6.789   4.455  -3.616  0.00  0.00    +0.020 A 
ATOM     31  C   UNL     1      -5.689   3.624  -3.604  0.00  0.00    +0.011 A 
ATOM     32 CL   UNL     1      -8.867   5.756  -2.467  0.00  0.00    -0.084 Cl
ENDBRANCH  25  26
ENDBRANCH  22  24
ENDBRANCH   3  20
TORSDOF 5
