REMARK  Name = ZINC28847800
REMARK  8 active torsions:
REMARK  status: ('A' for Active; 'I' for Inactive)
REMARK    1  A    between atoms: C_1  and  C_2
REMARK    2  A    between atoms: C_2  and  N_3
REMARK    3  A    between atoms: C_7  and  C_9
REMARK    4  A    between atoms: C_9  and  C_11
REMARK    5  A    between atoms: C_9  and  S_12
REMARK    6  A    between atoms: S_12  and  C_13
REMARK    7  A    between atoms: C_16  and  C_19
REMARK    8  A    between atoms: N_17  and  N_18
REMARK                            x       y       z     vdW  Elec       q    Type
REMARK                         _______ _______ _______ _____ _____    ______ ____
ROOT
ATOM      1  S   UNL     1       3.799   0.891  -0.029  0.00  0.00    -0.072 S 
ENDROOT
BRANCH   1   2
ATOM      2  C   UNL     1       2.042   0.761  -0.013  0.00  0.00    +0.209 A 
ATOM      3  N   UNL     1       1.185   1.756   0.000  0.00  0.00    -0.121 NA
ATOM      4  N   UNL     1      -0.016   1.299   0.009  0.00  0.00    -0.123 NA
ATOM      5  C   UNL     1       0.002  -0.004   0.002  0.00  0.00    +0.255 A 
ATOM      6  N   UNL     1       1.313  -0.393  -0.013  0.00  0.00    -0.220 N 
BRANCH   5   7
ATOM      7  C   UNL     1      -1.200  -0.913   0.008  0.00  0.00    +0.454 C 
ATOM      8  F   UNL     1      -2.343  -0.177  -0.319  0.00  0.00    -0.163 F 
ATOM      9  F   UNL     1      -1.017  -1.933  -0.932  0.00  0.00    -0.163 F 
ATOM     10  F   UNL     1      -1.354  -1.474   1.280  0.00  0.00    -0.163 F 
ENDBRANCH   5   7
BRANCH   6  11
ATOM     11  N   UNL     1       1.794  -1.672  -0.024  0.00  0.00    -0.295 N 
ATOM     12  H   UNL     1       1.095  -2.522  -0.022  0.00  0.00    +0.163 HD
ATOM     13  H   UNL     1       2.879  -1.852  -0.035  0.00  0.00    +0.163 HD
ENDBRANCH   6  11
ENDBRANCH   1   2
BRANCH   1  14
ATOM     14  C   UNL     1       3.981   2.692  -0.021  0.00  0.00    +0.137 C 
ATOM     15  C   UNL     1       3.413   3.268  -1.321  0.00  0.00    +0.029 C 
BRANCH  14  20
ATOM     16  N   UNL     1       7.476   5.746   1.229  0.00  0.00    -0.299 N 
ATOM     17  C   UNL     1       7.111   4.557   0.710  0.00  0.00    +0.306 C 
ATOM     18  O   UNL     1       7.959   3.773   0.333  0.00  0.00    -0.252 OA
ATOM     19  N   UNL     1       5.806   4.238   0.610  0.00  0.00    -0.239 N 
ATOM     20  C   UNL     1       5.441   3.049   0.091  0.00  0.00    +0.234 C 
ATOM     21  O   UNL     1       6.287   2.267  -0.285  0.00  0.00    -0.274 OA
ATOM     22  H   UNL     1       6.709   6.456   1.571  0.00  0.00    +0.150 HD
ATOM     23  H   UNL     1       5.038   4.948   0.951  0.00  0.00    +0.159 HD
BRANCH  16  25
ATOM     24  C   UNL     1       9.034   7.487   1.955  0.00  0.00    +0.024 C 
ATOM     25  C   UNL     1       8.896   6.093   1.338  0.00  0.00    +0.102 C 
ENDBRANCH  16  25
ENDBRANCH  14  20
ENDBRANCH   1  14
TORSDOF 6
