REMARK  Name = ZINC60243480
REMARK  3 active torsions:
REMARK  status: ('A' for Active; 'I' for Inactive)
REMARK    1  A    between atoms: C_6  and  C_7
REMARK    2  A    between atoms: C_7  and  N_8
REMARK    3  A    between atoms: C_14  and  C_16
REMARK                            x       y       z     vdW  Elec       q    Type
REMARK                         _______ _______ _______ _____ _____    ______ ____
ROOT
ATOM      1  N   UNL     1      -1.726  -1.017  -1.368  0.00  0.00    -0.246 N 
ATOM      2  C   UNL     1      -2.015  -2.207  -1.923  0.00  0.00    +0.221 A 
ATOM      3  N   UNL     1      -2.362  -2.003  -3.168  0.00  0.00    -0.202 NA
ATOM      4  C   UNL     1      -2.305  -0.697  -3.446  0.00  0.00    +0.241 A 
ATOM      5  N   UNL     1      -1.925  -0.052  -2.369  0.00  0.00    -0.133 NA
ATOM      6  N   UNL     1      -2.607  -0.114  -4.680  0.00  0.00    -0.247 N 
ATOM      7  C   UNL     1      -2.995  -0.886  -5.714  0.00  0.00    +0.286 C 
ATOM      8  O   UNL     1      -3.081  -2.092  -5.573  0.00  0.00    -0.266 OA
ATOM      9  H   UNL     1      -2.538   0.847  -4.792  0.00  0.00    +0.158 HD
ENDROOT
BRANCH   7  10
ATOM     10  C   UNL     1      -3.312  -0.273  -7.011  0.00  0.00    +0.191 A 
ATOM     11  C   UNL     1      -3.716  -0.949  -8.117  0.00  0.00    +0.063 A 
ATOM     12  C   UNL     1      -3.914   0.059  -9.158  0.00  0.00    +0.022 A 
ATOM     13  C   UNL     1      -4.317   0.011 -10.495  0.00  0.00    +0.031 A 
ATOM     14  C   UNL     1      -4.404   1.169 -11.217  0.00  0.00    +0.042 A 
ATOM     15  C   UNL     1      -4.094   2.389 -10.631  0.00  0.00    +0.023 A 
ATOM     16  C   UNL     1      -3.695   2.456  -9.314  0.00  0.00    +0.048 A 
ATOM     17  C   UNL     1      -3.599   1.292  -8.559  0.00  0.00    +0.136 A 
ATOM     18  O   UNL     1      -3.252   1.048  -7.280  0.00  0.00    -0.450 OA
ATOM     19 CL   UNL     1      -4.905   1.113 -12.879  0.00  0.00    -0.084 Cl
ENDBRANCH   7  10
BRANCH   1  20
ATOM     20  C   UNL     1      -1.293  -0.775   0.010  0.00  0.00    +0.180 C 
BRANCH  20  26
ATOM     21  C   UNL     1      -0.017   1.378   0.010  0.00  0.00    +0.006 A 
ATOM     22  C   UNL     1       1.171   2.086   0.002  0.00  0.00    +0.015 A 
ATOM     23  C   UNL     1       2.378   1.411  -0.013  0.00  0.00    +0.018 A 
ATOM     24  C   UNL     1       2.396   0.027  -0.021  0.00  0.00    +0.015 A 
ATOM     25  C   UNL     1       1.208  -0.679  -0.013  0.00  0.00    +0.006 A 
ATOM     26  C   UNL     1       0.002  -0.004   0.002  0.00  0.00    -0.026 A 
ATOM     27 BR   UNL     1       4.003   2.378  -0.024  0.00  0.00    -0.050 Br
ENDBRANCH  20  26
ENDBRANCH   1  20
TORSDOF 3
