REMARK  Name = ZINC04679016
REMARK  3 active torsions:
REMARK  status: ('A' for Active; 'I' for Inactive)
REMARK    1  A    between atoms: C_3  and  N_9
REMARK    2  A    between atoms: C_6  and  N_7
REMARK    3  A    between atoms: N_12  and  C_15
REMARK                            x       y       z     vdW  Elec       q    Type
REMARK                         _______ _______ _______ _____ _____    ______ ____
ROOT
ATOM      1  N   UNL     1       3.584   2.132  -0.021  0.00  0.00    -0.326 N 
ATOM      2  C   UNL     1       4.212   2.527  -1.290  0.00  0.00    +0.124 C 
ATOM      3  C   UNL     1       4.427   4.045  -1.279  0.00  0.00    +0.124 C 
ATOM      4  N   UNL     1       5.084   4.417  -0.019  0.00  0.00    -0.322 N 
ATOM      5  C   UNL     1       4.457   4.022   1.250  0.00  0.00    +0.124 C 
ATOM      6  C   UNL     1       4.239   2.509   1.240  0.00  0.00    +0.124 C 
ENDROOT
BRANCH   4   7
ATOM      7  C   UNL     1       6.288   5.135  -0.027  0.00  0.00    +0.107 A 
ATOM      8  C   UNL     1       7.501   4.458  -0.053  0.00  0.00    +0.185 A 
ATOM      9  C   UNL     1       8.690   5.169  -0.061  0.00  0.00    +0.198 A 
ATOM     10  C   UNL     1       8.669   6.555  -0.043  0.00  0.00    +0.199 A 
ATOM     11  C   UNL     1       7.460   7.232  -0.016  0.00  0.00    +0.198 A 
ATOM     12  C   UNL     1       6.270   6.524  -0.014  0.00  0.00    +0.185 A 
ATOM     13  F   UNL     1       5.091   7.184   0.006  0.00  0.00    -0.200 F 
ATOM     14  F   UNL     1       7.443   8.582   0.002  0.00  0.00    -0.199 F 
ATOM     15  F   UNL     1       9.830   7.247  -0.050  0.00  0.00    -0.199 F 
ATOM     16  F   UNL     1       9.870   4.512  -0.086  0.00  0.00    -0.199 F 
ATOM     17  F   UNL     1       7.522   3.107  -0.071  0.00  0.00    -0.200 F 
ENDBRANCH   4   7
BRANCH   1  20
ATOM     18  C   UNL     1      -0.017   1.384   0.010  0.00  0.00    +0.024 A 
ATOM     19  C   UNL     1       1.170   2.091   0.002  0.00  0.00    +0.026 A 
ATOM     20  C   UNL     1       2.381   1.415  -0.013  0.00  0.00    +0.048 A 
ATOM     21  C   UNL     1       2.401   0.025  -0.021  0.00  0.00    +0.064 A 
ATOM     22  C   UNL     1       1.214  -0.682  -0.013  0.00  0.00    +0.044 A 
ATOM     23  C   UNL     1       0.002  -0.004   0.002  0.00  0.00    +0.026 A 
ATOM     24 CL   UNL     1       3.916  -0.822  -0.040  0.00  0.00    -0.082 Cl
BRANCH  23  25
ATOM     25  N   UNL     1      -1.201  -0.720   0.010  0.00  0.00    -0.358 N 
ATOM     26  H   UNL     1      -2.047  -0.247   0.020  0.00  0.00    +0.142 HD
ATOM     27  H   UNL     1      -1.188  -1.690   0.004  0.00  0.00    +0.142 HD
ENDBRANCH  23  25
ENDBRANCH   1  20
TORSDOF 3
