REMARK  Name = ZINC18195905
REMARK  3 active torsions:
REMARK  status: ('A' for Active; 'I' for Inactive)
REMARK    1  A    between atoms: C_5  and  O_24
REMARK    2  A    between atoms: C_6  and  C_7
REMARK    3  A    between atoms: C_14  and  O_15
REMARK                            x       y       z     vdW  Elec       q    Type
REMARK                         _______ _______ _______ _____ _____    ______ ____
ROOT
ATOM      1  C   UNL     1      -1.662   4.201   0.032  0.00  0.00    +0.096 C 
ATOM      2  C   UNL     1      -0.696   3.051   0.022  0.00  0.00    +0.067 A 
ATOM      3  C   UNL     1      -1.109   1.745   0.016  0.00  0.00    +0.126 A 
ATOM      4  N   UNL     1      -0.011   0.966   0.007  0.00  0.00    -0.260 N 
ATOM      5  H   UNL     1       0.003  -0.034   0.006  0.00  0.00    +0.190 HD
ATOM      6  N   UNL     1       1.112   1.809   0.001  0.00  0.00    -0.134 NA
ATOM      7  C   UNL     1       0.696   3.057   0.010  0.00  0.00    +0.237 A 
ATOM      8  N   UNL     1      -2.459   1.413   0.026  0.00  0.00    -0.303 N 
ATOM      9  C   UNL     1      -3.371   2.388   0.342  0.00  0.00    +0.017 C 
ATOM     10  C   UNL     1      -3.048   3.699   0.369  0.00  0.00    +0.024 C 
ATOM     11  C   UNL     1      -4.002   4.670   0.722  0.00  0.00    +0.162 C 
ATOM     12  O   UNL     1      -3.681   5.842   0.730  0.00  0.00    -0.292 OA
ATOM     13  C   UNL     1      -5.409   4.293   1.091  0.00  0.00    +0.080 C 
ATOM     14  C   UNL     1      -5.406   2.879   1.682  0.00  0.00    +0.014 C 
ATOM     15  C   UNL     1      -4.777   1.932   0.660  0.00  0.00    +0.051 C 
ATOM     16  H   UNL     1      -2.749   0.512  -0.185  0.00  0.00    +0.153 HD
ENDROOT
BRANCH   1  22
ATOM     17  C   UNL     1      -2.063   4.098  -2.436  0.00  0.00    +0.028 A 
ATOM     18  C   UNL     1      -2.098   4.686  -3.688  0.00  0.00    +0.043 A 
ATOM     19  C   UNL     1      -1.752   6.017  -3.839  0.00  0.00    +0.043 A 
ATOM     20  C   UNL     1      -1.376   6.763  -2.737  0.00  0.00    +0.084 A 
ATOM     21  C   UNL     1      -1.346   6.176  -1.480  0.00  0.00    +0.139 A 
ATOM     22  C   UNL     1      -1.694   4.841  -1.332  0.00  0.00    +0.009 A 
ATOM     23 CL   UNL     1      -0.942   8.434  -2.926  0.00  0.00    -0.080 Cl
ATOM     24 CL   UNL     1      -2.570   3.751  -5.073  0.00  0.00    -0.083 Cl
BRANCH  21  25
ATOM     25  O   UNL     1      -0.976   6.907  -0.395  0.00  0.00    -0.505 OA
ATOM     26  H   UNL     1      -0.027   6.885  -0.211  0.00  0.00    +0.292 HD
ENDBRANCH  21  25
ENDBRANCH   1  22
BRANCH   7  27
ATOM     27  O   UNL     1       1.489   4.162   0.006  0.00  0.00    -0.491 OA
ATOM     28  H   UNL     1       2.449   3.883  -0.003  0.00  0.00    +0.294 HD
ENDBRANCH   7  27
TORSDOF 3
