REMARK  Name = ZINC11755783
REMARK  6 active torsions:
REMARK  status: ('A' for Active; 'I' for Inactive)
REMARK    1  A    between atoms: C_1  and  C_2
REMARK    2  A    between atoms: C_4  and  S_9
REMARK    3  A    between atoms: C_7  and  N_8
REMARK    4  A    between atoms: S_9  and  N_12
REMARK    5  A    between atoms: N_12  and  C_13
REMARK    6  A    between atoms: N_12  and  C_14
REMARK                            x       y       z     vdW  Elec       q    Type
REMARK                         _______ _______ _______ _____ _____    ______ ____
ROOT
ATOM      1  S   UNL     1      -2.732   0.846   0.019  0.00  0.00    +0.061 S 
ATOM      2  O   UNL     1      -3.723   1.709  -0.522  0.00  0.00    -0.153 OA
ATOM      3  O   UNL     1      -2.444  -0.428  -0.540  0.00  0.00    -0.153 OA
ENDROOT
BRANCH   1   7
ATOM      4  C   UNL     1      -0.086   5.352   0.031  0.00  0.00    +0.046 C 
ATOM      5  C   UNL     1      -0.060   3.845   0.023  0.00  0.00    -0.028 A 
ATOM      6  C   UNL     1      -1.243   3.133   0.031  0.00  0.00    +0.033 A 
ATOM      7  C   UNL     1      -1.220   1.750   0.017  0.00  0.00    +0.106 A 
ATOM      8  C   UNL     1      -0.013   1.076   0.008  0.00  0.00    +0.030 A 
ATOM      9  C   UNL     1       1.174   1.782   0.000  0.00  0.00    +0.025 A 
ATOM     10  C   UNL     1       1.154   3.171   0.008  0.00  0.00    +0.028 A 
BRANCH  10  11
ATOM     11  N   UNL     1       2.353   3.888   0.000  0.00  0.00    -0.358 N 
ATOM     12  H   UNL     1       3.200   3.416  -0.011  0.00  0.00    +0.142 HD
ATOM     13  H   UNL     1       2.338   4.858   0.005  0.00  0.00    +0.142 HD
ENDBRANCH  10  11
ENDBRANCH   1   7
BRANCH   1  14
ATOM     14  N   UNL     1      -3.145   0.585   1.601  0.00  0.00    -0.175 NA
ATOM     15  C   UNL     1      -3.979   1.559   2.311  0.00  0.00    +0.132 C 
BRANCH  14  16
ATOM     16  C   UNL     1      -2.676  -0.619   2.292  0.00  0.00    +0.102 C 
ATOM     17  C   UNL     1      -1.822  -0.221   3.507  0.00  0.00    +0.045 C 
ATOM     18  C   UNL     1      -1.593  -1.452   4.417  0.00  0.00    +0.167 C 
ATOM     19  S   UNL     1      -3.085  -2.478   4.093  0.00  0.00    -0.029 S 
ATOM     20  O   UNL     1      -2.682  -3.708   3.508  0.00  0.00    -0.174 OA
ATOM     21  O   UNL     1      -3.900  -2.490   5.257  0.00  0.00    -0.174 OA
ATOM     22  C   UNL     1      -3.895  -1.438   2.805  0.00  0.00    +0.186 C 
ENDBRANCH  14  16
ENDBRANCH   1  14
TORSDOF 4
