REMARK  Name = ZINC43096525
REMARK  8 active torsions:
REMARK  status: ('A' for Active; 'I' for Inactive)
REMARK    1  A    between atoms: C_1  and  C_2
REMARK    2  A    between atoms: C_2  and  C_3
REMARK    3  A    between atoms: C_3  and  C_5
REMARK    4  A    between atoms: C_3  and  N_22
REMARK    5  A    between atoms: C_5  and  C_7
REMARK    6  A    between atoms: C_5  and  S_14
REMARK    7  A    between atoms: S_14  and  C_15
REMARK    8  A    between atoms: C_18  and  C_21
REMARK                            x       y       z     vdW  Elec       q    Type
REMARK                         _______ _______ _______ _____ _____    ______ ____
ROOT
ATOM      1  C   UNL     1       0.748  -2.020  -1.280  0.00  0.00    +0.071 C 
ENDROOT
BRANCH   1   2
ATOM      2  C   UNL     1       1.602  -2.313  -2.486  0.00  0.00    -0.022 A 
ATOM      3  C   UNL     1       1.020  -2.423  -3.736  0.00  0.00    +0.006 A 
ATOM      4  C   UNL     1       1.804  -2.691  -4.842  0.00  0.00    +0.000 A 
ATOM      5  C   UNL     1       3.170  -2.850  -4.700  0.00  0.00    +0.001 A 
ATOM      6  C   UNL     1       3.753  -2.740  -3.452  0.00  0.00    +0.015 A 
ATOM      7  C   UNL     1       2.970  -2.467  -2.345  0.00  0.00    +0.022 A 
ATOM      8 BR   UNL     1       3.767  -2.310  -0.637  0.00  0.00    -0.050 Br
ENDBRANCH   1   2
BRANCH   1   9
ATOM      9  C   UNL     1       0.666  -0.507  -1.069  0.00  0.00    -0.057 C 
BRANCH   9  10
ATOM     10  N   UNL     1       2.015   0.030  -0.847  0.00  0.00    +0.381 N 
ATOM     11  H   UNL     1       2.419  -0.402  -0.030  0.00  0.00    -0.090 HD
ATOM     12  H   UNL     1       2.591  -0.166  -1.651  0.00  0.00    -0.090 HD
ATOM     13  H   UNL     1       1.960   1.028  -0.708  0.00  0.00    -0.090 HD
ENDBRANCH   9  10
BRANCH   9  15
ATOM     14  C   UNL     1      -0.362   1.304   0.311  0.00  0.00    +0.002 C 
ATOM     15  C   UNL     1      -0.209  -0.209   0.151  0.00  0.00    -0.018 C 
ENDBRANCH   9  15
ENDBRANCH   1   9
BRANCH   1  16
ATOM     16  S   UNL     1      -0.919  -2.686  -1.544  0.00  0.00    -0.080 S 
BRANCH  16  17
ATOM     17  C   UNL     1      -0.676  -4.429  -1.608  0.00  0.00    +0.185 A 
ATOM     18  N   UNL     1       0.457  -5.063  -1.392  0.00  0.00    -0.206 NA
ATOM     19  H   UNL     1      -2.557  -5.189  -2.081  0.00  0.00    +0.191 HD
ATOM     20  C   UNL     1       0.270  -6.377  -1.526  0.00  0.00    +0.149 A 
ATOM     21  N   UNL     1      -0.981  -6.603  -1.828  0.00  0.00    -0.157 NA
ATOM     22  N   UNL     1      -1.622  -5.354  -1.883  0.00  0.00    -0.254 N 
ATOM     23  C   UNL     1       1.332  -7.432  -1.356  0.00  0.00    +0.090 C 
ENDBRANCH  16  17
ENDBRANCH   1  16
TORSDOF 6
