REMARK  Name = ZINC21424940
REMARK  8 active torsions:
REMARK  status: ('A' for Active; 'I' for Inactive)
REMARK    1  A    between atoms: C_4  and  C_7
REMARK    2  A    between atoms: C_12  and  N_13
REMARK    3  A    between atoms: C_14  and  C_16
REMARK    4  A    between atoms: C_16  and  S_17
REMARK    5  A    between atoms: S_17  and  C_18
REMARK    6  A    between atoms: C_19  and  C_27
REMARK    7  A    between atoms: C_21  and  C_25
REMARK    8  A    between atoms: C_22  and  N_24
REMARK                            x       y       z     vdW  Elec       q    Type
REMARK                         _______ _______ _______ _____ _____    ______ ____
ROOT
ATOM      1  N   UNL     1       2.968  -2.064   1.819  0.00  0.00    -0.284 N 
ATOM      2  C   UNL     1       3.166  -3.118   2.636  0.00  0.00    +0.227 C 
ATOM      3  O   UNL     1       4.226  -3.707   2.621  0.00  0.00    -0.275 OA
ATOM      4  H   UNL     1       2.146  -1.553   1.877  0.00  0.00    +0.155 HD
ENDROOT
BRANCH   1  10
ATOM      5  C   UNL     1       3.577  -1.201  -0.362  0.00  0.00    +0.003 A 
ATOM      6  C   UNL     1       4.562  -0.844  -1.280  0.00  0.00    +0.010 A 
ATOM      7  C   UNL     1       5.894  -0.997  -0.956  0.00  0.00    +0.001 A 
ATOM      8  C   UNL     1       6.258  -1.505   0.279  0.00  0.00    +0.002 A 
ATOM      9  C   UNL     1       5.291  -1.863   1.198  0.00  0.00    +0.024 A 
ATOM     10  C   UNL     1       3.948  -1.708   0.889  0.00  0.00    +0.041 A 
BRANCH   5  14
ATOM     11  C   UNL     1      -0.532  -0.735  -1.346  0.00  0.00    +0.000 A 
ATOM     12  C   UNL     1       0.345   0.317  -1.538  0.00  0.00    +0.001 A 
ATOM     13  C   UNL     1       1.681   0.171  -1.220  0.00  0.00    +0.008 A 
ATOM     14  C   UNL     1       2.144  -1.038  -0.705  0.00  0.00    -0.016 A 
ATOM     15  C   UNL     1       1.255  -2.095  -0.514  0.00  0.00    +0.008 A 
ATOM     16  C   UNL     1      -0.078  -1.938  -0.836  0.00  0.00    +0.001 A 
ENDBRANCH   5  14
ENDBRANCH   1  10
BRANCH   2  17
ATOM     17  C   UNL     1       2.070  -3.565   3.569  0.00  0.00    +0.172 C 
BRANCH  17  18
ATOM     18  S   UNL     1       2.638  -4.995   4.529  0.00  0.00    -0.095 S 
BRANCH  18  19
ATOM     19  C   UNL     1       1.263  -5.392   5.557  0.00  0.00    +0.117 A 
ATOM     20  C   UNL     1       1.356  -6.473   6.457  0.00  0.00    +0.085 A 
ATOM     21  C   UNL     1       0.260  -6.778   7.267  0.00  0.00    +0.043 A 
ATOM     22  C   UNL     1      -0.890  -5.994   7.149  0.00  0.00    +0.092 A 
ATOM     23  C   UNL     1      -0.904  -4.931   6.225  0.00  0.00    +0.135 A 
ATOM     24  N   UNL     1       0.157  -4.668   5.478  0.00  0.00    -0.224 NA
BRANCH  23  25
ATOM     25  N   UNL     1      -2.035  -4.150   6.100  0.00  0.00    -0.342 N 
ATOM     26  H   UNL     1      -2.815  -4.335   6.647  0.00  0.00    +0.144 HD
ATOM     27  H   UNL     1      -2.051  -3.417   5.465  0.00  0.00    +0.144 HD
ENDBRANCH  23  25
BRANCH  22  28
ATOM     28  C   UNL     1      -2.041  -6.267   7.957  0.00  0.00    +0.103 C 
ATOM     29  N   UNL     1      -2.953  -6.484   8.598  0.00  0.00    -0.191 NA
ENDBRANCH  22  28
BRANCH  20  30
ATOM     30  C   UNL     1       2.558  -7.247   6.540  0.00  0.00    +0.102 C 
ATOM     31  N   UNL     1       3.511  -7.861   6.606  0.00  0.00    -0.191 NA
ENDBRANCH  20  30
ENDBRANCH  18  19
ENDBRANCH  17  18
ENDBRANCH   2  17
TORSDOF 8
