REMARK  Name = ZINC57004920
REMARK  5 active torsions:
REMARK  status: ('A' for Active; 'I' for Inactive)
REMARK    1  A    between atoms: C_4  and  N_7
REMARK    2  A    between atoms: C_11  and  C_12
REMARK    3  A    between atoms: C_12  and  N_13
REMARK    4  A    between atoms: N_16  and  C_17
REMARK    5  A    between atoms: C_26  and  O_28
REMARK                            x       y       z     vdW  Elec       q    Type
REMARK                         _______ _______ _______ _____ _____    ______ ____
ROOT
ATOM      1  N   UNL     1       2.406  -3.392   1.372  0.00  0.00    -0.292 N 
ATOM      2  C   UNL     1       1.597  -4.091   2.192  0.00  0.00    +0.301 C 
ATOM      3  O   UNL     1       1.521  -3.795   3.368  0.00  0.00    -0.253 OA
ATOM      4  N   UNL     1       0.871  -5.118   1.707  0.00  0.00    -0.290 N 
ATOM      5  H   UNL     1       2.467  -3.629   0.433  0.00  0.00    +0.151 HD
ATOM      6  H   UNL     1       0.931  -5.354   0.768  0.00  0.00    +0.151 HD
ENDROOT
BRANCH   4   7
ATOM      7  C   UNL     1      -0.010  -5.878   2.598  0.00  0.00    +0.134 C 
ATOM      8  C   UNL     1       0.754  -7.008   3.253  0.00  0.00    -0.021 A 
ATOM      9  C   UNL     1       1.639  -6.995   4.318  0.00  0.00    +0.006 A 
ATOM     10  C   UNL     1       2.226  -8.169   4.748  0.00  0.00    +0.000 A 
ATOM     11  C   UNL     1       1.930  -9.361   4.114  0.00  0.00    +0.000 A 
ATOM     12  C   UNL     1       1.048  -9.377   3.052  0.00  0.00    +0.004 A 
ATOM     13  C   UNL     1       0.458  -8.201   2.619  0.00  0.00    -0.040 A 
ATOM     14  C   UNL     1      -0.525  -7.952   1.495  0.00  0.00    +0.069 C 
ATOM     15  C   UNL     1      -1.132  -6.561   1.788  0.00  0.00    +0.143 C 
BRANCH  15  16
ATOM     16  O   UNL     1      -1.387  -5.851   0.575  0.00  0.00    -0.389 OA
ATOM     17  H   UNL     1      -2.084  -6.240   0.030  0.00  0.00    +0.210 HD
ENDBRANCH  15  16
ENDBRANCH   4   7
BRANCH   1  18
ATOM     18  C   UNL     1       3.196  -2.276   1.898  0.00  0.00    +0.182 C 
BRANCH  18  23
ATOM     19  N   UNL     1       3.624  -0.653  -0.037  0.00  0.00    -0.284 N 
ATOM     20  C   UNL     1       4.676  -0.435  -0.876  0.00  0.00    +0.230 A 
ATOM     21  N   UNL     1       5.611  -1.285  -0.551  0.00  0.00    -0.137 NA
ATOM     22  N   UNL     1       5.216  -2.017   0.429  0.00  0.00    -0.133 NA
ATOM     23  C   UNL     1       4.010  -1.668   0.786  0.00  0.00    +0.155 A 
BRANCH  19  27
ATOM     24  C   UNL     1      -0.017   1.379   0.010  0.00  0.00    +0.000 A 
ATOM     25  C   UNL     1       1.170   2.089   0.002  0.00  0.00    +0.002 A 
ATOM     26  C   UNL     1       2.377   1.419  -0.013  0.00  0.00    +0.026 A 
ATOM     27  C   UNL     1       2.399   0.031  -0.021  0.00  0.00    +0.049 A 
ATOM     28  C   UNL     1       1.207  -0.680  -0.013  0.00  0.00    +0.026 A 
ATOM     29  C   UNL     1       0.002  -0.004   0.002  0.00  0.00    +0.002 A 
ENDBRANCH  19  27
ENDBRANCH  18  23
ENDBRANCH   1  18
TORSDOF 5
