REMARK  Name = ZINC05690907
REMARK  12 active torsions:
REMARK  status: ('A' for Active; 'I' for Inactive)
REMARK    1  A    between atoms: C_1  and  C_2
REMARK    2  A    between atoms: C_4  and  C_33
REMARK    3  A    between atoms: C_5  and  O_32
REMARK    4  A    between atoms: C_6  and  C_8
REMARK    5  A    between atoms: N_16  and  C_28
REMARK    6  A    between atoms: C_17  and  C_19
REMARK    7  A    between atoms: C_22  and  O_27
REMARK    8  A    between atoms: C_23  and  O_25
REMARK    9  A    between atoms: O_25  and  C_26
REMARK   10  A    between atoms: C_28  and  C_29
REMARK   11  A    between atoms: C_29  and  O_30
REMARK   12  A    between atoms: O_30  and  C_31
REMARK                            x       y       z     vdW  Elec       q    Type
REMARK                         _______ _______ _______ _____ _____    ______ ____
ROOT
ATOM      1  C   UNL     1      -0.604  -2.338   2.654  0.00  0.00    +0.102 A 
ATOM      2  C   UNL     1      -0.426  -1.616   3.839  0.00  0.00    +0.035 A 
ATOM      3  C   UNL     1      -0.037  -2.542   4.788  0.00  0.00    +0.126 A 
ATOM      4  N   UNL     1       0.001  -3.748   4.149  0.00  0.00    -0.272 N 
ATOM      5  H   UNL     1       0.244  -4.591   4.564  0.00  0.00    +0.189 HD
ATOM      6  N   UNL     1      -0.336  -3.602   2.917  0.00  0.00    -0.173 NA
ATOM      7  C   UNL     1       0.168  -1.845   6.063  0.00  0.00    +0.266 C 
ATOM      8  O   UNL     1       0.515  -2.379   7.099  0.00  0.00    -0.268 OA
ATOM      9  N   UNL     1      -0.083  -0.530   5.924  0.00  0.00    -0.283 N 
ATOM     10  C   UNL     1      -0.473  -0.281   4.530  0.00  0.00    +0.141 C 
ENDROOT
BRANCH   1  16
ATOM     11  C   UNL     1      -1.974   1.559  -0.149  0.00  0.00    +0.044 C 
ATOM     12  C   UNL     1      -1.683   0.087  -0.009  0.00  0.00    -0.049 A 
ATOM     13  C   UNL     1      -1.809  -0.748  -1.105  0.00  0.00    +0.010 A 
ATOM     14  C   UNL     1      -1.545  -2.099  -0.987  0.00  0.00    -0.008 A 
ATOM     15  C   UNL     1      -1.152  -2.624   0.234  0.00  0.00    +0.129 A 
ATOM     16  C   UNL     1      -1.024  -1.784   1.343  0.00  0.00    +0.044 A 
ATOM     17  C   UNL     1      -1.287  -0.422   1.211  0.00  0.00    +0.017 A 
ATOM     18  C   UNL     1      -1.684  -3.002  -2.185  0.00  0.00    +0.047 C 
BRANCH  15  19
ATOM     19  O   UNL     1      -0.892  -3.953   0.352  0.00  0.00    -0.506 OA
ATOM     20  H   UNL     1       0.029  -4.191   0.177  0.00  0.00    +0.292 HD
ENDBRANCH  15  19
ENDBRANCH   1  16
BRANCH  10  21
ATOM     21  C   UNL     1       0.498   0.672   3.883  0.00  0.00    -0.019 A 
ATOM     22  C   UNL     1       1.820   0.303   3.716  0.00  0.00    +0.009 A 
ATOM     23  C   UNL     1       2.715   1.174   3.123  0.00  0.00    +0.049 A 
ATOM     24  C   UNL     1       2.288   2.420   2.694  0.00  0.00    +0.158 A 
ATOM     25  C   UNL     1       0.957   2.792   2.861  0.00  0.00    +0.162 A 
ATOM     26  C   UNL     1       0.064   1.912   3.452  0.00  0.00    +0.055 A 
BRANCH  25  27
ATOM     27  O   UNL     1       0.533   4.014   2.442  0.00  0.00    -0.491 OA
ATOM     28  C   UNL     1      -0.854   4.312   2.609  0.00  0.00    +0.277 C 
ENDBRANCH  25  27
BRANCH  24  29
ATOM     29  O   UNL     1       3.167   3.278   2.111  0.00  0.00    -0.503 OA
ATOM     30  H   UNL     1       3.227   3.187   1.150  0.00  0.00    +0.292 HD
ENDBRANCH  24  29
ENDBRANCH  10  21
BRANCH   9  31
ATOM     31  C   UNL     1       0.016   0.479   6.981  0.00  0.00    +0.137 C 
BRANCH  31  32
ATOM     32  C   UNL     1       1.471   0.929   7.122  0.00  0.00    +0.178 C 
BRANCH  32  33
ATOM     33  O   UNL     1       1.862   1.652   5.953  0.00  0.00    -0.381 OA
ATOM     34  C   UNL     1       3.167   2.229   6.035  0.00  0.00    +0.194 C 
ENDBRANCH  32  33
ENDBRANCH  31  32
ENDBRANCH   9  31
TORSDOF 8
