REMARK  Name = ZINC66448524
REMARK  8 active torsions:
REMARK  status: ('A' for Active; 'I' for Inactive)
REMARK    1  A    between atoms: C_1  and  C_2
REMARK    2  A    between atoms: C_2  and  C_3
REMARK    3  A    between atoms: C_2  and  C_4
REMARK    4  A    between atoms: C_4  and  N_5
REMARK    5  A    between atoms: C_7  and  C_12
REMARK    6  A    between atoms: N_14  and  C_15
REMARK    7  A    between atoms: N_20  and  C_22
REMARK    8  A    between atoms: C_22  and  C_23
REMARK                            x       y       z     vdW  Elec       q    Type
REMARK                         _______ _______ _______ _____ _____    ______ ____
ROOT
ATOM      1  C   UNL     1      -0.733   1.872   5.400  0.00  0.00    +0.218 C 
ATOM      2  O   UNL     1       0.415   2.173   5.648  0.00  0.00    -0.275 OA
ATOM      3  N   UNL     1      -1.698   2.083   6.317  0.00  0.00    -0.311 N 
ATOM      4  H   UNL     1      -2.616   1.842   6.119  0.00  0.00    +0.149 HD
ENDROOT
BRANCH   1   7
ATOM      5  N   UNL     1      -0.008  -0.140   2.444  0.00  0.00    -0.300 N 
ATOM      6  C   UNL     1       0.176   1.115   3.181  0.00  0.00    +0.121 C 
ATOM      7  C   UNL     1      -1.081   1.262   4.066  0.00  0.00    +0.101 C 
ATOM      8  C   UNL     1      -1.526  -0.209   4.229  0.00  0.00    +0.110 C 
ATOM      9  C   UNL     1      -0.959  -0.904   3.010  0.00  0.00    +0.216 C 
ATOM     10  O   UNL     1      -1.308  -1.992   2.605  0.00  0.00    -0.276 OA
BRANCH   5  11
ATOM     11  C   UNL     1       0.742  -0.511   1.242  0.00  0.00    +0.110 C 
BRANCH  11  13
ATOM     12  C   UNL     1      -0.019   1.526   0.010  0.00  0.00    +0.009 C 
ATOM     13  C   UNL     1       0.002  -0.004   0.002  0.00  0.00    +0.000 C 
ATOM     14  C   UNL     1       0.718  -0.497  -1.257  0.00  0.00    +0.009 C 
ENDBRANCH  11  13
ENDBRANCH   5  11
ENDBRANCH   1   7
BRANCH   3  15
ATOM     15  C   UNL     1      -1.360   2.675   7.614  0.00  0.00    +0.087 C 
ATOM     16  C   UNL     1      -1.350   4.202   7.491  0.00  0.00    +0.025 C 
ATOM     17  C   UNL     1      -1.055   4.814   8.863  0.00  0.00    +0.017 C 
ATOM     18  C   UNL     1      -2.107   4.335   9.867  0.00  0.00    +0.085 C 
ATOM     19  N   UNL     1      -2.075   2.869   9.948  0.00  0.00    -0.292 NA
ATOM     20  C   UNL     1      -2.402   2.257   8.654  0.00  0.00    +0.107 C 
BRANCH  19  21
ATOM     21  C   UNL     1      -2.974   2.381  11.002  0.00  0.00    +0.180 C 
BRANCH  21  22
ATOM     22  C   UNL     1      -2.460   2.826  12.347  0.00  0.00    +0.225 C 
ATOM     23  O   UNL     1      -1.444   3.485  12.420  0.00  0.00    -0.275 OA
ATOM     24  N   UNL     1      -3.128   2.492  13.469  0.00  0.00    -0.328 N 
ATOM     25  H   UNL     1      -3.941   1.965  13.410  0.00  0.00    +0.145 HD
ATOM     26  H   UNL     1      -2.797   2.778  14.334  0.00  0.00    +0.145 HD
ENDBRANCH  21  22
ENDBRANCH  19  21
ENDBRANCH   3  15
TORSDOF 6
