REMARK  Name = ZINC44264204
REMARK  4 active torsions:
REMARK  status: ('A' for Active; 'I' for Inactive)
REMARK    1  A    between atoms: C_1  and  C_2
REMARK    2  A    between atoms: C_5  and  C_8
REMARK    3  A    between atoms: C_9  and  C_18
REMARK    4  A    between atoms: C_19  and  C_20
REMARK                            x       y       z     vdW  Elec       q    Type
REMARK                         _______ _______ _______ _____ _____    ______ ____
ROOT
ATOM      1  C   UNL     1       0.175  -4.357  -0.107  0.00  0.00    +0.097 A 
ATOM      2  C   UNL     1       0.696  -5.129   0.939  0.00  0.00    +0.074 A 
ATOM      3  N   UNL     1       0.285  -6.428   0.702  0.00  0.00    -0.298 N 
ATOM      4  C   UNL     1       0.491  -7.590   1.380  0.00  0.00    +0.108 A 
ATOM      5  C   UNL     1      -0.031  -8.754   0.929  0.00  0.00    +0.035 A 
ATOM      6  C   UNL     1      -0.793  -8.774  -0.249  0.00  0.00    +0.020 A 
ATOM      7  C   UNL     1      -1.004  -7.615  -0.934  0.00  0.00    +0.048 A 
ATOM      8  C   UNL     1      -0.453  -6.414  -0.449  0.00  0.00    +0.139 A 
ATOM      9  N   UNL     1      -0.510  -5.168  -0.911  0.00  0.00    -0.227 NA
ATOM     10 BR   UNL     1       0.269 -10.357   1.886  0.00  0.00    -0.049 Br
ENDROOT
BRANCH   1  15
ATOM     11  C   UNL     1       0.858   1.318  -0.798  0.00  0.00    +0.044 C 
ATOM     12  C   UNL     1       0.679  -0.168  -0.617  0.00  0.00    -0.050 A 
ATOM     13  C   UNL     1       0.625  -0.995  -1.725  0.00  0.00    +0.004 A 
ATOM     14  C   UNL     1       0.462  -2.356  -1.566  0.00  0.00    +0.010 A 
ATOM     15  C   UNL     1       0.351  -2.897  -0.285  0.00  0.00    +0.002 A 
ATOM     16  C   UNL     1       0.406  -2.058   0.828  0.00  0.00    +0.010 A 
ATOM     17  C   UNL     1       0.574  -0.699   0.656  0.00  0.00    +0.004 A 
ENDBRANCH   1  15
BRANCH   2  18
ATOM     18  C   UNL     1       1.479  -4.675   2.015  0.00  0.00    +0.033 C 
ATOM     19  C   UNL     1       2.736  -5.168   2.199  0.00  0.00    +0.069 C 
BRANCH  19  20
ATOM     20  C   UNL     1       3.302  -6.032   1.239  0.00  0.00    +0.234 C 
ATOM     21  O   UNL     1       2.714  -6.250   0.195  0.00  0.00    -0.271 OA
ATOM     22  N   UNL     1       4.493  -6.616   1.477  0.00  0.00    -0.326 N 
ATOM     23  H   UNL     1       4.961  -6.442   2.309  0.00  0.00    +0.145 HD
ATOM     24  H   UNL     1       4.882  -7.210   0.817  0.00  0.00    +0.145 HD
ENDBRANCH  19  20
ENDBRANCH   2  18
TORSDOF 3
