REMARK  Name = ZINC05345474
REMARK  7 active torsions:
REMARK  status: ('A' for Active; 'I' for Inactive)
REMARK    1  A    between atoms: C_1  and  C_2
REMARK    2  A    between atoms: C_2  and  C_3
REMARK    3  A    between atoms: C_3  and  C_4
REMARK    4  A    between atoms: C_4  and  N_5
REMARK    5  A    between atoms: C_10  and  C_27
REMARK    6  A    between atoms: C_27  and  C_28
REMARK    7  A    between atoms: C_28  and  C_29
REMARK                            x       y       z     vdW  Elec       q    Type
REMARK                         _______ _______ _______ _____ _____    ______ ____
ROOT
ATOM      1  N   UNL     1       0.002  -0.004   0.002  0.00  0.00    -0.242 N 
ATOM      2  C   UNL     1       0.022  -0.734   1.123  0.00  0.00    +0.224 C 
ATOM      3  O   UNL     1       0.031  -0.286   2.250  0.00  0.00    -0.275 OA
ATOM      4  C   UNL     1       0.033  -2.203   0.767  0.00  0.00    +0.073 C 
ATOM      5  C   UNL     1       1.394  -2.814   1.160  0.00  0.00    -0.057 C 
ATOM      6  C   UNL     1       1.386  -2.800  -1.177  0.00  0.00    +0.050 C 
ATOM      7  C   UNL     1       0.031  -2.195  -0.787  0.00  0.00    +0.088 C 
ATOM      8  C   UNL     1      -0.004  -0.722  -1.127  0.00  0.00    +0.225 C 
ATOM      9  O   UNL     1      -0.031  -0.262  -2.249  0.00  0.00    -0.275 OA
ATOM     10  C   UNL     1       1.942  -2.151  -2.413  0.00  0.00    -0.025 A 
ATOM     11  C   UNL     1       2.283  -0.856  -2.731  0.00  0.00    +0.043 A 
ATOM     12  C   UNL     1       2.785  -0.561  -3.988  0.00  0.00    +0.124 A 
ATOM     13  C   UNL     1       2.943  -1.572  -4.921  0.00  0.00    +0.040 A 
ATOM     14  C   UNL     1       2.602  -2.871  -4.604  0.00  0.00    +0.026 A 
ATOM     15  C   UNL     1       2.097  -3.175  -3.342  0.00  0.00    +0.036 A 
ATOM     16  N   UNL     1       1.688  -4.393  -2.792  0.00  0.00    -0.286 N 
ATOM     17  C   UNL     1       1.257  -4.258  -1.523  0.00  0.00    +0.211 C 
ATOM     18  O   UNL     1       0.844  -5.140  -0.800  0.00  0.00    -0.277 OA
ATOM     19  F   UNL     1       3.120   0.710  -4.303  0.00  0.00    -0.205 F 
ATOM     20  H   UNL     1       1.711  -5.237  -3.269  0.00  0.00    +0.155 HD
ATOM     21  N   UNL     1       2.236  -2.606  -0.014  0.00  0.00    +0.394 N 
ATOM     22  H   UNL     1       3.007  -3.284  -0.022  0.00  0.00    -0.083 HD
ATOM     23  H   UNL     1       2.619  -1.653  -0.010  0.00  0.00    -0.083 HD
ENDROOT
BRANCH   1  24
ATOM     24  C   UNL     1      -0.018   1.461   0.010  0.00  0.00    +0.116 C 
BRANCH  24  25
ATOM     25  C   UNL     1       1.418   1.990  -0.001  0.00  0.00    +0.019 C 
BRANCH  25  27
ATOM     26  C   UNL     1       2.832   4.050  -0.003  0.00  0.00    +0.004 C 
ATOM     27  C   UNL     1       1.397   3.520   0.008  0.00  0.00    -0.002 C 
ENDBRANCH  25  27
ENDBRANCH  24  25
ENDBRANCH   1  24
BRANCH   5  28
ATOM     28  C   UNL     1       1.955  -2.114   2.399  0.00  0.00    -0.006 C 
BRANCH  28  29
ATOM     29  C   UNL     1       3.240  -2.815   2.844  0.00  0.00    +0.094 C 
BRANCH  29  30
ATOM     30  C   UNL     1       3.792  -2.125   4.064  0.00  0.00    +0.210 C 
ATOM     31  O   UNL     1       3.215  -1.166   4.532  0.00  0.00    -0.276 OA
ATOM     32  N   UNL     1       4.928  -2.573   4.636  0.00  0.00    -0.329 N 
ATOM     33  H   UNL     1       5.389  -3.340   4.261  0.00  0.00    +0.145 HD
ATOM     34  H   UNL     1       5.283  -2.129   5.421  0.00  0.00    +0.145 HD
ENDBRANCH  29  30
ENDBRANCH  28  29
ENDBRANCH   5  28
TORSDOF 6
