REMARK  Name = ZINC02436297
REMARK  5 active torsions:
REMARK  status: ('A' for Active; 'I' for Inactive)
REMARK    1  A    between atoms: C_6  and  C_7
REMARK    2  A    between atoms: C_7  and  N_8
REMARK    3  A    between atoms: C_12  and  N_13
REMARK    4  A    between atoms: N_13  and  C_14
REMARK    5  A    between atoms: C_20  and  N_22
REMARK                            x       y       z     vdW  Elec       q    Type
REMARK                         _______ _______ _______ _____ _____    ______ ____
ROOT
ATOM      1  N   UNL     1       2.380   1.376   0.375  0.00  0.00    -0.217 N 
ATOM      2  C   UNL     1       1.280   2.128   0.165  0.00  0.00    +0.261 C 
ATOM      3  O   UNL     1       1.373   3.318  -0.072  0.00  0.00    -0.269 OA
ATOM      4  C   UNL     1      -0.037   1.470   0.230  0.00  0.00    +0.113 C 
ATOM      5  C   UNL     1      -1.207   2.175   0.020  0.00  0.00    +0.086 C 
ATOM      6  C   UNL     1      -0.051   0.025   0.522  0.00  0.00    +0.258 C 
ATOM      7  O   UNL     1      -1.100  -0.588   0.592  0.00  0.00    -0.270 OA
ATOM      8  N   UNL     1       1.130  -0.599   0.711  0.00  0.00    -0.235 N 
ATOM      9  C   UNL     1       2.292   0.064   0.637  0.00  0.00    +0.316 C 
ATOM     10  O   UNL     1       3.321  -0.557   0.817  0.00  0.00    -0.252 OA
ATOM     11  H   UNL     1       1.153  -1.677   0.931  0.00  0.00    +0.159 HD
ENDROOT
BRANCH   5  12
ATOM     12  N   UNL     1      -2.381   1.519  -0.080  0.00  0.00    -0.348 N 
ATOM     13  H   UNL     1      -2.397   0.419  -0.086  0.00  0.00    +0.146 HD
BRANCH  12  14
ATOM     14  C   UNL     1      -3.634   2.271  -0.180  0.00  0.00    +0.055 C 
ATOM     15  C   UNL     1      -3.887   2.647  -1.641  0.00  0.00    +0.020 C 
ATOM     16  C   UNL     1      -3.987   1.375  -2.485  0.00  0.00    +0.002 C 
ATOM     17  C   UNL     1      -5.142   0.512  -1.973  0.00  0.00    -0.001 C 
ATOM     18  C   UNL     1      -4.888   0.136  -0.511  0.00  0.00    -0.014 C 
ATOM     19  C   UNL     1      -4.789   1.409   0.332  0.00  0.00    -0.055 C 
BRANCH  19  20
ATOM     20  N   UNL     1      -4.545   1.048   1.735  0.00  0.00    +0.381 N 
ATOM     21  H   UNL     1      -5.375   0.428   2.104  0.00  0.00    -0.090 HD
ATOM     22  H   UNL     1      -4.473   1.963   2.342  0.00  0.00    -0.090 HD
ATOM     23  H   UNL     1      -3.604   0.483   1.811  0.00  0.00    -0.090 HD
ENDBRANCH  19  20
ENDBRANCH  12  14
ENDBRANCH   5  12
BRANCH   1  24
ATOM     24  C   UNL     1       3.701   2.007   0.317  0.00  0.00    +0.153 C 
BRANCH  24  30
ATOM     25  C   UNL     1       4.988   0.860  -1.497  0.00  0.00    +0.008 A 
ATOM     26  C   UNL     1       5.467   0.796  -2.792  0.00  0.00    +0.038 A 
ATOM     27  C   UNL     1       5.194   1.821  -3.682  0.00  0.00    +0.123 A 
ATOM     28  C   UNL     1       4.436   2.907  -3.275  0.00  0.00    +0.038 A 
ATOM     29  C   UNL     1       3.954   2.966  -1.981  0.00  0.00    +0.008 A 
ATOM     30  C   UNL     1       4.227   1.941  -1.093  0.00  0.00    -0.029 A 
ATOM     31  F   UNL     1       5.666   1.763  -4.946  0.00  0.00    -0.205 F 
ENDBRANCH  24  30
ENDBRANCH   1  24
TORSDOF 5
