REMARK  Name = ZINC11592166
REMARK  7 active torsions:
REMARK  status: ('A' for Active; 'I' for Inactive)
REMARK    1  A    between atoms: C_1  and  C_2
REMARK    2  A    between atoms: C_2  and  C_4
REMARK    3  A    between atoms: C_2  and  S_20
REMARK    4  A    between atoms: C_10  and  C_15
REMARK    5  A    between atoms: S_20  and  C_21
REMARK    6  A    between atoms: C_24  and  C_27
REMARK    7  A    between atoms: N_25  and  N_26
REMARK                            x       y       z     vdW  Elec       q    Type
REMARK                         _______ _______ _______ _____ _____    ______ ____
ROOT
ATOM      1  C   UNL     1       1.649   9.858  -1.086  0.00  0.00    +0.027 C 
ATOM      2  C   UNL     1       2.730   9.583  -0.038  0.00  0.00    +0.117 C 
ENDROOT
BRANCH   2   3
ATOM      3  C   UNL     1       3.757  10.685  -0.075  0.00  0.00    +0.124 A 
ATOM      4  N   UNL     1       4.887  10.520  -0.809  0.00  0.00    -0.309 N 
ATOM      5  H   UNL     1       5.018   9.694  -1.300  0.00  0.00    +0.170 HD
ATOM      6  C   UNL     1       5.826  11.482  -0.873  0.00  0.00    +0.260 A 
ATOM      7  O   UNL     1       6.833  11.320  -1.540  0.00  0.00    -0.267 OA
ATOM      8  C   UNL     1       5.628  12.695  -0.141  0.00  0.00    +0.080 A 
ATOM      9  C   UNL     1       6.490  13.868  -0.046  0.00  0.00    +0.010 A 
ATOM     10  C   UNL     1       6.087  14.913   0.720  0.00  0.00    +0.057 A 
ATOM     11  S   UNL     1       4.514  14.372   1.360  0.00  0.00    -0.076 S 
ATOM     12  C   UNL     1       4.433  12.774   0.594  0.00  0.00    +0.116 A 
ATOM     13  N   UNL     1       3.547  11.781   0.604  0.00  0.00    -0.225 NA
BRANCH   9  14
ATOM     14  C   UNL     1       7.778  13.917  -0.770  0.00  0.00    +0.021 A 
ATOM     15  C   UNL     1       8.269  14.896  -1.592  0.00  0.00    +0.016 A 
ATOM     16  C   UNL     1       9.512  14.720  -2.161  0.00  0.00    +0.008 A 
ATOM     17  C   UNL     1      10.205  13.584  -1.899  0.00  0.00    +0.046 A 
ATOM     18  S   UNL     1       9.094  12.711  -0.808  0.00  0.00    -0.097 S 
ENDBRANCH   9  14
ENDBRANCH   2   3
BRANCH   2  19
ATOM     19  S   UNL     1       3.530   8.000  -0.397  0.00  0.00    -0.074 S 
BRANCH  19  20
ATOM     20  C   UNL     1       2.172   6.906  -0.144  0.00  0.00    +0.209 A 
ATOM     21  N   UNL     1       0.953   7.247   0.208  0.00  0.00    -0.121 NA
ATOM     22  N   UNL     1       0.212   6.201   0.304  0.00  0.00    -0.126 NA
ATOM     23  C   UNL     1       0.914   5.126   0.019  0.00  0.00    +0.188 A 
ATOM     24  N   UNL     1       2.193   5.545  -0.272  0.00  0.00    -0.223 N 
BRANCH  23  25
ATOM     25  C   UNL     1       0.426   3.737   0.017  0.00  0.00    +0.058 A 
ATOM     26  C   UNL     1      -0.866   3.275   0.026  0.00  0.00    +0.019 A 
ATOM     27  C   UNL     1      -1.081   1.915   0.017  0.00  0.00    +0.008 A 
ATOM     28  C   UNL     1      -0.013   1.076   0.008  0.00  0.00    +0.046 A 
ATOM     29  S   UNL     1       1.361   2.216   0.001  0.00  0.00    -0.093 S 
ENDBRANCH  23  25
BRANCH  24  30
ATOM     30  N   UNL     1       3.259   4.764  -0.618  0.00  0.00    -0.295 N 
ATOM     31  H   UNL     1       3.308   4.641  -1.618  0.00  0.00    +0.163 HD
ATOM     32  H   UNL     1       4.120   5.149  -0.259  0.00  0.00    +0.163 HD
ENDBRANCH  24  30
ENDBRANCH  19  20
ENDBRANCH   2  19
TORSDOF 6
