REMARK  Name = ZINC65578673
REMARK  6 active torsions:
REMARK  status: ('A' for Active; 'I' for Inactive)
REMARK    1  A    between atoms: C_1  and  C_2
REMARK    2  A    between atoms: C_5  and  C_7
REMARK    3  A    between atoms: C_8  and  C_9
REMARK    4  A    between atoms: N_11  and  C_12
REMARK    5  A    between atoms: C_16  and  C_18
REMARK    6  A    between atoms: C_20  and  C_24
REMARK                            x       y       z     vdW  Elec       q    Type
REMARK                         _______ _______ _______ _____ _____    ______ ____
ROOT
ATOM      1  C   UNL     1       6.103  -4.930   0.037  0.00  0.00    +0.034 A 
ATOM      2  C   UNL     1       5.650  -6.244   0.021  0.00  0.00    +0.023 A 
ATOM      3  C   UNL     1       6.550  -7.290   0.099  0.00  0.00    +0.002 A 
ATOM      4  C   UNL     1       7.904  -7.035   0.195  0.00  0.00    +0.012 A 
ATOM      5  C   UNL     1       8.367  -5.721   0.212  0.00  0.00    +0.023 A 
ATOM      6  C   UNL     1       7.462  -4.666   0.128  0.00  0.00    +0.035 A 
ENDROOT
BRANCH   5   7
ATOM      7  C   UNL     1       9.822  -5.445   0.315  0.00  0.00    +0.181 A 
ATOM      8  N   UNL     1      10.788  -6.370   0.392  0.00  0.00    -0.212 NA
ATOM      9  C   UNL     1      11.954  -5.786   0.471  0.00  0.00    +0.122 A 
ATOM     10  N   UNL     1      11.762  -4.455   0.446  0.00  0.00    -0.262 N 
ATOM     11  H   UNL     1      12.447  -3.769   0.489  0.00  0.00    +0.190 HD
ATOM     12  N   UNL     1      10.376  -4.253   0.341  0.00  0.00    -0.152 NA
ATOM     13  C   UNL     1      13.286  -6.484   0.572  0.00  0.00    +0.087 C 
ENDBRANCH   5   7
BRANCH   1  16
ATOM     14  C   UNL     1       3.982  -3.982   0.547  0.00  0.00    +0.241 C 
ATOM     15  O   UNL     1       3.655  -5.028   1.078  0.00  0.00    -0.270 OA
ATOM     16  N   UNL     1       5.189  -3.875  -0.043  0.00  0.00    -0.282 N 
ATOM     17  H   UNL     1       5.424  -3.065  -0.523  0.00  0.00    +0.155 HD
BRANCH  14  19
ATOM     18  C   UNL     1       1.881  -2.986   1.144  0.00  0.00    +0.051 C 
ATOM     19  C   UNL     1       3.096  -2.879   0.550  0.00  0.00    +0.071 C 
BRANCH  18  24
ATOM     20  C   UNL     1       0.043   1.549   0.332  0.00  0.00    +0.086 C 
ATOM     21  C   UNL     1       0.167   0.120   0.795  0.00  0.00    +0.103 A 
ATOM     22  C   UNL     1      -0.776  -0.568   1.477  0.00  0.00    +0.045 A 
ATOM     23  C   UNL     1      -0.264  -1.853   1.711  0.00  0.00    +0.049 A 
ATOM     24  C   UNL     1       0.994  -1.883   1.147  0.00  0.00    +0.128 A 
ATOM     25  O   UNL     1       1.227  -0.674   0.594  0.00  0.00    -0.461 OA
ENDBRANCH  18  24
ENDBRANCH  14  19
ENDBRANCH   1  16
TORSDOF 4
