REMARK  Name = ZINC16162820
REMARK  5 active torsions:
REMARK  status: ('A' for Active; 'I' for Inactive)
REMARK    1  A    between atoms: C_1  and  C_2
REMARK    2  A    between atoms: C_2  and  N_3
REMARK    3  A    between atoms: C_12  and  C_15
REMARK    4  A    between atoms: C_15  and  C_22
REMARK    5  A    between atoms: N_20  and  N_21
REMARK                            x       y       z     vdW  Elec       q    Type
REMARK                         _______ _______ _______ _____ _____    ______ ____
ROOT
ATOM      1  N   UNL     1       1.356   2.033   0.000  0.00  0.00    -0.308 N 
ATOM      2  C   UNL     1       1.977   2.273  -1.208  0.00  0.00    +0.056 A 
ATOM      3  C   UNL     1       1.317   2.040  -2.411  0.00  0.00    +0.026 A 
ATOM      4  C   UNL     1       1.960   2.288  -3.604  0.00  0.00    +0.002 A 
ATOM      5  C   UNL     1       3.261   2.769  -3.621  0.00  0.00    +0.001 A 
ATOM      6  C   UNL     1       3.932   3.006  -2.442  0.00  0.00    +0.014 A 
ATOM      7  C   UNL     1       3.294   2.759  -1.226  0.00  0.00    +0.046 A 
ATOM      8  C   UNL     1       3.975   2.999   0.060  0.00  0.00    +0.200 A 
ATOM      9  O   UNL     1       5.121   3.421   0.096  0.00  0.00    -0.287 OA
ATOM     10  C   UNL     1       3.266   2.726   1.243  0.00  0.00    +0.105 A 
ATOM     11  C   UNL     1       1.988   2.262   1.181  0.00  0.00    +0.262 A 
ATOM     12  O   UNL     1       1.328   2.013   2.333  0.00  0.00    -0.267 OA
ENDROOT
BRANCH  10  13
ATOM     13  C   UNL     1       3.919   2.955   2.582  0.00  0.00    +0.139 C 
ATOM     14  N   UNL     1       5.342   3.310   2.408  0.00  0.00    -0.212 NA
ATOM     15  N   UNL     1       6.045   2.325   3.045  0.00  0.00    -0.251 N 
ATOM     16  C   UNL     1       5.187   1.409   3.589  0.00  0.00    +0.183 C 
ATOM     17  N   UNL     1       3.941   1.709   3.362  0.00  0.00    -0.336 N 
ATOM     18  N   UNL     1       5.594   0.301   4.293  0.00  0.00    -0.256 N 
ATOM     19  C   UNL     1       3.185   4.055   3.352  0.00  0.00    +0.059 C 
ATOM     20  H   UNL     1       5.541   4.214   2.809  0.00  0.00    +0.147 HD
ATOM     21  H   UNL     1       7.144   2.357   3.062  0.00  0.00    +0.169 HD
ATOM     22  H   UNL     1       6.666   0.110   4.448  0.00  0.00    +0.169 HD
ATOM     23  H   UNL     1       3.141   1.059   3.744  0.00  0.00    +0.164 HD
BRANCH  18  24
ATOM     24  N   UNL     1       4.666  -0.563   4.801  0.00  0.00    -0.254 NA
ATOM     25  H   UNL     1       5.178  -1.382   5.329  0.00  0.00    +0.140 HD
ATOM     26  H   UNL     1       4.011  -0.027   5.504  0.00  0.00    +0.140 HD
ENDBRANCH  18  24
ENDBRANCH  10  13
BRANCH   1  28
ATOM     27  C   UNL     1       0.002  -0.004   0.002  0.00  0.00    +0.027 C 
ATOM     28  C   UNL     1      -0.019   1.526   0.010  0.00  0.00    +0.122 C 
ENDBRANCH   1  28
TORSDOF 3
