REMARK  Name = ZINC37578918
REMARK  6 active torsions:
REMARK  status: ('A' for Active; 'I' for Inactive)
REMARK    1  A    between atoms: C_1  and  C_2
REMARK    2  A    between atoms: N_8  and  S_9
REMARK    3  A    between atoms: S_9  and  C_12
REMARK    4  A    between atoms: C_15  and  C_18
REMARK    5  A    between atoms: C_19  and  C_20
REMARK    6  A    between atoms: C_20  and  O_21
REMARK                            x       y       z     vdW  Elec       q    Type
REMARK                         _______ _______ _______ _____ _____    ______ ____
ROOT
ATOM      1  S   UNL     1       0.045  -1.881   3.766  0.00  0.00    +0.101 S 
ATOM      2  O   UNL     1       1.282  -1.184   3.835  0.00  0.00    -0.146 OA
ATOM      3  O   UNL     1      -1.209  -1.217   3.846  0.00  0.00    -0.146 OA
ENDROOT
BRANCH   1  11
ATOM      4  C   UNL     1      -0.018   1.503   0.010  0.00  0.00    +0.063 C 
ATOM      5  C   UNL     1       0.002  -0.004   0.002  0.00  0.00    +0.015 A 
ATOM      6  C   UNL     1       0.005  -0.665  -1.175  0.00  0.00    +0.021 A 
ATOM      7  C   UNL     1       0.024  -2.070  -1.202  0.00  0.00    +0.005 A 
ATOM      8  C   UNL     1       0.039  -2.765  -0.034  0.00  0.00    +0.048 A 
ATOM      9  C   UNL     1       0.036  -2.058   1.192  0.00  0.00    +0.153 A 
ATOM     10  N   UNL     1       0.022  -0.684   1.183  0.00  0.00    -0.343 N 
ATOM     11  N   UNL     1       0.050  -2.713   2.334  0.00  0.00    -0.111 NA
ATOM     12  H   UNL     1       0.024  -0.196   2.021  0.00  0.00    +0.167 HD
ENDBRANCH   1  11
BRANCH   1  13
ATOM     13  C   UNL     1       0.067  -3.074   5.062  0.00  0.00    +0.113 A 
ATOM     14  C   UNL     1      -1.125  -3.561   5.570  0.00  0.00    +0.030 A 
ATOM     15  C   UNL     1      -1.114  -4.496   6.585  0.00  0.00    +0.019 A 
ATOM     16  C   UNL     1       0.101  -4.950   7.098  0.00  0.00    +0.025 A 
ATOM     17  C   UNL     1       1.299  -4.456   6.582  0.00  0.00    +0.019 A 
ATOM     18  C   UNL     1       1.275  -3.525   5.563  0.00  0.00    +0.030 A 
BRANCH  16  19
ATOM     19  C   UNL     1       0.118  -5.920   8.152  0.00  0.00    -0.064 C 
ATOM     20  C   UNL     1       0.133  -6.715   9.015  0.00  0.00    -0.069 C 
BRANCH  20  21
ATOM     21  C   UNL     1       0.151  -7.712  10.098  0.00  0.00    +0.244 C 
BRANCH  21  22
ATOM     22  O   UNL     1       1.504  -8.013  10.447  0.00  0.00    -0.383 OA
ATOM     23  H   UNL     1       1.592  -8.664  11.156  0.00  0.00    +0.211 HD
ENDBRANCH  21  22
ENDBRANCH  20  21
ENDBRANCH  16  19
ENDBRANCH   1  13
TORSDOF 5
