REMARK  Name = ZINC09264312
REMARK  5 active torsions:
REMARK  status: ('A' for Active; 'I' for Inactive)
REMARK    1  A    between atoms: C_1  and  C_2
REMARK    2  A    between atoms: C_14  and  C_16
REMARK    3  A    between atoms: C_21  and  O_22
REMARK    4  A    between atoms: O_22  and  C_23
REMARK    5  A    between atoms: C_27  and  C_30
REMARK                            x       y       z     vdW  Elec       q    Type
REMARK                         _______ _______ _______ _____ _____    ______ ____
ROOT
ATOM      1  C   UNL     1       1.022   5.496   2.099  0.00  0.00    +0.110 C 
ATOM      2  C   UNL     1       0.399   6.088   0.861  0.00  0.00    +0.218 C 
ATOM      3  O   UNL     1       0.306   7.292   0.746  0.00  0.00    -0.276 OA
ATOM      4  N   UNL     1      -0.054   5.280  -0.117  0.00  0.00    -0.258 N 
ATOM      5  C   UNL     1       0.059   3.896   0.026  0.00  0.00    +0.058 A 
ATOM      6  C   UNL     1       1.293   3.266   0.024  0.00  0.00    +0.025 A 
ATOM      7  C   UNL     1       1.351   1.884   0.066  0.00  0.00    +0.002 A 
ATOM      8  C   UNL     1       0.188   1.136   0.108  0.00  0.00    +0.002 A 
ATOM      9  C   UNL     1      -1.046   1.762   0.122  0.00  0.00    +0.025 A 
ATOM     10  C   UNL     1      -1.105   3.146   0.103  0.00  0.00    +0.053 A 
ATOM     11  N   UNL     1      -2.305   3.840   0.183  0.00  0.00    -0.316 N 
ATOM     12  C   UNL     1      -2.816   4.625  -0.800  0.00  0.00    +0.017 C 
ATOM     13  C   UNL     1      -2.115   5.542  -1.488  0.00  0.00    +0.037 C 
ATOM     14  C   UNL     1      -0.651   5.860  -1.302  0.00  0.00    +0.150 C 
ATOM     15  C   UNL     1      -2.743   6.305  -2.501  0.00  0.00    +0.163 C 
ATOM     16  O   UNL     1      -2.091   7.144  -3.091  0.00  0.00    -0.292 OA
ATOM     17  C   UNL     1      -4.183   6.117  -2.871  0.00  0.00    +0.091 C 
ATOM     18  C   UNL     1      -4.582   4.669  -2.562  0.00  0.00    +0.068 C 
ATOM     19  C   UNL     1      -4.294   4.413  -1.083  0.00  0.00    +0.063 C 
ATOM     20  H   UNL     1      -2.817   3.758   1.002  0.00  0.00    +0.152 HD
ENDROOT
BRANCH  14  21
ATOM     21  C   UNL     1       0.103   5.362  -2.508  0.00  0.00    +0.020 A 
ATOM     22  C   UNL     1      -0.480   4.440  -3.356  0.00  0.00    +0.009 A 
ATOM     23  C   UNL     1       0.210   3.984  -4.463  0.00  0.00    +0.001 A 
ATOM     24  C   UNL     1       1.486   4.448  -4.725  0.00  0.00    +0.004 A 
ATOM     25  C   UNL     1       2.074   5.370  -3.881  0.00  0.00    +0.046 A 
ATOM     26  C   UNL     1       1.381   5.834  -2.772  0.00  0.00    +0.125 A 
BRANCH  26  27
ATOM     27  O   UNL     1       1.954   6.745  -1.943  0.00  0.00    -0.495 OA
ATOM     28  C   UNL     1       3.272   7.186  -2.276  0.00  0.00    +0.277 C 
ENDBRANCH  26  27
ENDBRANCH  14  21
BRANCH  18  29
ATOM     29  C   UNL     1      -6.051   4.475  -2.837  0.00  0.00    +0.109 A 
ATOM     30  C   UNL     1      -6.578   3.606  -3.718  0.00  0.00    +0.045 A 
ATOM     31  C   UNL     1      -7.982   3.756  -3.651  0.00  0.00    +0.041 A 
ATOM     32  C   UNL     1      -8.229   4.708  -2.734  0.00  0.00    +0.195 A 
ATOM     33  O   UNL     1      -7.056   5.135  -2.239  0.00  0.00    -0.468 OA
ENDBRANCH  18  29
TORSDOF 3
