REMARK  Name = ZINC23386319
REMARK  5 active torsions:
REMARK  status: ('A' for Active; 'I' for Inactive)
REMARK    1  A    between atoms: C_3  and  N_14
REMARK    2  A    between atoms: C_4  and  N_11
REMARK    3  A    between atoms: C_6  and  S_7
REMARK    4  A    between atoms: S_7  and  N_10
REMARK    5  A    between atoms: C_18  and  C_21
REMARK                            x       y       z     vdW  Elec       q    Type
REMARK                         _______ _______ _______ _____ _____    ______ ____
ROOT
ATOM      1  C   UNL     1       1.207  -0.682  -0.013  0.00  0.00    +0.030 A 
ATOM      2  C   UNL     1       2.396   0.020  -0.020  0.00  0.00    +0.027 A 
ATOM      3  C   UNL     1       2.381   1.409  -0.013  0.00  0.00    +0.060 A 
ATOM      4  C   UNL     1       1.169   2.087   0.002  0.00  0.00    +0.149 A 
ATOM      5  C   UNL     1      -0.017   1.379   0.010  0.00  0.00    +0.063 A 
ATOM      6  C   UNL     1       0.002  -0.004   0.002  0.00  0.00    +0.107 A 
ENDROOT
BRANCH   3   7
ATOM      7  N   UNL     1       3.582   2.122  -0.020  0.00  0.00    -0.327 N 
ATOM      8  C   UNL     1       4.353   1.867   1.203  0.00  0.00    +0.105 C 
ATOM      9  C   UNL     1       5.587   2.772   1.228  0.00  0.00    +0.020 C 
ATOM     10  C   UNL     1       6.446   2.489  -0.007  0.00  0.00    +0.016 C 
ATOM     11  C   UNL     1       5.606   2.715  -1.267  0.00  0.00    +0.092 C 
ATOM     12  C   UNL     1       4.371   1.812  -1.220  0.00  0.00    +0.118 C 
BRANCH  11  13
ATOM     13  C   UNL     1       6.426   2.382  -2.486  0.00  0.00    +0.215 C 
ATOM     14  O   UNL     1       6.058   1.510  -3.245  0.00  0.00    -0.276 OA
ATOM     15  N   UNL     1       7.569   3.052  -2.733  0.00  0.00    -0.329 N 
ATOM     16  H   UNL     1       8.168   2.809  -3.623  0.00  0.00    +0.145 HD
ATOM     17  H   UNL     1       7.903   3.842  -2.045  0.00  0.00    +0.145 HD
ENDBRANCH  11  13
ENDBRANCH   3   7
BRANCH   6  18
ATOM     18  S   UNL     1      -1.513  -0.904   0.012  0.00  0.00    +0.056 S 
ATOM     19  O   UNL     1      -1.221  -2.185   0.553  0.00  0.00    -0.153 OA
ATOM     20  O   UNL     1      -2.493  -0.043   0.577  0.00  0.00    -0.153 OA
BRANCH  18  21
ATOM     21  N   UNL     1      -1.949  -1.145  -1.567  0.00  0.00    -0.204 NA
ATOM     22  H   UNL     1      -2.894  -1.706  -1.605  0.00  0.00    +0.144 HD
ATOM     23  H   UNL     1      -1.163  -1.717  -2.082  0.00  0.00    +0.144 HD
ENDBRANCH  18  21
ENDBRANCH   6  18
BRANCH   4  24
ATOM     24  N   UNL     1       1.148   3.567   0.010  0.00  0.00    +0.058 N 
ATOM     25  O   UNL     1       0.084   4.161   0.024  0.00  0.00    -0.126 OA
ATOM     26  O   UNL     1       2.194   4.191   0.004  0.00  0.00    -0.126 OA
ENDBRANCH   4  24
TORSDOF 5
