REMARK  Name = ZINC19898382
REMARK  3 active torsions:
REMARK  status: ('A' for Active; 'I' for Inactive)
REMARK    1  A    between atoms: C_4  and  N_8
REMARK    2  A    between atoms: N_11  and  C_12
REMARK    3  A    between atoms: C_17  and  C_18
REMARK                            x       y       z     vdW  Elec       q    Type
REMARK                         _______ _______ _______ _____ _____    ______ ____
ROOT
ATOM      1  N   UNL     1       3.601  -0.886   0.166  0.00  0.00    -0.267 N 
ATOM      2  C   UNL     1       2.422  -0.238   0.086  0.00  0.00    +0.308 C 
ATOM      3  O   UNL     1       1.381  -0.866   0.089  0.00  0.00    -0.252 OA
ATOM      4  N   UNL     1       2.397   1.107   0.002  0.00  0.00    -0.268 N 
ATOM      5  H   UNL     1       4.538  -0.316   0.237  0.00  0.00    +0.156 HD
ATOM      6  H   UNL     1       3.338   1.671  -0.075  0.00  0.00    +0.156 HD
ENDROOT
BRANCH   1  10
ATOM      7  C   UNL     1       3.694  -5.055   0.142  0.00  0.00    +0.041 A 
ATOM      8  C   UNL     1       4.714  -4.339  -0.458  0.00  0.00    +0.043 A 
ATOM      9  C   UNL     1       4.686  -2.957  -0.452  0.00  0.00    +0.145 A 
ATOM     10  C   UNL     1       3.631  -2.286   0.159  0.00  0.00    +0.073 A 
ATOM     11  C   UNL     1       2.613  -3.007   0.765  0.00  0.00    +0.064 A 
ATOM     12  C   UNL     1       2.643  -4.391   0.751  0.00  0.00    +0.125 A 
ATOM     13  F   UNL     1       1.649  -5.094   1.337  0.00  0.00    -0.205 F 
ATOM     14  F   UNL     1       5.682  -2.258  -1.039  0.00  0.00    -0.204 F 
ENDBRANCH   1  10
BRANCH   4  15
ATOM     15  C   UNL     1       1.178   1.784   0.013  0.00  0.00    +0.052 A 
ATOM     16  C   UNL     1       0.061   1.219  -0.587  0.00  0.00    +0.026 A 
ATOM     17  C   UNL     1      -1.143   1.893  -0.580  0.00  0.00    +0.022 A 
ATOM     18  C   UNL     1      -1.251   3.131   0.034  0.00  0.00    +0.042 A 
ATOM     19  C   UNL     1      -0.152   3.708   0.636  0.00  0.00    +0.040 A 
ATOM     20  C   UNL     1       1.075   3.039   0.631  0.00  0.00    +0.074 A 
ATOM     21 CL   UNL     1      -2.775   3.963   0.040  0.00  0.00    -0.084 Cl
BRANCH  20  22
ATOM     22  C   UNL     1       2.220   3.632   1.254  0.00  0.00    +0.101 C 
ATOM     23  N   UNL     1       3.128   4.102   1.749  0.00  0.00    -0.191 NA
ENDBRANCH  20  22
ENDBRANCH   4  15
TORSDOF 3
