REMARK  Name = ZINC59367482
REMARK  9 active torsions:
REMARK  status: ('A' for Active; 'I' for Inactive)
REMARK    1  A    between atoms: C_1  and  C_2
REMARK    2  A    between atoms: C_2  and  C_3
REMARK    3  A    between atoms: C_2  and  C_4
REMARK    4  A    between atoms: C_5  and  C_17
REMARK    5  A    between atoms: C_6  and  N_16
REMARK    6  A    between atoms: C_8  and  S_12
REMARK    7  A    between atoms: C_9  and  C_10
REMARK    8  A    between atoms: S_12  and  C_13
REMARK    9  A    between atoms: C_13  and  C_14
REMARK                            x       y       z     vdW  Elec       q    Type
REMARK                         _______ _______ _______ _____ _____    ______ ____
ROOT
ATOM      1  C   UNL     1       0.731  -0.503   1.223  0.00  0.00    -0.004 A 
ATOM      2  C   UNL     1       2.064  -0.155   1.454  0.00  0.00    +0.096 A 
ATOM      3  C   UNL     1       2.711  -0.641   2.607  0.00  0.00    +0.135 A 
ATOM      4  N   UNL     1       2.071  -1.419   3.466  0.00  0.00    -0.224 NA
ATOM      5  C   UNL     1       0.807  -1.771   3.282  0.00  0.00    +0.118 A 
ATOM      6  C   UNL     1       0.089  -1.321   2.155  0.00  0.00    +0.088 A 
ENDROOT
BRANCH   1   8
ATOM      7  C   UNL     1      -0.019   1.526   0.010  0.00  0.00    +0.012 C 
ATOM      8  C   UNL     1       0.002  -0.004   0.002  0.00  0.00    +0.016 C 
ATOM      9  C   UNL     1       0.718  -0.497  -1.257  0.00  0.00    +0.012 C 
ENDBRANCH   1   8
BRANCH   3  10
ATOM     10  N   UNL     1       4.028  -0.304   2.844  0.00  0.00    -0.342 N 
ATOM     11  H   UNL     1       4.503   0.266   2.218  0.00  0.00    +0.144 HD
ATOM     12  H   UNL     1       4.478  -0.635   3.636  0.00  0.00    +0.144 HD
ENDBRANCH   3  10
BRANCH   6  13
ATOM     13  C   UNL     1      -1.278  -1.702   1.967  0.00  0.00    +0.102 C 
ATOM     14  N   UNL     1      -2.363  -2.004   1.817  0.00  0.00    -0.191 NA
ENDBRANCH   6  13
BRANCH   2  15
ATOM     15  C   UNL     1       2.765   0.685   0.529  0.00  0.00    +0.103 C 
ATOM     16  N   UNL     1       3.320   1.352  -0.204  0.00  0.00    -0.191 NA
ENDBRANCH   2  15
BRANCH   5  17
ATOM     17  S   UNL     1       0.012  -2.809   4.463  0.00  0.00    -0.090 S 
BRANCH  17  18
ATOM     18  C   UNL     1       1.294  -3.118   5.709  0.00  0.00    +0.194 C 
BRANCH  18  19
ATOM     19  C   UNL     1       0.751  -3.985   6.767  0.00  0.00    +0.074 C 
ATOM     20  N   UNL     1       0.332  -4.654   7.584  0.00  0.00    -0.196 NA
ENDBRANCH  18  19
ENDBRANCH  17  18
ENDBRANCH   5  17
TORSDOF 7
