REMARK  Name = ZINC20895012
REMARK  10 active torsions:
REMARK  status: ('A' for Active; 'I' for Inactive)
REMARK    1  A    between atoms: C_1  and  C_2
REMARK    2  A    between atoms: C_5  and  N_9
REMARK    3  A    between atoms: C_6  and  C_8
REMARK    4  A    between atoms: C_10  and  C_12
REMARK    5  A    between atoms: C_12  and  S_13
REMARK    6  A    between atoms: S_13  and  C_14
REMARK    7  A    between atoms: C_19  and  N_23
REMARK    8  A    between atoms: C_24  and  C_26
REMARK    9  A    between atoms: C_26  and  C_27
REMARK   10  A    between atoms: C_26  and  C_28
REMARK                            x       y       z     vdW  Elec       q    Type
REMARK                         _______ _______ _______ _____ _____    ______ ____
ROOT
ATOM      1  C   UNL     1      -6.439   2.031  -0.448  0.00  0.00    +0.136 A 
ATOM      2  N   UNL     1      -6.432   3.344  -0.432  0.00  0.00    -0.233 NA
ATOM      3  C   UNL     1      -7.566   4.077  -0.513  0.00  0.00    +0.080 A 
ATOM      4  C   UNL     1      -7.695   5.485  -0.508  0.00  0.00    +0.031 A 
ATOM      5  C   UNL     1      -8.927   6.077  -0.599  0.00  0.00    +0.025 A 
ATOM      6  C   UNL     1     -10.091   5.319  -0.700  0.00  0.00    +0.035 A 
ATOM      7  C   UNL     1      -9.998   3.933  -0.708  0.00  0.00    +0.040 A 
ATOM      8  C   UNL     1      -8.766   3.338  -0.617  0.00  0.00    +0.042 A 
ATOM      9  S   UNL     1      -8.181   1.660  -0.598  0.00  0.00    -0.061 S 
ENDROOT
BRANCH   6  10
ATOM     10  N   UNL     1     -11.341   5.947  -0.793  0.00  0.00    -0.285 N 
ATOM     11  C   UNL     1     -12.421   5.386  -0.214  0.00  0.00    +0.220 C 
ATOM     12  O   UNL     1     -12.329   4.299   0.316  0.00  0.00    -0.275 OA
ATOM     13  H   UNL     1     -11.440   6.897  -1.338  0.00  0.00    +0.155 HD
BRANCH  11  14
ATOM     14  C   UNL     1     -13.742   6.110  -0.224  0.00  0.00    +0.069 C 
ATOM     15  C   UNL     1     -14.181   6.351  -1.670  0.00  0.00    +0.017 C 
ATOM     16  C   UNL     1     -14.794   5.262   0.494  0.00  0.00    +0.017 C 
ENDBRANCH  11  14
ENDBRANCH   6  10
BRANCH   1  17
ATOM     17  S   UNL     1      -5.076   0.917  -0.353  0.00  0.00    -0.089 S 
BRANCH  17  18
ATOM     18  C   UNL     1      -3.712   2.100  -0.230  0.00  0.00    +0.172 C 
BRANCH  18  20
ATOM     19  N   UNL     1      -1.247   2.033  -0.034  0.00  0.00    -0.285 N 
ATOM     20  C   UNL     1      -2.406   1.353  -0.135  0.00  0.00    +0.227 C 
ATOM     21  O   UNL     1      -2.399   0.141  -0.149  0.00  0.00    -0.275 OA
ATOM     22  H   UNL     1      -1.258   3.129   0.054  0.00  0.00    +0.155 HD
BRANCH  19  27
ATOM     23  C   UNL     1       3.686  -0.769  -0.082  0.00  0.00    +0.044 C 
ATOM     24  C   UNL     1       2.376  -0.024  -0.068  0.00  0.00    -0.050 A 
ATOM     25  C   UNL     1       1.266  -0.590   0.533  0.00  0.00    +0.005 A 
ATOM     26  C   UNL     1       0.065   0.090   0.547  0.00  0.00    +0.024 A 
ATOM     27  C   UNL     1      -0.029   1.344  -0.042  0.00  0.00    +0.036 A 
ATOM     28  C   UNL     1       1.087   1.910  -0.645  0.00  0.00    -0.029 A 
ATOM     29  C   UNL     1       2.286   1.224  -0.657  0.00  0.00    +0.008 A 
ATOM     30  C   UNL     1       0.989   3.270  -1.286  0.00  0.00    +0.045 C 
ENDBRANCH  19  27
ENDBRANCH  18  20
ENDBRANCH  17  18
ENDBRANCH   1  17
TORSDOF 6
