REMARK  Name = ZINC63079850
REMARK  5 active torsions:
REMARK  status: ('A' for Active; 'I' for Inactive)
REMARK    1  A    between atoms: C_1  and  N_2
REMARK    2  A    between atoms: C_7  and  N_18
REMARK    3  A    between atoms: C_9  and  C_11
REMARK    4  A    between atoms: C_11  and  S_12
REMARK    5  A    between atoms: S_12  and  C_13
REMARK                            x       y       z     vdW  Elec       q    Type
REMARK                         _______ _______ _______ _____ _____    ______ ____
ROOT
ATOM      1  C   UNL     1      -0.018   1.461   0.010  0.00  0.00    +0.174 C 
ATOM      2  N   UNL     1       0.002  -0.004   0.002  0.00  0.00    -0.249 N 
ATOM      3  C   UNL     1       0.008  -0.797  -1.107  0.00  0.00    +0.163 A 
ATOM      4  C   UNL     1       0.028  -2.128  -0.648  0.00  0.00    +0.078 A 
ATOM      5  C   UNL     1       0.034  -2.080   0.763  0.00  0.00    +0.148 A 
ATOM      6  N   UNL     1       0.025  -0.831   1.132  0.00  0.00    -0.177 NA
ATOM      7  C   UNL     1       0.038  -3.163  -1.603  0.00  0.00    +0.131 A 
ATOM      8  N   UNL     1       0.027  -2.834  -2.891  0.00  0.00    -0.216 NA
ATOM      9  C   UNL     1       0.009  -1.569  -3.273  0.00  0.00    +0.144 A 
ATOM     10  N   UNL     1      -0.001  -0.570  -2.419  0.00  0.00    -0.212 NA
ENDROOT
BRANCH   7  11
ATOM     11  N   UNL     1       0.058  -4.487  -1.212  0.00  0.00    -0.342 N 
ATOM     12  H   UNL     1       0.066  -4.714  -0.269  0.00  0.00    +0.144 HD
ATOM     13  H   UNL     1       0.064  -5.190  -1.880  0.00  0.00    +0.144 HD
ENDBRANCH   7  11
BRANCH   9  14
ATOM     14  C   UNL     1      -0.002  -1.260  -4.748  0.00  0.00    +0.151 C 
BRANCH  14  15
ATOM     15  S   UNL     1      -1.716  -1.160  -5.333  0.00  0.00    -0.110 S 
BRANCH  15  16
ATOM     16  C   UNL     1      -1.560  -0.798  -7.051  0.00  0.00    +0.045 A 
ATOM     17  C   UNL     1      -2.539  -0.610  -7.981  0.00  0.00    +0.022 A 
ATOM     18  C   UNL     1      -2.172  -0.333  -9.286  0.00  0.00    +0.009 A 
ATOM     19  C   UNL     1      -0.857  -0.257  -9.598  0.00  0.00    +0.046 A 
ATOM     20  S   UNL     1      -0.080  -0.575  -8.023  0.00  0.00    -0.090 S 
ENDBRANCH  15  16
ENDBRANCH  14  15
ENDBRANCH   9  14
TORSDOF 4
