REMARK  Name = ZINC36367272
REMARK  7 active torsions:
REMARK  status: ('A' for Active; 'I' for Inactive)
REMARK    1  A    between atoms: C_1  and  C_2
REMARK    2  A    between atoms: C_2  and  C_3
REMARK    3  A    between atoms: C_2  and  O_4
REMARK    4  A    between atoms: O_4  and  C_5
REMARK    5  A    between atoms: C_7  and  C_13
REMARK    6  A    between atoms: C_10  and  O_11
REMARK    7  A    between atoms: O_11  and  C_12
REMARK                            x       y       z     vdW  Elec       q    Type
REMARK                         _______ _______ _______ _____ _____    ______ ____
ROOT
ATOM      1  C   UNL     1       4.788  -0.134   1.427  0.00  0.00    +0.068 C 
ATOM      2  C   UNL     1       5.589  -1.377   1.839  0.00  0.00    +0.109 C 
ATOM      3  C   UNL     1       6.646  -1.017   2.845  0.00  0.00    +0.219 C 
ATOM      4  O   UNL     1       6.878  -1.798   3.743  0.00  0.00    -0.275 OA
ATOM      5  N   UNL     1       7.348   0.130   2.797  0.00  0.00    -0.270 N 
ATOM      6  C   UNL     1       6.943   1.139   1.885  0.00  0.00    +0.138 A 
ATOM      7  C   UNL     1       5.741   0.996   1.251  0.00  0.00    +0.041 A 
ATOM      8  S   UNL     1       5.664   2.443   0.240  0.00  0.00    -0.055 S 
ATOM      9  C   UNL     1       7.133   3.123   0.714  0.00  0.00    +0.158 A 
ATOM     10  N   UNL     1       7.607   2.247   1.580  0.00  0.00    -0.210 NA
ATOM     11  N   UNL     1       7.705   4.312   0.293  0.00  0.00    -0.337 N 
ATOM     12  H   UNL     1       8.115   0.264   3.374  0.00  0.00    +0.156 HD
ATOM     13  H   UNL     1       7.247   4.868  -0.356  0.00  0.00    +0.144 HD
ATOM     14  H   UNL     1       8.565   4.590   0.649  0.00  0.00    +0.144 HD
ENDROOT
BRANCH   1  17
ATOM     15  C   UNL     1       2.027  -0.553  -1.118  0.00  0.00    +0.163 A 
ATOM     16  C   UNL     1       2.690  -0.309   0.074  0.00  0.00    +0.053 A 
ATOM     17  C   UNL     1       4.068  -0.399   0.130  0.00  0.00    -0.035 A 
ATOM     18  C   UNL     1       4.788  -0.732  -1.002  0.00  0.00    +0.008 A 
ATOM     19  C   UNL     1       4.133  -0.977  -2.195  0.00  0.00    +0.050 A 
ATOM     20  C   UNL     1       2.751  -0.894  -2.256  0.00  0.00    +0.162 A 
BRANCH  20  21
ATOM     21  O   UNL     1       2.105  -1.140  -3.427  0.00  0.00    -0.491 OA
ATOM     22  C   UNL     1       2.913  -1.484  -4.554  0.00  0.00    +0.277 C 
ENDBRANCH  20  21
BRANCH  15  23
ATOM     23  O   UNL     1       0.671  -0.465  -1.174  0.00  0.00    -0.486 OA
BRANCH  23  25
ATOM     24  C   UNL     1      -0.051   1.266   0.351  0.00  0.00    +0.051 C 
ATOM     25  C   UNL     1      -0.016  -0.236   0.058  0.00  0.00    +0.167 C 
ATOM     26  C   UNL     1      -1.446  -0.768  -0.049  0.00  0.00    +0.051 C 
ENDBRANCH  23  25
ENDBRANCH  15  23
ENDBRANCH   1  17
TORSDOF 4
