REMARK  Name = ZINC37503841
REMARK  5 active torsions:
REMARK  status: ('A' for Active; 'I' for Inactive)
REMARK    1  A    between atoms: C_3  and  N_11
REMARK    2  A    between atoms: C_5  and  S_7
REMARK    3  A    between atoms: S_7  and  N_10
REMARK    4  A    between atoms: N_11  and  C_12
REMARK    5  A    between atoms: C_12  and  C_13
REMARK                            x       y       z     vdW  Elec       q    Type
REMARK                         _______ _______ _______ _____ _____    ______ ____
ROOT
ATOM      1  C   UNL     1      -0.017   1.378   0.010  0.00  0.00    +0.004 A 
ATOM      2  C   UNL     1       1.169   2.087   0.002  0.00  0.00    +0.023 A 
ATOM      3  C   UNL     1       2.381   1.409  -0.013  0.00  0.00    +0.029 A 
ATOM      4  C   UNL     1       2.396   0.020  -0.021  0.00  0.00    +0.051 A 
ATOM      5  C   UNL     1       1.207  -0.682  -0.013  0.00  0.00    +0.107 A 
ATOM      6  C   UNL     1       0.002  -0.004   0.002  0.00  0.00    +0.028 A 
ENDROOT
BRANCH   5   7
ATOM      7  S   UNL     1       1.225  -2.444  -0.023  0.00  0.00    +0.056 S 
ATOM      8  O   UNL     1      -0.021  -2.860  -0.565  0.00  0.00    -0.153 OA
ATOM      9  O   UNL     1       2.469  -2.834  -0.589  0.00  0.00    -0.153 OA
BRANCH   7  10
ATOM     10  N   UNL     1       1.246  -2.943   1.556  0.00  0.00    -0.204 NA
ATOM     11  H   UNL     1       1.246  -2.288   2.271  0.00  0.00    +0.144 HD
ATOM     12  H   UNL     1       1.258  -3.890   1.765  0.00  0.00    +0.144 HD
ENDBRANCH   7  10
ENDBRANCH   5   7
BRANCH   3  13
ATOM     13  N   UNL     1       3.582   2.122  -0.021  0.00  0.00    -0.337 N 
ATOM     14  H   UNL     1       4.428   1.647  -0.032  0.00  0.00    +0.147 HD
BRANCH  13  15
ATOM     15  C   UNL     1       3.564   3.587  -0.014  0.00  0.00    +0.176 C 
BRANCH  15  16
ATOM     16  C   UNL     1       4.979   4.107  -0.025  0.00  0.00    +0.124 A 
ATOM     17  C   UNL     1       5.704   4.388  -1.122  0.00  0.00    +0.048 A 
ATOM     18  C   UNL     1       6.965   4.845  -0.673  0.00  0.00    +0.062 A 
ATOM     19  C   UNL     1       6.934   4.815   0.673  0.00  0.00    +0.194 A 
ATOM     20  O   UNL     1       5.726   4.372   1.060  0.00  0.00    -0.447 OA
ATOM     21 CL   UNL     1       8.232   5.277   1.729  0.00  0.00    -0.043 Cl
ENDBRANCH  15  16
ENDBRANCH  13  15
ENDBRANCH   3  13
TORSDOF 5
