REMARK  Name = ZINC63571767
REMARK  2 active torsions:
REMARK  status: ('A' for Active; 'I' for Inactive)
REMARK    1  A    between atoms: C_8  and  C_27
REMARK    2  A    between atoms: N_18  and  C_19
REMARK                            x       y       z     vdW  Elec       q    Type
REMARK                         _______ _______ _______ _____ _____    ______ ____
ROOT
ATOM      1  C   UNL     1      -1.195   0.477   0.558  0.00  0.00    +0.001 A 
ATOM      2  C   UNL     1      -0.170   1.258   1.109  0.00  0.00    +0.002 A 
ATOM      3  C   UNL     1       1.066   0.772   1.350  0.00  0.00    +0.026 A 
ATOM      4  C   UNL     1       1.381  -0.580   1.046  0.00  0.00    +0.043 A 
ATOM      5  N   UNL     1       2.495  -1.266   1.167  0.00  0.00    -0.375 N 
ATOM      6  C   UNL     1       2.235  -2.647   0.770  0.00  0.00    +0.131 C 
ATOM      7  C   UNL     1       3.161  -3.100  -0.365  0.00  0.00    +0.134 C 
ATOM      8  N   UNL     1       2.581  -4.312  -0.964  0.00  0.00    -0.276 N 
ATOM      9  C   UNL     1       1.241  -4.283  -1.560  0.00  0.00    +0.114 C 
ATOM     10  C   UNL     1       0.220  -3.835  -0.498  0.00  0.00    +0.052 C 
ATOM     11  C   UNL     1       0.813  -2.652   0.234  0.00  0.00    -0.035 C 
ATOM     12  C   UNL     1       0.316  -1.427   0.454  0.00  0.00    -0.001 A 
ATOM     13  C   UNL     1      -1.002  -0.820   0.229  0.00  0.00    +0.010 A 
ATOM     14  C   UNL     1       3.287  -5.460  -0.965  0.00  0.00    +0.307 C 
ATOM     15  O   UNL     1       4.359  -5.515  -0.393  0.00  0.00    -0.252 OA
ATOM     16  N   UNL     1       2.806  -6.547  -1.600  0.00  0.00    -0.267 N 
ATOM     17  H   UNL     1       1.989  -6.483  -2.119  0.00  0.00    +0.156 HD
ATOM     18  H   UNL     1       3.347  -0.913   1.468  0.00  0.00    +0.160 HD
ENDROOT
BRANCH  16  19
ATOM     19  C   UNL     1       3.485  -7.769  -1.510  0.00  0.00    +0.070 A 
ATOM     20  C   UNL     1       4.849  -7.789  -1.254  0.00  0.00    +0.027 A 
ATOM     21  C   UNL     1       5.517  -8.995  -1.165  0.00  0.00    +0.017 A 
ATOM     22  C   UNL     1       4.828 -10.184  -1.332  0.00  0.00    +0.021 A 
ATOM     23  C   UNL     1       3.469 -10.169  -1.587  0.00  0.00    +0.055 A 
ATOM     24  C   UNL     1       2.793  -8.964  -1.671  0.00  0.00    +0.146 A 
ATOM     25  F   UNL     1       1.465  -8.949  -1.915  0.00  0.00    -0.204 F 
ATOM     26 BR   UNL     1       5.747 -11.832  -1.210  0.00  0.00    -0.050 Br
ENDBRANCH  16  19
BRANCH   7  27
ATOM     27  C   UNL     1       3.262  -2.014  -1.405  0.00  0.00    -0.025 A 
ATOM     28  C   UNL     1       2.129  -1.595  -2.077  0.00  0.00    +0.008 A 
ATOM     29  C   UNL     1       2.220  -0.599  -3.031  0.00  0.00    +0.038 A 
ATOM     30  C   UNL     1       3.447  -0.021  -3.312  0.00  0.00    +0.123 A 
ATOM     31  C   UNL     1       4.580  -0.442  -2.638  0.00  0.00    +0.038 A 
ATOM     32  C   UNL     1       4.486  -1.434  -1.681  0.00  0.00    +0.008 A 
ATOM     33  F   UNL     1       3.537   0.953  -4.245  0.00  0.00    -0.205 F 
ENDBRANCH   7  27
TORSDOF 2
