REMARK  Name = ZINC10911334
REMARK  5 active torsions:
REMARK  status: ('A' for Active; 'I' for Inactive)
REMARK    1  A    between atoms: C_3  and  C_7
REMARK    2  A    between atoms: C_7  and  C_9
REMARK    3  A    between atoms: C_9  and  N_10
REMARK    4  A    between atoms: C_11  and  C_20
REMARK    5  A    between atoms: C_14  and  C_17
REMARK                            x       y       z     vdW  Elec       q    Type
REMARK                         _______ _______ _______ _____ _____    ______ ____
ROOT
ATOM      1  N   UNL     1      -0.020   3.836   0.011  0.00  0.00    -0.296 N 
ATOM      2  C   UNL     1       1.152   3.157   0.013  0.00  0.00    +0.126 A 
ATOM      3  C   UNL     1       1.179   1.800   0.021  0.00  0.00    +0.031 A 
ATOM      4  C   UNL     1      -0.013   1.075   0.027  0.00  0.00    +0.020 A 
ATOM      5  C   UNL     1      -1.222   1.767   0.020  0.00  0.00    +0.101 A 
ATOM      6  C   UNL     1      -1.199   3.186   0.017  0.00  0.00    +0.264 A 
ATOM      7  O   UNL     1      -2.244   3.814   0.014  0.00  0.00    -0.267 OA
ENDROOT
BRANCH   5   8
ATOM      8  C   UNL     1      -2.500   1.039   0.019  0.00  0.00    +0.247 C 
ATOM      9  O   UNL     1      -2.510  -0.173  -0.081  0.00  0.00    -0.270 OA
ATOM     10  N   UNL     1      -3.661   1.715   0.130  0.00  0.00    -0.325 N 
ATOM     11  H   UNL     1      -3.659   2.685   0.136  0.00  0.00    +0.145 HD
ATOM     12  H   UNL     1      -4.499   1.232   0.204  0.00  0.00    +0.145 HD
ENDBRANCH   5   8
BRANCH   2  13
ATOM     13  C   UNL     1       2.450   3.923   0.006  0.00  0.00    +0.433 C 
ATOM     14  F   UNL     1       3.522   3.024   0.009  0.00  0.00    -0.164 F 
ATOM     15  F   UNL     1       2.514   4.721  -1.141  0.00  0.00    -0.164 F 
ATOM     16  F   UNL     1       2.519   4.735   1.143  0.00  0.00    -0.164 F 
ENDBRANCH   2  13
BRANCH   1  17
ATOM     17  C   UNL     1      -0.005   5.301   0.003  0.00  0.00    +0.206 C 
BRANCH  17  18
ATOM     18  C   UNL     1      -0.002   5.795  -1.421  0.00  0.00    +0.199 C 
ATOM     19  O   UNL     1      -0.012   5.000  -2.339  0.00  0.00    -0.289 OA
BRANCH  18  22
ATOM     20  C   UNL     1       0.036   9.404  -1.449  0.00  0.00    +0.020 A 
ATOM     21  C   UNL     1       0.018   8.198  -0.746  0.00  0.00    +0.030 A 
ATOM     22  C   UNL     1       0.012   7.183  -1.688  0.00  0.00    +0.084 A 
ATOM     23  N   UNL     1       0.016   7.775  -2.933  0.00  0.00    -0.358 N 
ATOM     24  H   UNL     1       0.010   7.306  -3.782  0.00  0.00    +0.165 HD
ATOM     25  C   UNL     1       0.030   9.114  -2.775  0.00  0.00    +0.083 A 
ENDBRANCH  18  22
ENDBRANCH  17  18
ENDBRANCH   1  17
TORSDOF 5
