REMARK  Name = ZINC43399516
REMARK  4 active torsions:
REMARK  status: ('A' for Active; 'I' for Inactive)
REMARK    1  A    between atoms: C_1  and  C_2
REMARK    2  A    between atoms: C_5  and  C_17
REMARK    3  A    between atoms: C_6  and  N_8
REMARK    4  A    between atoms: N_18  and  O_19
REMARK                            x       y       z     vdW  Elec       q    Type
REMARK                         _______ _______ _______ _____ _____    ______ ____
ROOT
ATOM      1  C   UNL     1      -0.064   1.517  -0.330  0.00  0.00    +0.065 C 
ATOM      2  C   UNL     1      -0.017   0.021  -0.151  0.00  0.00    +0.040 A 
ATOM      3  C   UNL     1       0.010  -0.796  -1.266  0.00  0.00    +0.024 A 
ATOM      4  C   UNL     1       0.053  -2.170  -1.103  0.00  0.00    +0.016 A 
ATOM      5  C   UNL     1       0.068  -2.685   0.196  0.00  0.00    +0.058 A 
ATOM      6  C   UNL     1       0.039  -1.792   1.278  0.00  0.00    +0.136 A 
ATOM      7  N   UNL     1       0.003  -0.485   1.067  0.00  0.00    -0.236 NA
ENDROOT
BRANCH   6   8
ATOM      8  N   UNL     1       0.053  -2.280   2.576  0.00  0.00    -0.284 N 
ATOM      9  C   UNL     1       1.254  -2.441   3.400  0.00  0.00    +0.117 C 
ATOM     10  C   UNL     1       0.753  -3.008   4.738  0.00  0.00    +0.056 C 
ATOM     11  C   UNL     1      -0.744  -3.129   4.562  0.00  0.00    -0.025 A 
ATOM     12  C   UNL     1      -1.076  -2.685   3.291  0.00  0.00    +0.038 A 
ATOM     13  C   UNL     1      -2.416  -2.697   2.898  0.00  0.00    +0.024 A 
ATOM     14  C   UNL     1      -3.391  -3.141   3.765  0.00  0.00    +0.002 A 
ATOM     15  C   UNL     1      -3.050  -3.578   5.032  0.00  0.00    +0.000 A 
ATOM     16  C   UNL     1      -1.724  -3.577   5.426  0.00  0.00    +0.005 A 
ENDBRANCH   6   8
BRANCH   5  17
ATOM     17  C   UNL     1       0.114  -4.144   0.427  0.00  0.00    +0.166 C 
ATOM     18  N   UNL     1       0.234  -4.609   1.637  0.00  0.00    -0.071 NA
ATOM     19  N   UNL     1       0.028  -5.018  -0.644  0.00  0.00    -0.340 N 
ATOM     20  H   UNL     1      -0.062  -4.672  -1.546  0.00  0.00    +0.144 HD
ATOM     21  H   UNL     1       0.058  -5.975  -0.493  0.00  0.00    +0.144 HD
BRANCH  18  22
ATOM     22  O   UNL     1       0.386  -6.001   1.849  0.00  0.00    -0.408 OA
ATOM     23  H   UNL     1       0.544  -6.243   2.772  0.00  0.00    +0.328 HD
ENDBRANCH  18  22
ENDBRANCH   5  17
TORSDOF 3
