REMARK  Name = ZINC58466931
REMARK  4 active torsions:
REMARK  status: ('A' for Active; 'I' for Inactive)
REMARK    1  A    between atoms: C_4  and  O_7
REMARK    2  A    between atoms: O_7  and  C_8
REMARK    3  A    between atoms: C_13  and  N_14
REMARK    4  A    between atoms: N_17  and  C_18
REMARK                            x       y       z     vdW  Elec       q    Type
REMARK                         _______ _______ _______ _____ _____    ______ ____
ROOT
ATOM      1  N   UNL     1       5.929  -1.934   0.114  0.00  0.00    -0.266 N 
ATOM      2  C   UNL     1       7.083  -2.631   0.102  0.00  0.00    +0.304 C 
ATOM      3  O   UNL     1       7.061  -3.844   0.190  0.00  0.00    -0.252 OA
ATOM      4  N   UNL     1       8.260  -1.984  -0.009  0.00  0.00    -0.292 N 
ATOM      5  H   UNL     1       5.948  -0.964   0.101  0.00  0.00    +0.156 HD
ATOM      6  H   UNL     1       8.277  -1.017  -0.079  0.00  0.00    +0.151 HD
ENDROOT
BRANCH   4   7
ATOM      7  C   UNL     1       9.514  -2.741  -0.022  0.00  0.00    +0.111 C 
ATOM      8  C   UNL     1      10.655  -1.846   0.466  0.00  0.00    +0.068 C 
ATOM      9  C   UNL     1      11.983  -2.552   0.166  0.00  0.00    +0.231 C 
ATOM     10  O   UNL     1      12.127  -2.658  -1.251  0.00  0.00    -0.492 OA
ATOM     11  C   UNL     1      11.076  -3.149  -1.960  0.00  0.00    +0.125 A 
ATOM     12  C   UNL     1       9.802  -3.210  -1.426  0.00  0.00    +0.015 A 
ATOM     13  C   UNL     1       8.760  -3.713  -2.187  0.00  0.00    +0.009 A 
ATOM     14  C   UNL     1       8.989  -4.154  -3.476  0.00  0.00    +0.001 A 
ATOM     15  C   UNL     1      10.262  -4.096  -4.011  0.00  0.00    +0.004 A 
ATOM     16  C   UNL     1      11.303  -3.597  -3.257  0.00  0.00    +0.046 A 
ENDBRANCH   4   7
BRANCH   1  22
ATOM     17  C   UNL     1       3.596  -2.082  -0.515  0.00  0.00    +0.150 A 
ATOM     18  C   UNL     1       2.387  -2.758  -0.486  0.00  0.00    +0.048 A 
ATOM     19  C   UNL     1       2.279  -3.952   0.203  0.00  0.00    +0.004 A 
ATOM     20  C   UNL     1       3.375  -4.474   0.864  0.00  0.00    +0.002 A 
ATOM     21  C   UNL     1       4.585  -3.806   0.840  0.00  0.00    +0.027 A 
ATOM     22  C   UNL     1       4.702  -2.611   0.146  0.00  0.00    +0.077 A 
BRANCH  17  23
ATOM     23  O   UNL     1       3.703  -0.907  -1.192  0.00  0.00    -0.454 OA
BRANCH  23  27
ATOM     24  C   UNL     1       0.273   0.722  -2.803  0.00  0.00    +0.000 A 
ATOM     25  C   UNL     1       0.422   0.645  -1.430  0.00  0.00    +0.004 A 
ATOM     26  C   UNL     1       1.570   0.100  -0.888  0.00  0.00    +0.046 A 
ATOM     27  C   UNL     1       2.573  -0.371  -1.723  0.00  0.00    +0.129 A 
ATOM     28  C   UNL     1       2.421  -0.293  -3.100  0.00  0.00    +0.046 A 
ATOM     29  C   UNL     1       1.271   0.254  -3.636  0.00  0.00    +0.004 A 
ENDBRANCH  23  27
ENDBRANCH  17  23
ENDBRANCH   1  22
TORSDOF 4
