REMARK  Name = ZINC37421329
REMARK  1 active torsions:
REMARK  status: ('A' for Active; 'I' for Inactive)
REMARK    1  A    between atoms: C_5  and  N_7
REMARK                            x       y       z     vdW  Elec       q    Type
REMARK                         _______ _______ _______ _____ _____    ______ ____
ROOT
ATOM      1  N   UNL     1       1.237  -2.082  -0.022  0.00  0.00    -0.280 N 
ATOM      2  C   UNL     1       1.256  -2.912   1.089  0.00  0.00    +0.078 A 
ATOM      3  C   UNL     1       1.259  -2.686   2.457  0.00  0.00    +0.028 A 
ATOM      4  C   UNL     1       1.281  -3.753   3.330  0.00  0.00    +0.005 A 
ATOM      5  C   UNL     1       1.299  -5.054   2.849  0.00  0.00    +0.040 A 
ATOM      6  C   UNL     1       1.296  -5.298   1.492  0.00  0.00    +0.151 A 
ATOM      7  C   UNL     1       1.274  -4.225   0.595  0.00  0.00    +0.126 A 
ATOM      8  N   UNL     1       1.266  -4.144  -0.763  0.00  0.00    -0.211 NA
ATOM      9  C   UNL     1       1.238  -2.887  -1.129  0.00  0.00    +0.199 A 
ATOM     10  N   UNL     1       1.217  -2.441  -2.434  0.00  0.00    -0.329 N 
ATOM     11  F   UNL     1       1.314  -6.568   1.031  0.00  0.00    -0.203 F 
ATOM     12  H   UNL     1       1.200  -1.490  -2.621  0.00  0.00    +0.145 HD
ATOM     13  H   UNL     1       1.219  -3.079  -3.164  0.00  0.00    +0.145 HD
ENDROOT
BRANCH   1  18
ATOM     14  C   UNL     1      -0.017   1.377   0.010  0.00  0.00    +0.002 A 
ATOM     15  C   UNL     1       1.171   2.086   0.002  0.00  0.00    +0.001 A 
ATOM     16  C   UNL     1       2.380   1.416  -0.013  0.00  0.00    +0.016 A 
ATOM     17  C   UNL     1       2.405   0.034  -0.022  0.00  0.00    +0.037 A 
ATOM     18  C   UNL     1       1.214  -0.680  -0.014  0.00  0.00    +0.063 A 
ATOM     19  C   UNL     1       0.002  -0.004   0.002  0.00  0.00    +0.027 A 
ATOM     20  I   UNL     1       4.238  -0.981  -0.047  0.00  0.00    -0.042 I 
ENDBRANCH   1  18
TORSDOF 1
