REMARK  Name = ZINC49299946
REMARK  4 active torsions:
REMARK  status: ('A' for Active; 'I' for Inactive)
REMARK    1  A    between atoms: C_1  and  C_2
REMARK    2  A    between atoms: C_5  and  N_9
REMARK    3  A    between atoms: N_12  and  C_13
REMARK    4  A    between atoms: C_13  and  C_14
REMARK                            x       y       z     vdW  Elec       q    Type
REMARK                         _______ _______ _______ _____ _____    ______ ____
ROOT
ATOM      1  N   UNL     1       0.059  -4.171  -0.023  0.00  0.00    -0.268 N 
ATOM      2  C   UNL     1      -0.039  -4.839  -1.189  0.00  0.00    +0.304 C 
ATOM      3  O   UNL     1      -0.053  -4.229  -2.240  0.00  0.00    -0.252 OA
ATOM      4  N   UNL     1      -0.122  -6.184  -1.190  0.00  0.00    -0.295 N 
ATOM      5  H   UNL     1       0.153  -4.660   0.810  0.00  0.00    +0.156 HD
ATOM      6  H   UNL     1      -0.111  -6.671  -0.351  0.00  0.00    +0.151 HD
ENDROOT
BRANCH   1  11
ATOM      7  C   UNL     1      -0.072   1.502   0.016  0.00  0.00    +0.044 C 
ATOM      8  C   UNL     1      -0.037  -0.005   0.006  0.00  0.00    -0.049 A 
ATOM      9  C   UNL     1      -0.627  -0.702  -1.032  0.00  0.00    +0.005 A 
ATOM     10  C   UNL     1      -0.597  -2.083  -1.045  0.00  0.00    +0.025 A 
ATOM     11  C   UNL     1       0.027  -2.771  -0.013  0.00  0.00    +0.049 A 
ATOM     12  C   UNL     1       0.619  -2.069   1.029  0.00  0.00    +0.039 A 
ATOM     13  C   UNL     1       0.590  -0.687   1.032  0.00  0.00    +0.020 A 
ATOM     14 BR   UNL     1       1.471  -3.001   2.436  0.00  0.00    -0.048 Br
ENDBRANCH   1  11
BRANCH   4  15
ATOM     15  C   UNL     1      -0.229  -6.911  -2.457  0.00  0.00    +0.148 C 
BRANCH  15  16
ATOM     16  C   UNL     1      -0.307  -8.391  -2.183  0.00  0.00    +0.006 C 
ATOM     17  C   UNL     1      -1.396  -9.057  -2.485  0.00  0.00    +0.021 C 
ATOM     18 BR   UNL     1       1.164  -9.287  -1.404  0.00  0.00    -0.054 Br
ENDBRANCH  15  16
ENDBRANCH   4  15
TORSDOF 3
