REMARK  Name = ZINC59293853
REMARK  8 active torsions:
REMARK  status: ('A' for Active; 'I' for Inactive)
REMARK    1  A    between atoms: C_1  and  O_2
REMARK    2  A    between atoms: O_2  and  C_3
REMARK    3  A    between atoms: C_3  and  C_5
REMARK    4  A    between atoms: C_6  and  N_30
REMARK    5  A    between atoms: C_10  and  C_26
REMARK    6  A    between atoms: C_14  and  C_24
REMARK    7  A    between atoms: C_15  and  C_17
REMARK    8  A    between atoms: C_26  and  C_27
REMARK                            x       y       z     vdW  Elec       q    Type
REMARK                         _______ _______ _______ _____ _____    ______ ____
ROOT
ATOM      1  C   UNL     1       0.587  -2.003  -1.157  0.00  0.00    +0.085 C 
ATOM      2  C   UNL     1       1.181  -2.570  -2.240  0.00  0.00    +0.106 C 
ATOM      3  N   UNL     1       1.257  -3.968  -2.322  0.00  0.00    -0.220 N 
ATOM      4  C   UNL     1       2.091  -4.610  -3.143  0.00  0.00    +0.239 C 
ATOM      5  O   UNL     1       2.881  -4.013  -3.841  0.00  0.00    -0.274 OA
ATOM      6  C   UNL     1       2.001  -6.128  -3.158  0.00  0.00    +0.150 C 
ATOM      7  S   UNL     1       0.504  -6.365  -2.106  0.00  0.00    -0.095 S 
ATOM      8  C   UNL     1       0.434  -4.711  -1.470  0.00  0.00    +0.091 C 
ATOM      9  C   UNL     1      -0.215  -4.223  -0.394  0.00  0.00    +0.070 C 
ATOM     10  C   UNL     1       0.062  -2.790   0.009  0.00  0.00    +0.103 C 
ENDROOT
BRANCH  10  11
ATOM     11  C   UNL     1       1.082  -2.770   1.118  0.00  0.00    -0.016 A 
ATOM     12  C   UNL     1       2.349  -3.280   0.903  0.00  0.00    +0.006 A 
ATOM     13  C   UNL     1       3.284  -3.261   1.921  0.00  0.00    +0.000 A 
ATOM     14  C   UNL     1       2.952  -2.733   3.155  0.00  0.00    +0.001 A 
ATOM     15  C   UNL     1       1.686  -2.224   3.372  0.00  0.00    +0.020 A 
ATOM     16  C   UNL     1       0.752  -2.236   2.351  0.00  0.00    +0.045 A 
ATOM     17 CL   UNL     1      -0.837  -1.590   2.621  0.00  0.00    -0.083 Cl
ENDBRANCH  10  11
BRANCH   2  18
ATOM     18  N   UNL     1       1.700  -1.786  -3.237  0.00  0.00    -0.345 N 
ATOM     19  H   UNL     1       1.761  -0.825  -3.117  0.00  0.00    +0.143 HD
ATOM     20  H   UNL     1       2.006  -2.192  -4.063  0.00  0.00    +0.143 HD
ENDBRANCH   2  18
BRANCH   1  21
ATOM     21  C   UNL     1       0.460  -0.606  -1.125  0.00  0.00    +0.339 C 
ATOM     22  O   UNL     1      -0.604  -0.084  -1.405  0.00  0.00    -0.245 OA
BRANCH  21  24
ATOM     23  C   UNL     1       1.319   1.575  -0.771  0.00  0.00    +0.280 C 
ATOM     24  O   UNL     1       1.519   0.160  -0.783  0.00  0.00    -0.465 OA
ENDBRANCH  21  24
ENDBRANCH   1  21
BRANCH   9  25
ATOM     25  C   UNL     1      -1.134  -5.035   0.346  0.00  0.00    +0.098 C 
ATOM     26  N   UNL     1      -1.863  -5.679   0.933  0.00  0.00    -0.191 NA
ENDBRANCH   9  25
BRANCH   6  27
ATOM     27  C   UNL     1       3.238  -6.765  -2.520  0.00  0.00    +0.149 C 
BRANCH  27  28
ATOM     28  C   UNL     1       3.163  -8.263  -2.667  0.00  0.00    +0.358 C 
ATOM     29  O   UNL     1       2.209  -8.774  -3.229  0.00  0.00    -0.246 OA
ATOM     30  O   UNL     1       4.056  -8.965  -2.223  0.00  0.00    -0.246 OA
ENDBRANCH  27  28
ENDBRANCH   6  27
TORSDOF 7
