REMARK  Name = ZINC11266448
REMARK  4 active torsions:
REMARK  status: ('A' for Active; 'I' for Inactive)
REMARK    1  A    between atoms: C_1  and  C_2
REMARK    2  A    between atoms: C_2  and  C_20
REMARK    3  A    between atoms: N_5  and  C_9
REMARK    4  A    between atoms: C_9  and  C_10
REMARK                            x       y       z     vdW  Elec       q    Type
REMARK                         _______ _______ _______ _____ _____    ______ ____
ROOT
ATOM      1  C   UNL     1      -2.345   4.033  -2.811  0.00  0.00    +0.047 C 
ATOM      2  C   UNL     1      -1.423   2.820  -2.958  0.00  0.00    +0.135 C 
ATOM      3  C   UNL     1      -0.456   2.741  -1.793  0.00  0.00    +0.251 C 
ATOM      4  O   UNL     1       0.381   3.560  -1.479  0.00  0.00    -0.272 OA
ATOM      5  N   UNL     1      -0.721   1.571  -1.179  0.00  0.00    -0.220 N 
ATOM      6  C   UNL     1      -1.708   0.905  -1.790  0.00  0.00    +0.310 C 
ATOM      7  O   UNL     1      -2.121  -0.177  -1.422  0.00  0.00    -0.252 OA
ATOM      8  N   UNL     1      -2.193   1.569  -2.855  0.00  0.00    -0.281 N 
ATOM      9  H   UNL     1      -2.908   1.278  -3.443  0.00  0.00    +0.152 HD
ENDROOT
BRANCH   2  10
ATOM     10  C   UNL     1      -0.675   2.877  -4.265  0.00  0.00    -0.014 A 
ATOM     11  C   UNL     1      -1.243   2.348  -5.410  0.00  0.00    +0.006 A 
ATOM     12  C   UNL     1      -0.558   2.400  -6.609  0.00  0.00    +0.001 A 
ATOM     13  C   UNL     1       0.696   2.981  -6.664  0.00  0.00    +0.015 A 
ATOM     14  C   UNL     1       1.264   3.509  -5.520  0.00  0.00    +0.018 A 
ATOM     15  C   UNL     1       0.576   3.462  -4.321  0.00  0.00    +0.021 A 
ATOM     16 BR   UNL     1       2.979   4.303  -5.595  0.00  0.00    -0.050 Br
ENDBRANCH   2  10
BRANCH   5  17
ATOM     17  C   UNL     1      -0.013   1.086   0.008  0.00  0.00    +0.153 C 
BRANCH  17  18
ATOM     18  C   UNL     1      -0.718   1.572   1.248  0.00  0.00    -0.025 A 
ATOM     19  C   UNL     1      -0.358   2.779   1.817  0.00  0.00    +0.054 A 
ATOM     20  C   UNL     1      -1.008   3.231   2.955  0.00  0.00    +0.168 A 
ATOM     21  C   UNL     1      -2.017   2.461   3.528  0.00  0.00    +0.184 A 
ATOM     22  C   UNL     1      -2.369   1.249   2.955  0.00  0.00    +0.087 A 
ATOM     23  C   UNL     1      -1.719   0.807   1.816  0.00  0.00    +0.029 A 
ATOM     24 CL   UNL     1      -3.626   0.285   3.667  0.00  0.00    -0.080 Cl
ATOM     25  O   UNL     1      -2.491   3.113   4.630  0.00  0.00    -0.451 OA
ATOM     26  C   UNL     1      -1.488   4.092   4.958  0.00  0.00    +0.466 C 
ATOM     27  O   UNL     1      -0.851   4.366   3.696  0.00  0.00    -0.453 OA
ENDBRANCH  17  18
ENDBRANCH   5  17
TORSDOF 3
