REMARK  Name = ZINC43069762
REMARK  8 active torsions:
REMARK  status: ('A' for Active; 'I' for Inactive)
REMARK    1  A    between atoms: C_1  and  C_2
REMARK    2  A    between atoms: C_2  and  C_4
REMARK    3  A    between atoms: C_2  and  N_7
REMARK    4  A    between atoms: C_4  and  C_5
REMARK    5  A    between atoms: C_4  and  C_6
REMARK    6  A    between atoms: N_10  and  N_11
REMARK    7  A    between atoms: C_12  and  C_14
REMARK    8  A    between atoms: N_18  and  C_19
REMARK                            x       y       z     vdW  Elec       q    Type
REMARK                         _______ _______ _______ _____ _____    ______ ____
ROOT
ATOM      1  N   UNL     1       0.971   0.446  -1.444  0.00  0.00    -0.295 N 
ATOM      2  C   UNL     1       0.313   0.386  -2.618  0.00  0.00    +0.316 C 
ATOM      3  O   UNL     1      -0.800   0.867  -2.716  0.00  0.00    -0.251 OA
ATOM      4  N   UNL     1       0.887  -0.206  -3.684  0.00  0.00    -0.218 N 
ATOM      5  H   UNL     1       1.859   0.062  -1.365  0.00  0.00    +0.151 HD
ATOM      6  H   UNL     1       0.413  -0.249  -4.529  0.00  0.00    +0.174 HD
ENDROOT
BRANCH   4   7
ATOM      7  N   UNL     1       2.169  -0.760  -3.571  0.00  0.00    -0.228 N 
ATOM      8  C   UNL     1       2.744  -1.352  -4.636  0.00  0.00    +0.277 C 
ATOM      9  O   UNL     1       2.112  -1.497  -5.666  0.00  0.00    -0.267 OA
ATOM     10  H   UNL     1       2.643  -0.717  -2.725  0.00  0.00    +0.173 HD
BRANCH   8  11
ATOM     11  C   UNL     1       4.131  -1.821  -4.555  0.00  0.00    +0.107 A 
ATOM     12  C   UNL     1       4.935  -1.798  -3.435  0.00  0.00    +0.047 A 
ATOM     13  C   UNL     1       6.171  -2.339  -3.804  0.00  0.00    +0.036 A 
ATOM     14  C   UNL     1       6.102  -2.675  -5.115  0.00  0.00    +0.101 A 
ATOM     15  N   UNL     1       4.866  -2.370  -5.582  0.00  0.00    -0.345 N 
ATOM     16  C   UNL     1       4.391  -2.587  -6.951  0.00  0.00    +0.149 C 
ATOM     17 BR   UNL     1       7.672  -2.560  -2.675  0.00  0.00    -0.049 Br
ENDBRANCH   8  11
ENDBRANCH   4   7
BRANCH   1  19
ATOM     18  C   UNL     1       0.605   2.597  -0.339  0.00  0.00    +0.028 C 
ATOM     19  C   UNL     1       0.347   1.089  -0.285  0.00  0.00    +0.074 C 
BRANCH  19  20
ATOM     20  C   UNL     1       0.944   0.515   1.001  0.00  0.00    +0.003 C 
ATOM     21  C   UNL     1       2.426   0.883   1.084  0.00  0.00    +0.009 C 
ATOM     22  C   UNL     1       0.206   1.095   2.209  0.00  0.00    +0.009 C 
ENDBRANCH  19  20
ENDBRANCH   1  19
TORSDOF 4
