REMARK  Name = ZINC12182877
REMARK  8 active torsions:
REMARK  status: ('A' for Active; 'I' for Inactive)
REMARK    1  A    between atoms: C_1  and  C_2
REMARK    2  A    between atoms: C_5  and  C_7
REMARK    3  A    between atoms: C_9  and  N_28
REMARK    4  A    between atoms: N_12  and  C_14
REMARK    5  A    between atoms: C_14  and  C_15
REMARK    6  A    between atoms: N_17  and  C_18
REMARK    7  A    between atoms: C_23  and  O_24
REMARK    8  A    between atoms: O_24  and  C_25
REMARK                            x       y       z     vdW  Elec       q    Type
REMARK                         _______ _______ _______ _____ _____    ______ ____
ROOT
ATOM      1  C   UNL     1      -2.495   1.067   4.385  0.00  0.00    +0.128 A 
ATOM      2  C   UNL     1      -2.612  -0.319   4.625  0.00  0.00    +0.061 A 
ATOM      3  C   UNL     1      -3.229  -0.758   5.759  0.00  0.00    +0.094 A 
ATOM      4  C   UNL     1      -3.754   0.191   6.673  0.00  0.00    +0.288 A 
ATOM      5  O   UNL     1      -4.314  -0.181   7.692  0.00  0.00    -0.264 OA
ATOM      6  N   UNL     1      -3.629   1.507   6.410  0.00  0.00    -0.218 N 
ATOM      7  N   UNL     1      -2.987   1.936   5.243  0.00  0.00    -0.165 NA
ENDROOT
BRANCH   1  12
ATOM      8  C   UNL     1      -0.053   1.061   0.001  0.00  0.00    +0.086 C 
ATOM      9  C   UNL     1      -0.754   1.549   1.242  0.00  0.00    +0.103 A 
ATOM     10  C   UNL     1      -0.955   2.840   1.575  0.00  0.00    +0.045 A 
ATOM     11  C   UNL     1      -1.645   2.846   2.803  0.00  0.00    +0.052 A 
ATOM     12  C   UNL     1      -1.822   1.546   3.160  0.00  0.00    +0.155 A 
ATOM     13  O   UNL     1      -1.276   0.771   2.204  0.00  0.00    -0.458 OA
ENDBRANCH   1  12
BRANCH   3  14
ATOM     14  N   UNL     1      -3.349  -2.124   6.014  0.00  0.00    -0.354 N 
ATOM     15  H   UNL     1      -3.793  -2.430   6.821  0.00  0.00    +0.142 HD
ATOM     16  H   UNL     1      -2.988  -2.768   5.385  0.00  0.00    +0.142 HD
ENDBRANCH   3  14
BRANCH   6  17
ATOM     17  C   UNL     1      -4.168   2.493   7.350  0.00  0.00    +0.243 C 
BRANCH  17  18
ATOM     18  C   UNL     1      -3.112   2.852   8.363  0.00  0.00    +0.239 C 
ATOM     19  O   UNL     1      -2.016   2.335   8.305  0.00  0.00    -0.273 OA
ATOM     20  N   UNL     1      -3.385   3.747   9.333  0.00  0.00    -0.281 N 
ATOM     21  H   UNL     1      -4.231   4.220   9.332  0.00  0.00    +0.155 HD
BRANCH  20  22
ATOM     22  C   UNL     1      -2.445   3.995  10.342  0.00  0.00    +0.076 A 
ATOM     23  C   UNL     1      -1.506   3.028  10.671  0.00  0.00    +0.027 A 
ATOM     24  C   UNL     1      -0.576   3.277  11.662  0.00  0.00    +0.002 A 
ATOM     25  C   UNL     1      -0.586   4.484  12.337  0.00  0.00    +0.004 A 
ATOM     26  C   UNL     1      -1.522   5.450  12.019  0.00  0.00    +0.048 A 
ATOM     27  C   UNL     1      -2.454   5.211  11.022  0.00  0.00    +0.148 A 
BRANCH  27  28
ATOM     28  O   UNL     1      -3.376   6.160  10.708  0.00  0.00    -0.432 OA
BRANCH  28  29
ATOM     29  C   UNL     1      -3.325   7.382  11.447  0.00  0.00    +0.541 C 
ATOM     30  F   UNL     1      -3.511   7.113  12.807  0.00  0.00    -0.166 F 
ATOM     31  F   UNL     1      -2.080   7.991  11.258  0.00  0.00    -0.166 F 
ENDBRANCH  28  29
ENDBRANCH  27  28
ENDBRANCH  20  22
ENDBRANCH  17  18
ENDBRANCH   6  17
TORSDOF 7
