REMARK  Name = ZINC43409773
REMARK  2 active torsions:
REMARK  status: ('A' for Active; 'I' for Inactive)
REMARK    1  A    between atoms: C_6  and  C_7
REMARK    2  A    between atoms: C_13  and  N_16
REMARK                            x       y       z     vdW  Elec       q    Type
REMARK                         _______ _______ _______ _____ _____    ______ ____
ROOT
ATOM      1  C   UNL     1       0.071   1.531   0.033  0.00  0.00    +0.022 A 
ATOM      2  C   UNL     1       1.351   2.071   0.023  0.00  0.00    -0.025 A 
ATOM      3  C   UNL     1       2.442   1.230  -0.013  0.00  0.00    +0.047 A 
ATOM      4  N   UNL     1       2.275  -0.087  -0.046  0.00  0.00    -0.236 NA
ATOM      5  C   UNL     1       1.082  -0.653  -0.039  0.00  0.00    +0.134 A 
ATOM      6  C   UNL     1      -0.076   0.142   0.004  0.00  0.00    +0.077 A 
ATOM      7  N   UNL     1       0.973  -2.031  -0.074  0.00  0.00    -0.315 N 
ATOM      8  C   UNL     1       0.795  -2.735  -1.352  0.00  0.00    +0.105 C 
ATOM      9  C   UNL     1       1.877  -3.813  -1.474  0.00  0.00    +0.003 C 
ATOM     10  C   UNL     1       1.827  -4.722  -0.244  0.00  0.00    -0.072 C 
ATOM     11  C   UNL     1       2.109  -3.896   1.014  0.00  0.00    +0.003 C 
ATOM     12  C   UNL     1       1.037  -2.819   1.164  0.00  0.00    +0.105 C 
ATOM     13  C   UNL     1       3.858   1.748  -0.009  0.00  0.00    +0.056 C 
ATOM     14  C   UNL     1       3.893   3.221  -0.407  0.00  0.00    +0.006 C 
ATOM     15  C   UNL     1       2.889   3.983   0.465  0.00  0.00    +0.005 C 
ATOM     16  C   UNL     1       1.478   3.571   0.047  0.00  0.00    +0.037 C 
ENDROOT
BRANCH   6  17
ATOM     17  C   UNL     1      -1.415  -0.475   0.018  0.00  0.00    +0.245 C 
ATOM     18  O   UNL     1      -1.526  -1.684   0.094  0.00  0.00    -0.270 OA
ATOM     19  N   UNL     1      -2.515   0.299  -0.054  0.00  0.00    -0.325 N 
ATOM     20  H   UNL     1      -2.426   1.263  -0.115  0.00  0.00    +0.145 HD
ATOM     21  H   UNL     1      -3.396  -0.107  -0.045  0.00  0.00    +0.145 HD
ENDBRANCH   6  17
BRANCH  10  22
ATOM     22  N   UNL     1       2.841  -5.777  -0.373  0.00  0.00    +0.380 N 
ATOM     23  H   UNL     1       3.756  -5.357  -0.446  0.00  0.00    -0.090 HD
ATOM     24  H   UNL     1       2.809  -6.376   0.438  0.00  0.00    -0.090 HD
ATOM     25  H   UNL     1       2.655  -6.322  -1.202  0.00  0.00    -0.090 HD
ENDBRANCH  10  22
TORSDOF 2
