REMARK  Name = ZINC51712468
REMARK  5 active torsions:
REMARK  status: ('A' for Active; 'I' for Inactive)
REMARK    1  A    between atoms: C_1  and  C_2
REMARK    2  A    between atoms: C_2  and  C_4
REMARK    3  A    between atoms: C_2  and  N_14
REMARK    4  A    between atoms: C_9  and  C_10
REMARK    5  A    between atoms: C_21  and  C_24
REMARK                            x       y       z     vdW  Elec       q    Type
REMARK                         _______ _______ _______ _____ _____    ______ ____
ROOT
ATOM      1  N   UNL     1      -1.372  -0.511   0.012  0.00  0.00    -0.293 N 
ATOM      2  C   UNL     1      -2.029  -0.655   1.181  0.00  0.00    +0.303 C 
ATOM      3  O   UNL     1      -1.452  -0.451   2.231  0.00  0.00    -0.253 OA
ATOM      4  N   UNL     1      -3.325  -1.025   1.185  0.00  0.00    -0.280 N 
ATOM      5  C   UNL     1      -4.094  -1.077   2.438  0.00  0.00    +0.137 C 
ATOM      6  C   UNL     1      -5.399  -0.299   2.237  0.00  0.00    +0.180 C 
ATOM      7  O   UNL     1      -6.060  -0.784   1.065  0.00  0.00    -0.364 OA
ATOM      8  C   UNL     1      -5.322  -0.595  -0.144  0.00  0.00    +0.221 C 
ATOM      9  C   UNL     1      -4.014  -1.383  -0.066  0.00  0.00    +0.150 C 
ATOM     10  H   UNL     1      -1.809  -0.745  -0.821  0.00  0.00    +0.151 HD
ENDROOT
BRANCH   8  11
ATOM     11  C   UNL     1      -6.137  -1.083  -1.313  0.00  0.00    +0.241 C 
ATOM     12  O   UNL     1      -7.203  -1.630  -1.123  0.00  0.00    -0.273 OA
ATOM     13  N   UNL     1      -5.682  -0.912  -2.570  0.00  0.00    -0.327 N 
ATOM     14  H   UNL     1      -4.830  -0.475  -2.722  0.00  0.00    +0.145 HD
ATOM     15  H   UNL     1      -6.207  -1.226  -3.323  0.00  0.00    +0.145 HD
ENDBRANCH   8  11
BRANCH   1  17
ATOM     16  C   UNL     1      -0.021   1.527   0.009  0.00  0.00    +0.033 C 
ATOM     17  C   UNL     1       0.002  -0.003   0.002  0.00  0.00    +0.102 C 
BRANCH  17  18
ATOM     18  C   UNL     1       0.708  -0.489  -1.237  0.00  0.00    -0.016 A 
ATOM     19  C   UNL     1      -0.022  -0.818  -2.365  0.00  0.00    +0.006 A 
ATOM     20  C   UNL     1       0.626  -1.264  -3.501  0.00  0.00    +0.000 A 
ATOM     21  C   UNL     1       2.003  -1.380  -3.511  0.00  0.00    +0.001 A 
ATOM     22  C   UNL     1       2.733  -1.050  -2.385  0.00  0.00    +0.013 A 
ATOM     23  C   UNL     1       2.085  -0.600  -1.249  0.00  0.00    +0.060 A 
BRANCH  23  24
ATOM     24  C   UNL     1       2.881  -0.235  -0.022  0.00  0.00    +0.418 C 
ATOM     25  F   UNL     1       4.243  -0.430  -0.275  0.00  0.00    -0.166 F 
ATOM     26  F   UNL     1       2.653   1.107   0.299  0.00  0.00    -0.166 F 
ATOM     27  F   UNL     1       2.486  -1.045   1.048  0.00  0.00    -0.166 F 
ENDBRANCH  23  24
ENDBRANCH  17  18
ENDBRANCH   1  17
TORSDOF 4
