REMARK  Name = ZINC20275534
REMARK  11 active torsions:
REMARK  status: ('A' for Active; 'I' for Inactive)
REMARK    1  A    between atoms: C_1  and  C_2
REMARK    2  A    between atoms: C_17  and  C_32
REMARK    3  A    between atoms: C_22  and  C_23
REMARK    4  A    between atoms: C_22  and  O_31
REMARK    5  A    between atoms: C_23  and  N_24
REMARK    6  A    between atoms: N_24  and  C_25
REMARK    7  A    between atoms: N_24  and  C_28
REMARK    8  A    between atoms: C_25  and  C_26
REMARK    9  A    between atoms: C_26  and  O_27
REMARK   10  A    between atoms: C_28  and  C_29
REMARK   11  A    between atoms: C_29  and  O_30
REMARK                            x       y       z     vdW  Elec       q    Type
REMARK                         _______ _______ _______ _____ _____    ______ ____
ROOT
ATOM      1  C   UNL     1      -1.327   4.107  -3.058  0.00  0.00    +0.012 C 
ATOM      2  C   UNL     1      -2.334   4.496  -1.950  0.00  0.00    -0.026 C 
ATOM      3  C   UNL     1      -1.544   4.945  -0.728  0.00  0.00    +0.007 C 
ATOM      4  C   UNL     1      -0.751   6.223  -1.003  0.00  0.00    +0.001 C 
ATOM      5  C   UNL     1      -1.698   7.332  -1.462  0.00  0.00    +0.000 C 
ATOM      6  C   UNL     1      -2.392   6.895  -2.752  0.00  0.00    +0.004 C 
ATOM      7  C   UNL     1      -3.196   5.623  -2.509  0.00  0.00    -0.005 C 
ATOM      8  C   UNL     1      -4.357   5.921  -1.557  0.00  0.00    +0.004 C 
ATOM      9  C   UNL     1      -5.258   4.685  -1.534  0.00  0.00    +0.004 C 
ATOM     10  C   UNL     1      -4.488   3.510  -0.932  0.00  0.00    -0.004 C 
ATOM     11  C   UNL     1      -3.168   3.257  -1.644  0.00  0.00    -0.001 C 
ATOM     12  C   UNL     1      -2.334   2.176  -0.968  0.00  0.00    +0.005 C 
ATOM     13  C   UNL     1      -2.228   2.327   0.554  0.00  0.00    +0.010 C 
ATOM     14  C   UNL     1      -3.613   2.441   1.146  0.00  0.00    -0.002 C 
ATOM     15  C   UNL     1      -4.280   3.703   0.547  0.00  0.00    +0.001 C 
ATOM     16  C   UNL     1      -5.546   3.824   1.408  0.00  0.00    +0.007 C 
ATOM     17  C   UNL     1      -5.015   3.517   2.834  0.00  0.00    +0.034 C 
ATOM     18  C   UNL     1      -3.720   2.683   2.652  0.00  0.00    +0.057 C 
ATOM     19  C   UNL     1      -4.418   1.177   0.823  0.00  0.00    +0.014 C 
ENDROOT
BRANCH  18  20
ATOM     20  O   UNL     1      -3.849   1.430   3.333  0.00  0.00    -0.390 OA
ATOM     21  H   UNL     1      -3.939   1.407   4.429  0.00  0.00    +0.210 HD
ENDBRANCH  18  20
BRANCH  18  22
ATOM     22  C   UNL     1      -2.516   3.451   3.189  0.00  0.00    -0.043 C 
BRANCH  22  23
ATOM     23  N   UNL     1      -2.755   3.818   4.591  0.00  0.00    +0.384 N 
ATOM     24  H   UNL     1      -3.828   4.033   4.707  0.00  0.00    -0.082 HD
BRANCH  23  25
ATOM     25  C   UNL     1      -2.417   2.708   5.491  0.00  0.00    -0.050 C 
BRANCH  25  26
ATOM     26  C   UNL     1      -0.927   2.382   5.363  0.00  0.00    +0.137 C 
BRANCH  26  27
ATOM     27  O   UNL     1      -0.159   3.419   5.975  0.00  0.00    -0.397 OA
ATOM     28  H   UNL     1       0.940   3.359   5.982  0.00  0.00    +0.209 HD
ENDBRANCH  26  27
ENDBRANCH  25  26
ENDBRANCH  23  25
BRANCH  23  29
ATOM     29  C   UNL     1      -2.011   5.033   4.952  0.00  0.00    -0.050 C 
BRANCH  29  30
ATOM     30  C   UNL     1      -2.562   5.599   6.261  0.00  0.00    +0.137 C 
BRANCH  30  31
ATOM     31  O   UNL     1      -2.277   4.694   7.330  0.00  0.00    -0.397 OA
ATOM     32  H   UNL     1      -2.599   4.934   8.354  0.00  0.00    +0.209 HD
ENDBRANCH  30  31
ENDBRANCH  29  30
ENDBRANCH  23  29
ENDBRANCH  22  23
ENDBRANCH  18  22
TORSDOF 9
