REMARK  Name = ZINC04462457
REMARK  5 active torsions:
REMARK  status: ('A' for Active; 'I' for Inactive)
REMARK    1  A    between atoms: C_1  and  C_2
REMARK    2  A    between atoms: C_5  and  C_8
REMARK    3  A    between atoms: N_22  and  C_23
REMARK    4  A    between atoms: C_26  and  C_30
REMARK    5  A    between atoms: C_28  and  C_29
REMARK                            x       y       z     vdW  Elec       q    Type
REMARK                         _______ _______ _______ _____ _____    ______ ____
ROOT
ATOM      1  C   UNL     1       1.602  -2.515   0.143  0.00  0.00    +0.248 C 
ATOM      2  O   UNL     1       0.525  -3.067   0.031  0.00  0.00    -0.270 OA
ATOM      3  N   UNL     1       2.724  -3.136  -0.273  0.00  0.00    -0.282 N 
ATOM      4  C   UNL     1       4.003  -2.436  -0.382  0.00  0.00    +0.120 C 
ATOM      5  C   UNL     1       5.190  -3.409  -0.100  0.00  0.00    +0.090 C 
ATOM      6  S   UNL     1       4.514  -4.909  -0.947  0.00  0.00    -0.133 S 
ATOM      7  C   UNL     1       2.735  -4.554  -0.649  0.00  0.00    +0.087 C 
ATOM      8  C   UNL     1       1.947  -4.790  -1.930  0.00  0.00    +0.056 C 
ATOM      9  C   UNL     1       0.467  -4.475  -1.684  0.00  0.00    +0.112 C 
ATOM     10  N   UNL     1       0.009  -5.243  -0.517  0.00  0.00    -0.285 N 
ATOM     11  C   UNL     1       0.747  -5.117   0.748  0.00  0.00    +0.112 C 
ATOM     12  C   UNL     1       2.225  -5.428   0.488  0.00  0.00    +0.056 C 
ATOM     13  C   UNL     1      -1.067  -6.048  -0.606  0.00  0.00    +0.306 C 
ATOM     14  O   UNL     1      -1.496  -6.602   0.388  0.00  0.00    -0.252 OA
ATOM     15  N   UNL     1      -1.669  -6.240  -1.797  0.00  0.00    -0.269 N 
ATOM     16  H   UNL     1      -1.395  -5.720  -2.568  0.00  0.00    +0.156 HD
ENDROOT
BRANCH  15  17
ATOM     17  C   UNL     1      -2.689  -7.190  -1.921  0.00  0.00    +0.038 A 
ATOM     18  C   UNL     1      -3.357  -7.645  -0.791  0.00  0.00    +0.024 A 
ATOM     19  C   UNL     1      -4.363  -8.583  -0.916  0.00  0.00    +0.005 A 
ATOM     20  C   UNL     1      -4.706  -9.068  -2.165  0.00  0.00    -0.050 A 
ATOM     21  C   UNL     1      -4.043  -8.617  -3.291  0.00  0.00    +0.008 A 
ATOM     22  C   UNL     1      -3.039  -7.676  -3.173  0.00  0.00    -0.029 A 
ATOM     23  C   UNL     1      -2.321  -7.181  -4.402  0.00  0.00    +0.045 C 
ATOM     24  C   UNL     1      -5.805 -10.091  -2.298  0.00  0.00    +0.044 C 
ENDBRANCH  15  17
BRANCH   1  29
ATOM     25  C   UNL     1       1.912   2.749   2.449  0.00  0.00    +0.044 C 
ATOM     26  C   UNL     1       1.831   1.370   1.845  0.00  0.00    -0.050 A 
ATOM     27  C   UNL     1       0.798   0.521   2.202  0.00  0.00    +0.004 A 
ATOM     28  C   UNL     1       0.718  -0.742   1.653  0.00  0.00    +0.013 A 
ATOM     29  C   UNL     1       1.681  -1.163   0.735  0.00  0.00    +0.037 A 
ATOM     30  C   UNL     1       2.721  -0.301   0.379  0.00  0.00    +0.013 A 
ATOM     31  C   UNL     1       2.789   0.959   0.936  0.00  0.00    +0.004 A 
ENDBRANCH   1  29
TORSDOF 2
