REMARK  Name = ZINC40784509
REMARK  6 active torsions:
REMARK  status: ('A' for Active; 'I' for Inactive)
REMARK    1  A    between atoms: C_9  and  S_11
REMARK    2  A    between atoms: S_11  and  C_12
REMARK    3  A    between atoms: C_13  and  N_29
REMARK    4  A    between atoms: C_14  and  N_18
REMARK    5  A    between atoms: N_18  and  N_19
REMARK    6  A    between atoms: C_20  and  C_22
REMARK                            x       y       z     vdW  Elec       q    Type
REMARK                         _______ _______ _______ _____ _____    ______ ____
ROOT
ATOM      1  C   UNL     1      -0.498  -2.890   0.139  0.00  0.00    +0.127 A 
ATOM      2  C   UNL     1      -0.878  -4.226   0.280  0.00  0.00    +0.099 A 
ATOM      3  C   UNL     1      -2.239  -4.514   0.405  0.00  0.00    +0.160 A 
ATOM      4  N   UNL     1      -3.114  -3.512   0.386  0.00  0.00    -0.218 NA
ATOM      5  C   UNL     1      -2.713  -2.264   0.251  0.00  0.00    +0.224 A 
ATOM      6  N   UNL     1      -1.439  -1.948   0.135  0.00  0.00    -0.227 NA
ENDROOT
BRANCH   2   7
ATOM      7  N   UNL     1       0.080  -5.252   0.294  0.00  0.00    -0.353 N 
ATOM      8  H   UNL     1       1.022  -5.037   0.206  0.00  0.00    +0.142 HD
ATOM      9  H   UNL     1      -0.199  -6.175   0.393  0.00  0.00    +0.142 HD
ENDBRANCH   2   7
BRANCH   3  10
ATOM     10  N   UNL     1      -2.672  -5.827   0.548  0.00  0.00    -0.247 N 
ATOM     11  H   UNL     1      -2.027  -6.552   0.561  0.00  0.00    +0.172 HD
BRANCH  10  12
ATOM     12  N   UNL     1      -4.040  -6.104   0.673  0.00  0.00    -0.231 N 
ATOM     13  C   UNL     1      -4.460  -7.377   0.811  0.00  0.00    +0.260 C 
ATOM     14  O   UNL     1      -3.652  -8.285   0.827  0.00  0.00    -0.269 OA
ATOM     15  H   UNL     1      -4.684  -5.379   0.660  0.00  0.00    +0.173 HD
BRANCH  13  16
ATOM     16  C   UNL     1      -5.902  -7.669   0.943  0.00  0.00    +0.038 A 
ATOM     17  C   UNL     1      -6.833  -6.628   0.919  0.00  0.00    +0.014 A 
ATOM     18  C   UNL     1      -8.178  -6.907   1.043  0.00  0.00    +0.021 A 
ATOM     19  C   UNL     1      -8.606  -8.216   1.190  0.00  0.00    +0.041 A 
ATOM     20  C   UNL     1      -7.688  -9.252   1.214  0.00  0.00    +0.021 A 
ATOM     21  C   UNL     1      -6.340  -8.987   1.087  0.00  0.00    +0.014 A 
ATOM     22 CL   UNL     1     -10.301  -8.559   1.345  0.00  0.00    -0.084 Cl
ENDBRANCH  13  16
ENDBRANCH  10  12
ENDBRANCH   3  10
BRANCH   1  23
ATOM     23  S   UNL     1       1.202  -2.456  -0.024  0.00  0.00    -0.066 S 
BRANCH  23  32
ATOM     24  C   UNL     1       1.477   1.536   0.466  0.00  0.00    +0.002 A 
ATOM     25  C   UNL     1       1.138   2.045  -0.752  0.00  0.00    +0.010 A 
ATOM     26  C   UNL     1       0.801   1.179  -1.804  0.00  0.00    +0.001 A 
ATOM     27  C   UNL     1       0.447   1.674  -3.074  0.00  0.00    +0.011 A 
ATOM     28  C   UNL     1       0.131   0.773  -4.051  0.00  0.00    +0.020 A 
ATOM     29  C   UNL     1       0.167  -0.592  -3.776  0.00  0.00    +0.111 A 
ATOM     30  N   UNL     1       0.498  -1.048  -2.593  0.00  0.00    -0.254 NA
ATOM     31  C   UNL     1       0.817  -0.221  -1.594  0.00  0.00    +0.085 A 
ATOM     32  C   UNL     1       1.173  -0.720  -0.321  0.00  0.00    +0.040 A 
ATOM     33  C   UNL     1       1.497   0.163   0.687  0.00  0.00    +0.017 A 
ENDBRANCH  23  32
ENDBRANCH   1  23
TORSDOF 6
