REMARK  Name = ZINC05028951
REMARK  8 active torsions:
REMARK  status: ('A' for Active; 'I' for Inactive)
REMARK    1  A    between atoms: C_1  and  C_2
REMARK    2  A    between atoms: C_2  and  C_5
REMARK    3  A    between atoms: N_3  and  O_4
REMARK    4  A    between atoms: C_12  and  C_33
REMARK    5  A    between atoms: C_22  and  C_32
REMARK    6  A    between atoms: C_25  and  O_28
REMARK    7  A    between atoms: O_28  and  C_29
REMARK    8  A    between atoms: C_29  and  C_31
REMARK                            x       y       z     vdW  Elec       q    Type
REMARK                         _______ _______ _______ _____ _____    ______ ____
ROOT
ATOM      1  C   UNL     1       5.421  -1.548   0.144  0.00  0.00    +0.142 C 
ATOM      2  C   UNL     1       5.696  -0.123   0.686  0.00  0.00    +0.158 C 
ATOM      3  O   UNL     1       6.323  -0.626  -0.488  0.00  0.00    -0.358 OA
ATOM      4  C   UNL     1       4.352   0.645   0.569  0.00  0.00    +0.039 C 
ATOM      5  C   UNL     1       3.331  -0.500   0.608  0.00  0.00    +0.004 C 
ATOM      6  C   UNL     1       3.962  -1.520  -0.362  0.00  0.00    +0.008 C 
ATOM      7  C   UNL     1       3.218  -2.825  -0.300  0.00  0.00    +0.010 C 
ATOM      8  C   UNL     1       1.699  -2.611  -0.344  0.00  0.00    +0.005 C 
ATOM      9  C   UNL     1       1.297  -1.188  -0.690  0.00  0.00    +0.003 C 
ATOM     10  C   UNL     1       1.905  -0.186   0.299  0.00  0.00    +0.000 C 
ATOM     11  C   UNL     1       1.720   1.210  -0.312  0.00  0.00    +0.031 C 
ATOM     12  C   UNL     1       0.244   1.417  -0.533  0.00  0.00    -0.027 C 
ATOM     13  C   UNL     1      -0.600   0.443  -0.671  0.00  0.00    -0.064 C 
ATOM     14  C   UNL     1      -0.223  -1.019  -0.665  0.00  0.00    -0.008 C 
ATOM     15  C   UNL     1      -0.860  -1.681   0.548  0.00  0.00    +0.015 C 
ATOM     16  C   UNL     1      -1.886  -0.748   1.189  0.00  0.00    +0.046 C 
ATOM     17  C   UNL     1      -2.840  -0.142   0.167  0.00  0.00    +0.180 C 
ATOM     18  C   UNL     1      -2.079   0.756  -0.816  0.00  0.00    +0.075 C 
ATOM     19  C   UNL     1      -0.779  -1.669  -1.936  0.00  0.00    +0.016 C 
ATOM     20  C   UNL     1       4.031  -0.999  -1.802  0.00  0.00    +0.015 C 
ENDROOT
BRANCH   1  22
ATOM     21  C   UNL     1       6.098  -4.057  -0.010  0.00  0.00    +0.067 C 
ATOM     22  C   UNL     1       5.949  -2.791   0.794  0.00  0.00    +0.089 C 
ATOM     23  N   UNL     1       6.274  -2.777   2.032  0.00  0.00    -0.094 NA
BRANCH  23  24
ATOM     24  O   UNL     1       6.773  -3.952   2.646  0.00  0.00    -0.409 OA
ATOM     25  H   UNL     1       6.990  -3.844   3.582  0.00  0.00    +0.328 HD
ENDBRANCH  23  24
ENDBRANCH   1  22
BRANCH  17  26
ATOM     26  O   UNL     1      -3.528  -1.196  -0.555  0.00  0.00    -0.461 OA
BRANCH  26  27
ATOM     27  C   UNL     1      -4.765  -0.923  -1.001  0.00  0.00    +0.304 C 
ATOM     28  O   UNL     1      -5.255   0.162  -0.794  0.00  0.00    -0.251 OA
ATOM     29  C   UNL     1      -5.541  -1.968  -1.759  0.00  0.00    +0.136 C 
ENDBRANCH  26  27
ENDBRANCH  17  26
TORSDOF 4
