REMARK  Name = ZINC37668779
REMARK  5 active torsions:
REMARK  status: ('A' for Active; 'I' for Inactive)
REMARK    1  A    between atoms: C_1  and  C_2
REMARK    2  A    between atoms: C_4  and  S_9
REMARK    3  A    between atoms: C_7  and  N_8
REMARK    4  A    between atoms: S_9  and  C_10
REMARK    5  A    between atoms: C_13  and  C_15
REMARK                            x       y       z     vdW  Elec       q    Type
REMARK                         _______ _______ _______ _____ _____    ______ ____
ROOT
ATOM      1  C   UNL     1      -0.015   1.491   0.029  0.00  0.00    +0.045 C 
ATOM      2  C   UNL     1       0.004  -0.016   0.015  0.00  0.00    -0.029 A 
ATOM      3  C   UNL     1       0.007  -0.695  -1.188  0.00  0.00    +0.020 A 
ATOM      4  C   UNL     1       0.026  -2.083  -1.201  0.00  0.00    +0.015 A 
ATOM      5  C   UNL     1       0.041  -2.789  -0.005  0.00  0.00    +0.017 A 
ATOM      6  C   UNL     1       0.038  -2.111   1.197  0.00  0.00    +0.024 A 
ATOM      7  C   UNL     1       0.025  -0.722   1.210  0.00  0.00    +0.028 A 
ENDROOT
BRANCH   7   8
ATOM      8  N   UNL     1       0.028  -0.034   2.429  0.00  0.00    -0.358 N 
ATOM      9  H   UNL     1       0.015   0.936   2.438  0.00  0.00    +0.142 HD
ATOM     10  H   UNL     1       0.042  -0.527   3.264  0.00  0.00    +0.142 HD
ENDBRANCH   7   8
BRANCH   4  11
ATOM     11  S   UNL     1       0.029  -2.949  -2.736  0.00  0.00    -0.061 S 
BRANCH  11  12
ATOM     12  C   UNL     1       1.731  -3.007  -3.189  0.00  0.00    +0.163 A 
ATOM     13  N   UNL     1       2.807  -2.609  -2.521  0.00  0.00    -0.134 NA
ATOM     14  N   UNL     1       3.967  -2.727  -3.000  0.00  0.00    -0.146 NA
ATOM     15  C   UNL     1       4.187  -3.251  -4.189  0.00  0.00    +0.100 A 
ATOM     16  S   UNL     1       2.506  -3.628  -4.679  0.00  0.00    -0.044 S 
ATOM     17  C   UNL     1       5.483  -3.473  -4.925  0.00  0.00    +0.075 C 
ENDBRANCH  11  12
ENDBRANCH   4  11
TORSDOF 3
