REMARK  Name = ZINC01618623
REMARK  6 active torsions:
REMARK  status: ('A' for Active; 'I' for Inactive)
REMARK    1  A    between atoms: C_1  and  C_2
REMARK    2  A    between atoms: C_6  and  O_19
REMARK    3  A    between atoms: C_9  and  O_10
REMARK    4  A    between atoms: C_13  and  O_17
REMARK    5  A    between atoms: O_17  and  C_18
REMARK    6  A    between atoms: C_20  and  O_23
REMARK                            x       y       z     vdW  Elec       q    Type
REMARK                         _______ _______ _______ _____ _____    ______ ____
ROOT
ATOM      1  C   UNL     1       5.358   9.732  -0.357  0.00  0.00    +0.085 C 
ATOM      2  C   UNL     1       5.185   8.235  -0.352  0.00  0.00    +0.099 C 
ATOM      3  C   UNL     1       3.999   7.703  -0.011  0.00  0.00    +0.053 C 
ATOM      4  C   UNL     1       3.869   6.236  -0.007  0.00  0.00    +0.033 A 
ATOM      5  C   UNL     1       5.036   5.472  -0.016  0.00  0.00    +0.073 A 
ATOM      6  C   UNL     1       4.967   4.087  -0.020  0.00  0.00    +0.138 A 
ATOM      7  C   UNL     1       3.719   3.451  -0.014  0.00  0.00    +0.078 A 
ATOM      8  C   UNL     1       2.534   4.219  -0.000  0.00  0.00    +0.082 A 
ATOM      9  C   UNL     1       2.606   5.611   0.003  0.00  0.00    +0.136 A 
ATOM     10  C   UNL     1       1.230   3.534   0.009  0.00  0.00    +0.232 C 
ATOM     11  O   UNL     1       0.200   4.180   0.023  0.00  0.00    -0.283 OA
ATOM     12  C   UNL     1       1.181   2.056   0.002  0.00  0.00    +0.171 C 
ATOM     13  C   UNL     1       2.318   1.330  -0.007  0.00  0.00    +0.101 C 
ATOM     14  C   UNL     1       3.629   1.984  -0.021  0.00  0.00    +0.194 C 
ATOM     15  O   UNL     1       4.645   1.311  -0.033  0.00  0.00    -0.287 OA
ATOM     16  C   UNL     1       6.364   6.186  -0.021  0.00  0.00    +0.341 C 
ATOM     17  O   UNL     1       6.223   7.440  -0.690  0.00  0.00    -0.464 OA
ENDROOT
BRANCH   9  18
ATOM     18  O   UNL     1       1.475   6.355   0.017  0.00  0.00    -0.505 OA
ATOM     19  H   UNL     1       1.155   6.568   0.904  0.00  0.00    +0.292 HD
ENDBRANCH   9  18
BRANCH  12  20
ATOM     20  O   UNL     1      -0.017   1.425   0.010  0.00  0.00    -0.491 OA
ATOM     21  C   UNL     1       0.002  -0.004   0.002  0.00  0.00    +0.277 C 
ENDBRANCH  12  20
BRANCH   6  22
ATOM     22  O   UNL     1       6.105   3.350  -0.030  0.00  0.00    -0.506 OA
ATOM     23  H   UNL     1       6.441   3.133   0.850  0.00  0.00    +0.292 HD
ENDBRANCH   6  22
BRANCH  16  24
ATOM     24  O   UNL     1       7.333   5.387  -0.704  0.00  0.00    -0.354 OA
ATOM     25  H   UNL     1       8.212   5.788  -0.748  0.00  0.00    +0.214 HD
ENDBRANCH  16  24
TORSDOF 4
