REMARK  Name = ZINC53035491
REMARK  5 active torsions:
REMARK  status: ('A' for Active; 'I' for Inactive)
REMARK    1  A    between atoms: C_1  and  C_2
REMARK    2  A    between atoms: C_5  and  C_7
REMARK    3  A    between atoms: C_7  and  N_8
REMARK    4  A    between atoms: C_9  and  C_11
REMARK    5  A    between atoms: C_19  and  N_21
REMARK                            x       y       z     vdW  Elec       q    Type
REMARK                         _______ _______ _______ _____ _____    ______ ____
ROOT
ATOM      1  C   UNL     1       3.109  -5.029  -3.050  0.00  0.00    +0.062 A 
ATOM      2  C   UNL     1       2.635  -4.428  -4.178  0.00  0.00    +0.096 A 
ATOM      3  N   UNL     1       3.133  -5.052  -5.274  0.00  0.00    -0.360 N 
ATOM      4  H   UNL     1       2.937  -4.802  -6.191  0.00  0.00    +0.165 HD
ATOM      5  C   UNL     1       3.958  -6.093  -4.902  0.00  0.00    +0.049 A 
ATOM      6  C   UNL     1       3.988  -6.126  -3.498  0.00  0.00    +0.012 A 
ATOM      7  C   UNL     1       4.753  -7.083  -2.836  0.00  0.00    +0.012 A 
ATOM      8  C   UNL     1       5.479  -7.991  -3.554  0.00  0.00    +0.023 A 
ATOM      9  C   UNL     1       5.459  -7.965  -4.947  0.00  0.00    +0.027 A 
ATOM     10  C   UNL     1       4.698  -7.025  -5.621  0.00  0.00    +0.049 A 
ENDROOT
BRANCH   1  12
ATOM     11  N   UNL     1       1.983  -3.620  -1.407  0.00  0.00    -0.304 N 
ATOM     12  C   UNL     1       2.810  -4.653  -1.662  0.00  0.00    +0.246 C 
ATOM     13  O   UNL     1       3.308  -5.275  -0.743  0.00  0.00    -0.270 OA
ATOM     14  H   UNL     1       1.586  -3.124  -2.140  0.00  0.00    +0.149 HD
BRANCH  11  15
ATOM     15  C   UNL     1       1.684  -3.245  -0.023  0.00  0.00    +0.179 C 
BRANCH  15  20
ATOM     16  C   UNL     1      -0.018   1.503   0.010  0.00  0.00    +0.086 C 
ATOM     17  C   UNL     1       0.002  -0.004   0.002  0.00  0.00    +0.102 A 
ATOM     18  C   UNL     1      -1.078  -0.805   0.003  0.00  0.00    +0.045 A 
ATOM     19  C   UNL     1      -0.601  -2.136  -0.007  0.00  0.00    +0.046 A 
ATOM     20  C   UNL     1       0.742  -2.069  -0.013  0.00  0.00    +0.122 A 
ATOM     21  O   UNL     1       1.102  -0.775  -0.013  0.00  0.00    -0.463 OA
ENDBRANCH  15  20
ENDBRANCH  11  15
ENDBRANCH   1  12
BRANCH   9  22
ATOM     22  N   UNL     1       6.207  -8.900  -5.669  0.00  0.00    -0.358 N 
ATOM     23  H   UNL     1       6.737  -9.563  -5.200  0.00  0.00    +0.142 HD
ATOM     24  H   UNL     1       6.196  -8.885  -6.639  0.00  0.00    +0.142 HD
ENDBRANCH   9  22
TORSDOF 4
