REMARK  Name = ZINC63115288
REMARK  7 active torsions:
REMARK  status: ('A' for Active; 'I' for Inactive)
REMARK    1  A    between atoms: C_1  and  C_2
REMARK    2  A    between atoms: C_2  and  C_3
REMARK    3  A    between atoms: C_3  and  N_4
REMARK    4  A    between atoms: N_4  and  C_5
REMARK    5  A    between atoms: C_8  and  N_11
REMARK    6  A    between atoms: C_12  and  C_14
REMARK    7  A    between atoms: C_19  and  O_20
REMARK                            x       y       z     vdW  Elec       q    Type
REMARK                         _______ _______ _______ _____ _____    ______ ____
ROOT
ATOM      1  N   UNL     1       1.029  -2.128   1.849  0.00  0.00    -0.267 N 
ATOM      2  C   UNL     1       0.212  -2.788   2.693  0.00  0.00    +0.254 C 
ATOM      3  O   UNL     1       0.408  -3.964   2.934  0.00  0.00    -0.270 OA
ENDROOT
BRANCH   2   4
ATOM      4  C   UNL     1      -0.920  -2.085   3.325  0.00  0.00    +0.080 A 
ATOM      5  C   UNL     1      -1.481  -0.963   2.710  0.00  0.00    +0.036 A 
ATOM      6  C   UNL     1      -2.539  -0.309   3.307  0.00  0.00    +0.042 A 
ATOM      7  C   UNL     1      -3.049  -0.761   4.514  0.00  0.00    +0.023 A 
ATOM      8  C   UNL     1      -2.503  -1.869   5.131  0.00  0.00    +0.047 A 
ATOM      9  C   UNL     1      -1.443  -2.542   4.543  0.00  0.00    +0.129 A 
ATOM     10 CL   UNL     1      -3.236   1.085   2.542  0.00  0.00    -0.084 Cl
BRANCH   9  11
ATOM     11  O   UNL     1      -0.910  -3.634   5.145  0.00  0.00    -0.506 OA
ATOM     12  H   UNL     1      -0.189  -3.433   5.758  0.00  0.00    +0.292 HD
ENDBRANCH   9  11
ENDBRANCH   2   4
BRANCH   1  13
ATOM     13  C   UNL     1       2.013  -2.826   1.137  0.00  0.00    +0.037 A 
ATOM     14  C   UNL     1       3.308  -2.329   1.073  0.00  0.00    +0.025 A 
ATOM     15  C   UNL     1       4.278  -3.018   0.372  0.00  0.00    +0.024 A 
ATOM     16  C   UNL     1       3.958  -4.207  -0.270  0.00  0.00    +0.025 A 
ATOM     17  C   UNL     1       2.663  -4.704  -0.206  0.00  0.00    +0.024 A 
ATOM     18  C   UNL     1       1.694  -4.019   0.500  0.00  0.00    +0.025 A 
BRANCH  16  19
ATOM     19  N   UNL     1       4.941  -4.905  -0.981  0.00  0.00    -0.358 N 
ATOM     20  H   UNL     1       5.845  -4.557  -1.026  0.00  0.00    +0.142 HD
ATOM     21  H   UNL     1       4.717  -5.735  -1.429  0.00  0.00    +0.142 HD
ENDBRANCH  16  19
ENDBRANCH   1  13
BRANCH   1  22
ATOM     22  C   UNL     1       0.888  -0.680   1.676  0.00  0.00    +0.114 C 
BRANCH  22  24
ATOM     23  C   UNL     1       0.188   1.127   0.100  0.00  0.00    +0.005 C 
ATOM     24  C   UNL     1       0.335  -0.385   0.280  0.00  0.00    +0.016 C 
ENDBRANCH  22  24
ENDBRANCH   1  22
TORSDOF 6
