REMARK  Name = ZINC15946148
REMARK  8 active torsions:
REMARK  status: ('A' for Active; 'I' for Inactive)
REMARK    1  A    between atoms: C_1  and  C_2
REMARK    2  A    between atoms: C_2  and  O_3
REMARK    3  A    between atoms: O_3  and  C_4
REMARK    4  A    between atoms: C_12  and  N_24
REMARK    5  A    between atoms: C_13  and  C_14
REMARK    6  A    between atoms: N_16  and  C_17
REMARK    7  A    between atoms: C_25  and  C_27
REMARK    8  A    between atoms: C_27  and  N_63
REMARK                            x       y       z     vdW  Elec       q    Type
REMARK                         _______ _______ _______ _____ _____    ______ ____
ROOT
ATOM      1  C   UNL     1       4.534   1.957  -4.085  0.00  0.00    +0.403 C 
ATOM      2  O   UNL     1       4.154   1.373  -5.081  0.00  0.00    -0.226 OA
ATOM      3  N   UNL     1       3.637   2.533  -3.259  0.00  0.00    -0.262 N 
ATOM      4  C   UNL     1       2.194   2.470  -3.537  0.00  0.00    +0.116 C 
ATOM      5  C   UNL     1       1.494   1.672  -2.436  0.00  0.00    +0.056 C 
ATOM      6  C   UNL     1       1.968   2.171  -1.077  0.00  0.00    -0.020 A 
ATOM      7  C   UNL     1       3.120   2.865  -0.946  0.00  0.00    +0.013 A 
ATOM      8  S   UNL     1       3.249   3.211   0.785  0.00  0.00    -0.076 S 
ATOM      9  C   UNL     1       1.789   2.455   1.331  0.00  0.00    +0.084 A 
ATOM     10  C   UNL     1       1.242   1.945   0.162  0.00  0.00    +0.069 A 
ATOM     11  C   UNL     1       4.067   3.249  -2.042  0.00  0.00    +0.153 C 
ENDROOT
BRANCH  10  12
ATOM     12  C   UNL     1      -0.027   1.210   0.175  0.00  0.00    +0.251 C 
ATOM     13  O   UNL     1      -0.029   0.002   0.324  0.00  0.00    -0.270 OA
ATOM     14  N   UNL     1      -1.191   1.871   0.018  0.00  0.00    -0.281 N 
ATOM     15  H   UNL     1      -1.196   2.840  -0.024  0.00  0.00    +0.155 HD
BRANCH  14  16
ATOM     16  C   UNL     1      -2.390   1.160  -0.086  0.00  0.00    +0.035 A 
ATOM     17  C   UNL     1      -3.565   1.699   0.424  0.00  0.00    +0.023 A 
ATOM     18  C   UNL     1      -4.748   0.995   0.320  0.00  0.00    +0.003 A 
ATOM     19  C   UNL     1      -4.766  -0.246  -0.291  0.00  0.00    +0.020 A 
ATOM     20  C   UNL     1      -3.598  -0.786  -0.800  0.00  0.00    +0.043 A 
ATOM     21  C   UNL     1      -2.411  -0.084  -0.704  0.00  0.00    +0.043 A 
ATOM     22 CL   UNL     1      -3.624  -2.344  -1.566  0.00  0.00    -0.083 Cl
ENDBRANCH  14  16
ENDBRANCH  10  12
BRANCH   9  23
ATOM     23  N   UNL     1       1.290   2.376   2.622  0.00  0.00    -0.281 N 
ATOM     24  C   UNL     1       1.969   2.937   3.642  0.00  0.00    +0.201 C 
ATOM     25  O   UNL     1       3.016   3.512   3.430  0.00  0.00    -0.278 OA
ATOM     26  H   UNL     1       0.453   1.916   2.792  0.00  0.00    +0.155 HD
BRANCH  24  27
ATOM     27  C   UNL     1       1.427   2.852   5.046  0.00  0.00    +0.019 C 
BRANCH  27  33
ATOM     28  C   UNL     1       3.634   2.837   6.042  0.00  0.00    -0.078 C 
ATOM     29  C   UNL     1       4.609   3.654   6.893  0.00  0.00    -0.019 C 
ATOM     30  C   UNL     1       4.024   3.836   8.297  0.00  0.00    -0.004 C 
ATOM     31  C   UNL     1       2.660   4.522   8.187  0.00  0.00    -0.019 C 
ATOM     32  C   UNL     1       1.741   3.681   7.298  0.00  0.00    -0.078 C 
ATOM     33  N   UNL     1       2.349   3.563   5.956  0.00  0.00    +0.385 N 
ATOM     34  H   UNL     1       2.522   4.505   5.585  0.00  0.00    -0.081 HD
ENDBRANCH  27  33
ENDBRANCH  24  27
ENDBRANCH   9  23
BRANCH   1  35
ATOM     35  O   UNL     1       5.849   2.029  -3.807  0.00  0.00    -0.451 OA
BRANCH  35  37
ATOM     36  C   UNL     1       8.197   1.573  -4.261  0.00  0.00    +0.048 C 
ATOM     37  C   UNL     1       6.756   1.386  -4.740  0.00  0.00    +0.230 C 
ENDBRANCH  35  37
ENDBRANCH   1  35
TORSDOF 7
