REMARK  Name = ZINC44121744
REMARK  3 active torsions:
REMARK  status: ('A' for Active; 'I' for Inactive)
REMARK    1  A    between atoms: C_4  and  C_14
REMARK    2  A    between atoms: C_5  and  C_7
REMARK    3  A    between atoms: C_11  and  N_13
REMARK                            x       y       z     vdW  Elec       q    Type
REMARK                         _______ _______ _______ _____ _____    ______ ____
ROOT
ATOM      1  C   UNL     1      -0.017   1.376   0.010  0.00  0.00    +0.001 A 
ATOM      2  C   UNL     1       1.170   2.086   0.002  0.00  0.00    +0.001 A 
ATOM      3  C   UNL     1       2.382   1.419  -0.013  0.00  0.00    +0.013 A 
ATOM      4  C   UNL     1       2.413   0.039  -0.022  0.00  0.00    +0.064 A 
ATOM      5  C   UNL     1       1.220  -0.682  -0.014  0.00  0.00    +0.014 A 
ATOM      6  C   UNL     1       0.002  -0.004   0.002  0.00  0.00    +0.010 A 
ENDROOT
BRANCH   5   7
ATOM      7  C   UNL     1       1.247  -2.165  -0.023  0.00  0.00    +0.092 A 
ATOM      8  C   UNL     1       0.053  -2.884  -0.021  0.00  0.00    +0.139 A 
ATOM      9  N   UNL     1       0.077  -4.205  -0.029  0.00  0.00    -0.258 NA
ATOM     10  C   UNL     1       1.230  -4.848  -0.039  0.00  0.00    +0.154 A 
ATOM     11  C   UNL     1       2.428  -4.136  -0.041  0.00  0.00    +0.135 A 
ATOM     12  N   UNL     1       2.410  -2.810  -0.039  0.00  0.00    -0.229 NA
BRANCH  11  13
ATOM     13  N   UNL     1       3.641  -4.815  -0.051  0.00  0.00    -0.342 N 
ATOM     14  H   UNL     1       3.653  -5.785  -0.057  0.00  0.00    +0.144 HD
ATOM     15  H   UNL     1       4.474  -4.319  -0.053  0.00  0.00    +0.144 HD
ENDBRANCH  11  13
ENDBRANCH   5   7
BRANCH   4  16
ATOM     16  C   UNL     1       3.733  -0.687  -0.040  0.00  0.00    +0.418 C 
ATOM     17  F   UNL     1       4.777   0.245  -0.045  0.00  0.00    -0.166 F 
ATOM     18  F   UNL     1       3.836  -1.496   1.097  0.00  0.00    -0.166 F 
ATOM     19  F   UNL     1       3.812  -1.483  -1.188  0.00  0.00    -0.166 F 
ENDBRANCH   4  16
TORSDOF 3
