REMARK  Name = ZINC51996294
REMARK  3 active torsions:
REMARK  status: ('A' for Active; 'I' for Inactive)
REMARK    1  A    between atoms: C_4  and  O_22
REMARK    2  A    between atoms: C_6  and  N_9
REMARK    3  A    between atoms: C_10  and  C_12
REMARK                            x       y       z     vdW  Elec       q    Type
REMARK                         _______ _______ _______ _____ _____    ______ ____
ROOT
ATOM      1  N   UNL     1       0.734  -1.958  -1.251  0.00  0.00    -0.310 N 
ATOM      2  C   UNL     1      -0.317  -2.644  -1.743  0.00  0.00    +0.218 C 
ATOM      3  O   UNL     1      -1.281  -2.049  -2.175  0.00  0.00    -0.275 OA
ATOM      4  H   UNL     1       1.505  -2.434  -0.905  0.00  0.00    +0.149 HD
ENDROOT
BRANCH   2   5
ATOM      5  C   UNL     1      -0.294  -4.151  -1.755  0.00  0.00    +0.092 C 
ATOM      6  C   UNL     1      -1.598  -4.677  -2.359  0.00  0.00    +0.016 C 
ATOM      7  C   UNL     1      -1.562  -6.206  -2.402  0.00  0.00    +0.020 C 
ATOM      8  C   UNL     1      -1.436  -6.750  -0.976  0.00  0.00    +0.109 C 
ATOM      9  N   UNL     1      -0.263  -6.137  -0.338  0.00  0.00    -0.285 N 
ATOM     10  C   UNL     1      -0.152  -4.672  -0.322  0.00  0.00    +0.122 C 
ATOM     11  C   UNL     1       0.694  -6.904   0.222  0.00  0.00    +0.300 C 
ATOM     12  O   UNL     1       1.704  -6.390   0.662  0.00  0.00    -0.253 OA
ATOM     13  N   UNL     1       0.531  -8.239   0.294  0.00  0.00    -0.313 N 
ATOM     14  H   UNL     1      -0.241  -8.657  -0.120  0.00  0.00    +0.146 HD
ATOM     15  H   UNL     1       1.184  -8.784   0.761  0.00  0.00    +0.146 HD
ENDBRANCH   2   5
BRANCH   1  20
ATOM     16  C   UNL     1      -0.032   1.525   0.032  0.00  0.00    +0.002 C 
ATOM     17  C   UNL     1       1.402   2.057   0.026  0.00  0.00    +0.003 C 
ATOM     18  C   UNL     1       2.123   1.568  -1.232  0.00  0.00    +0.033 C 
ATOM     19  C   UNL     1       2.146   0.039  -1.244  0.00  0.00    +0.135 C 
ATOM     20  C   UNL     1       0.712  -0.493  -1.239  0.00  0.00    +0.101 C 
ATOM     21  C   UNL     1      -0.009  -0.005   0.019  0.00  0.00    +0.025 C 
BRANCH  19  22
ATOM     22  O   UNL     1       2.835  -0.437  -0.086  0.00  0.00    -0.390 OA
ATOM     23  H   UNL     1       3.752  -0.138  -0.024  0.00  0.00    +0.210 HD
ENDBRANCH  19  22
ENDBRANCH   1  20
TORSDOF 3
