REMARK  Name = ZINC63525760
REMARK  4 active torsions:
REMARK  status: ('A' for Active; 'I' for Inactive)
REMARK    1  A    between atoms: C_1  and  C_2
REMARK    2  A    between atoms: C_4  and  C_15
REMARK    3  A    between atoms: C_8  and  O_14
REMARK    4  A    between atoms: C_18  and  O_21
REMARK                            x       y       z     vdW  Elec       q    Type
REMARK                         _______ _______ _______ _____ _____    ______ ____
ROOT
ATOM      1  C   UNL     1      -0.018   1.503   0.010  0.00  0.00    +0.067 C 
ATOM      2  C   UNL     1       0.002  -0.004   0.002  0.00  0.00    +0.065 C 
ATOM      3  C   UNL     1      -1.068  -0.774   0.003  0.00  0.00    +0.018 C 
ATOM      4  C   UNL     1      -2.538  -0.418   0.114  0.00  0.00    +0.108 C 
ATOM      5  S   UNL     1      -3.470  -1.773  -0.681  0.00  0.00    -0.139 S 
ATOM      6  C   UNL     1      -3.417  -3.127   0.514  0.00  0.00    +0.165 C 
ATOM      7  C   UNL     1      -2.207  -3.236   1.330  0.00  0.00    +0.195 C 
ATOM      8  N   UNL     1      -1.021  -2.885   1.121  0.00  0.00    -0.221 NA
ATOM      9  C   UNL     1      -0.538  -2.190  -0.062  0.00  0.00    +0.276 C 
ATOM     10  N   UNL     1       0.917  -1.986  -0.025  0.00  0.00    -0.156 NA
ATOM     11  N   UNL     1       1.125  -0.766  -0.013  0.00  0.00    -0.157 NA
ENDROOT
BRANCH   4  12
ATOM     12  C   UNL     1      -2.809   0.882  -0.598  0.00  0.00    -0.030 A 
ATOM     13  C   UNL     1      -2.551   0.995  -1.951  0.00  0.00    +0.008 A 
ATOM     14  C   UNL     1      -2.798   2.187  -2.606  0.00  0.00    +0.046 A 
ATOM     15  C   UNL     1      -3.305   3.270  -1.903  0.00  0.00    +0.117 A 
ATOM     16  C   UNL     1      -3.563   3.154  -0.545  0.00  0.00    +0.046 A 
ATOM     17  C   UNL     1      -3.320   1.959   0.103  0.00  0.00    +0.008 A 
BRANCH  15  18
ATOM     18  O   UNL     1      -3.548   4.443  -2.545  0.00  0.00    -0.507 OA
ATOM     19  H   UNL     1      -4.441   4.514  -2.910  0.00  0.00    +0.292 HD
ENDBRANCH  15  18
ENDBRANCH   4  12
BRANCH   7  20
ATOM     20  O   UNL     1      -2.403  -3.823   2.529  0.00  0.00    -0.495 OA
ATOM     21  H   UNL     1      -1.603  -3.895   3.067  0.00  0.00    +0.293 HD
ENDBRANCH   7  20
TORSDOF 3
