REMARK  Name = ZINC09720939
REMARK  10 active torsions:
REMARK  status: ('A' for Active; 'I' for Inactive)
REMARK    1  A    between atoms: C_1  and  C_2
REMARK    2  A    between atoms: C_2  and  O_3
REMARK    3  A    between atoms: O_3  and  C_4
REMARK    4  A    between atoms: C_8  and  C_11
REMARK    5  A    between atoms: C_9  and  O_10
REMARK    6  A    between atoms: N_12  and  C_13
REMARK    7  A    between atoms: C_13  and  C_14
REMARK    8  A    between atoms: C_14  and  N_15
REMARK    9  A    between atoms: N_15  and  C_16
REMARK   10  A    between atoms: C_19  and  N_22
REMARK                            x       y       z     vdW  Elec       q    Type
REMARK                         _______ _______ _______ _____ _____    ______ ____
ROOT
ATOM      1  C   UNL     1       3.889  -5.743   0.951  0.00  0.00    +0.091 C 
ATOM      2  N   UNL     1       3.543  -5.009  -0.058  0.00  0.00    -0.388 N 
ATOM      3  H   UNL     1       4.211  -4.920  -0.927  0.00  0.00    +0.159 HD
ENDROOT
BRANCH   1   8
ATOM      4  C   UNL     1       6.771  -7.925   1.999  0.00  0.00    +0.163 A 
ATOM      5  C   UNL     1       7.604  -7.808   0.899  0.00  0.00    +0.065 A 
ATOM      6  C   UNL     1       7.233  -7.022  -0.180  0.00  0.00    +0.036 A 
ATOM      7  C   UNL     1       6.026  -6.353  -0.171  0.00  0.00    +0.044 A 
ATOM      8  C   UNL     1       5.176  -6.459   0.935  0.00  0.00    +0.051 A 
ATOM      9  C   UNL     1       5.554  -7.254   2.025  0.00  0.00    +0.168 A 
ATOM     10 BR   UNL     1       5.523  -5.288  -1.651  0.00  0.00    -0.048 Br
ATOM     11 BR   UNL     1       8.382  -6.870  -1.674  0.00  0.00    -0.049 Br
BRANCH   9  12
ATOM     12  O   UNL     1       4.734  -7.368   3.102  0.00  0.00    -0.503 OA
ATOM     13  H   UNL     1       3.772  -6.836   3.119  0.00  0.00    +0.292 HD
ENDBRANCH   9  12
BRANCH   4  14
ATOM     14  O   UNL     1       7.143  -8.699   3.054  0.00  0.00    -0.489 OA
BRANCH  14  16
ATOM     15  C   UNL     1       8.650 -10.176   4.231  0.00  0.00    +0.048 C 
ATOM     16  C   UNL     1       8.406  -9.360   2.960  0.00  0.00    +0.226 C 
ENDBRANCH  14  16
ENDBRANCH   4  14
ENDBRANCH   1   8
BRANCH   2  17
ATOM     17  C   UNL     1       2.263  -4.298  -0.042  0.00  0.00    +0.131 C 
BRANCH  17  18
ATOM     18  C   UNL     1       2.518  -2.789  -0.037  0.00  0.00    +0.122 C 
BRANCH  18  19
ATOM     19  N   UNL     1       1.238  -2.077  -0.021  0.00  0.00    -0.342 N 
ATOM     20  H   UNL     1       0.294  -2.643  -0.014  0.00  0.00    +0.146 HD
BRANCH  19  21
ATOM     21  C   UNL     1       1.215  -0.681  -0.013  0.00  0.00    +0.027 A 
ATOM     22  C   UNL     1       0.002  -0.004   0.002  0.00  0.00    +0.025 A 
ATOM     23  C   UNL     1      -0.017   1.377   0.010  0.00  0.00    +0.034 A 
ATOM     24  C   UNL     1       1.171   2.086   0.002  0.00  0.00    +0.126 A 
ATOM     25  C   UNL     1       2.380   1.416  -0.013  0.00  0.00    +0.034 A 
ATOM     26  C   UNL     1       2.406   0.035  -0.021  0.00  0.00    +0.025 A 
BRANCH  24  27
ATOM     27  N   UNL     1       1.147   3.566   0.010  0.00  0.00    +0.056 N 
ATOM     28  O   UNL     1       0.082   4.158   0.023  0.00  0.00    -0.126 OA
ATOM     29  O   UNL     1       2.191   4.192   0.003  0.00  0.00    -0.126 OA
ENDBRANCH  24  27
ENDBRANCH  19  21
ENDBRANCH  18  19
ENDBRANCH  17  18
ENDBRANCH   2  17
TORSDOF 9
