REMARK  Name = ZINC37063518
REMARK  7 active torsions:
REMARK  status: ('A' for Active; 'I' for Inactive)
REMARK    1  A    between atoms: C_2  and  N_19
REMARK    2  A    between atoms: C_6  and  S_7
REMARK    3  A    between atoms: S_7  and  N_10
REMARK    4  A    between atoms: N_10  and  C_11
REMARK    5  A    between atoms: N_10  and  C_14
REMARK    6  A    between atoms: C_11  and  C_12
REMARK    7  A    between atoms: C_14  and  C_15
REMARK                            x       y       z     vdW  Elec       q    Type
REMARK                         _______ _______ _______ _____ _____    ______ ____
ROOT
ATOM      1  C   UNL     1      -0.017   1.377   0.010  0.00  0.00    +0.054 A 
ATOM      2  C   UNL     1       1.177   2.087   0.002  0.00  0.00    +0.028 A 
ATOM      3  C   UNL     1       2.387   1.407  -0.013  0.00  0.00    +0.045 A 
ATOM      4  C   UNL     1       2.402   0.025  -0.021  0.00  0.00    +0.080 A 
ATOM      5  C   UNL     1       1.210  -0.681  -0.013  0.00  0.00    +0.168 A 
ATOM      6  C   UNL     1       0.002  -0.004   0.002  0.00  0.00    +0.144 A 
ATOM      7  F   UNL     1       1.225  -2.032  -0.021  0.00  0.00    -0.202 F 
ATOM      8 CL   UNL     1       3.914  -0.827  -0.040  0.00  0.00    -0.080 Cl
ENDROOT
BRANCH   6   9
ATOM      9  S   UNL     1      -1.512  -0.905   0.012  0.00  0.00    +0.065 S 
ATOM     10  O   UNL     1      -1.393  -1.888   1.031  0.00  0.00    -0.153 OA
ATOM     11  O   UNL     1      -2.558   0.058  -0.000  0.00  0.00    -0.153 OA
BRANCH   9  12
ATOM     12  N   UNL     1      -1.605  -1.722  -1.426  0.00  0.00    -0.149 NA
BRANCH  12  13
ATOM     13  C   UNL     1      -1.053  -3.075  -1.536  0.00  0.00    +0.228 C 
BRANCH  13  14
ATOM     14  C   UNL     1      -2.122  -4.061  -1.310  0.00  0.00    +0.080 C 
ATOM     15  N   UNL     1      -2.947  -4.822  -1.135  0.00  0.00    -0.195 NA
ENDBRANCH  13  14
ENDBRANCH  12  13
BRANCH  12  16
ATOM     16  C   UNL     1      -2.239  -1.093  -2.587  0.00  0.00    +0.228 C 
BRANCH  16  17
ATOM     17  C   UNL     1      -1.209  -0.452  -3.421  0.00  0.00    +0.080 C 
ATOM     18  N   UNL     1      -0.414   0.043  -4.064  0.00  0.00    -0.195 NA
ENDBRANCH  16  17
ENDBRANCH  12  16
ENDBRANCH   9  12
ENDBRANCH   6   9
BRANCH   2  19
ATOM     19  N   UNL     1       1.160   3.485   0.009  0.00  0.00    -0.358 N 
ATOM     20  H   UNL     1       0.314   3.960   0.019  0.00  0.00    +0.142 HD
ATOM     21  H   UNL     1       1.994   3.981   0.004  0.00  0.00    +0.142 HD
ENDBRANCH   2  19
TORSDOF 7
