REMARK  Name = ZINC63005931
REMARK  8 active torsions:
REMARK  status: ('A' for Active; 'I' for Inactive)
REMARK    1  A    between atoms: C_2  and  C_10
REMARK    2  A    between atoms: C_5  and  N_8
REMARK    3  A    between atoms: N_12  and  C_13
REMARK    4  A    between atoms: N_12  and  C_16
REMARK    5  A    between atoms: C_13  and  C_14
REMARK    6  A    between atoms: C_14  and  O_15
REMARK    7  A    between atoms: C_16  and  C_17
REMARK    8  A    between atoms: C_17  and  O_18
REMARK                            x       y       z     vdW  Elec       q    Type
REMARK                         _______ _______ _______ _____ _____    ______ ____
ROOT
ATOM      1  C   UNL     1      -0.443   5.228   0.174  0.00  0.00    +0.053 A 
ATOM      2  C   UNL     1       0.015   4.268  -0.733  0.00  0.00    +0.042 A 
ATOM      3  C   UNL     1      -0.730   3.983  -1.881  0.00  0.00    +0.053 A 
ATOM      4  C   UNL     1      -1.913   4.649  -2.116  0.00  0.00    +0.147 A 
ATOM      5  C   UNL     1      -2.367   5.606  -1.210  0.00  0.00    +0.096 A 
ATOM      6  C   UNL     1      -1.627   5.891  -0.065  0.00  0.00    +0.147 A 
ATOM      7  F   UNL     1      -2.070   6.819   0.811  0.00  0.00    -0.203 F 
ATOM      8  F   UNL     1      -2.634   4.375  -3.225  0.00  0.00    -0.203 F 
ENDROOT
BRANCH   5   9
ATOM      9  N   UNL     1      -3.564   6.279  -1.450  0.00  0.00    -0.354 N 
ATOM     10  H   UNL     1      -4.080   6.081  -2.247  0.00  0.00    +0.142 HD
ATOM     11  H   UNL     1      -3.880   6.945  -0.820  0.00  0.00    +0.142 HD
ENDBRANCH   5   9
BRANCH   2  12
ATOM     12  C   UNL     1       1.282   3.556  -0.479  0.00  0.00    +0.247 C 
ATOM     13  O   UNL     1       1.336   2.348  -0.601  0.00  0.00    -0.270 OA
ATOM     14  N   UNL     1       2.381   4.246  -0.113  0.00  0.00    -0.293 N 
BRANCH  14  15
ATOM     15  C   UNL     1       3.664   3.555   0.035  0.00  0.00    +0.136 C 
BRANCH  15  16
ATOM     16  C   UNL     1       4.348   3.454  -1.330  0.00  0.00    +0.174 C 
BRANCH  16  17
ATOM     17  O   UNL     1       4.676   4.764  -1.798  0.00  0.00    -0.393 OA
ATOM     18  H   UNL     1       5.113   4.776  -2.660  0.00  0.00    +0.209 HD
ENDBRANCH  16  17
ENDBRANCH  15  16
ENDBRANCH  14  15
BRANCH  14  19
ATOM     19  C   UNL     1       2.291   5.687   0.138  0.00  0.00    +0.136 C 
BRANCH  19  20
ATOM     20  C   UNL     1       2.195   5.937   1.644  0.00  0.00    +0.174 C 
BRANCH  20  21
ATOM     21  O   UNL     1       3.429   5.575   2.267  0.00  0.00    -0.393 OA
ATOM     22  H   UNL     1       3.440   5.708   3.224  0.00  0.00    +0.209 HD
ENDBRANCH  20  21
ENDBRANCH  19  20
ENDBRANCH  14  19
ENDBRANCH   2  12
TORSDOF 8
