REMARK  Name = ZINC41036206
REMARK  8 active torsions:
REMARK  status: ('A' for Active; 'I' for Inactive)
REMARK    1  A    between atoms: C_1  and  C_2
REMARK    2  A    between atoms: C_7  and  C_9
REMARK    3  A    between atoms: C_7  and  N_12
REMARK    4  A    between atoms: N_15  and  C_16
REMARK    5  A    between atoms: N_15  and  C_17
REMARK    6  A    between atoms: C_17  and  C_18
REMARK    7  A    between atoms: N_20  and  C_21
REMARK    8  A    between atoms: N_20  and  C_22
REMARK                            x       y       z     vdW  Elec       q    Type
REMARK                         _______ _______ _______ _____ _____    ______ ____
ROOT
ATOM      1  N   UNL     1      -0.093   1.445   2.703  0.00  0.00    -0.283 N 
ATOM      2  C   UNL     1      -0.490   2.107   3.807  0.00  0.00    +0.303 C 
ATOM      3  O   UNL     1      -0.833   1.489   4.796  0.00  0.00    -0.253 OA
ATOM      4  N   UNL     1      -0.509   3.455   3.814  0.00  0.00    -0.280 N 
ATOM      5  C   UNL     1      -0.096   4.200   2.622  0.00  0.00    +0.134 C 
ATOM      6  H   UNL     1       0.180   1.938   1.913  0.00  0.00    +0.151 HD
ENDROOT
BRANCH   1  12
ATOM      7  C   UNL     1       2.278   1.538   3.489  0.00  0.00    +0.007 C 
ATOM      8  C   UNL     1       2.299   0.008   3.480  0.00  0.00    -0.012 C 
ATOM      9  C   UNL     1       2.759  -0.488   2.108  0.00  0.00    +0.003 C 
ATOM     10  C   UNL     1       1.793   0.015   1.033  0.00  0.00    +0.003 C 
ATOM     11  C   UNL     1       0.387  -0.516   1.323  0.00  0.00    +0.037 C 
ATOM     12  C   UNL     1      -0.073  -0.020   2.695  0.00  0.00    +0.137 C 
ATOM     13  C   UNL     1       0.893  -0.523   3.769  0.00  0.00    +0.040 C 
BRANCH  12  14
ATOM     14  C   UNL     1      -1.457  -0.543   2.979  0.00  0.00    +0.379 C 
ATOM     15  O   UNL     1      -1.659  -1.744   3.018  0.00  0.00    -0.244 OA
ATOM     16  O   UNL     1      -2.376   0.236   3.171  0.00  0.00    -0.244 OA
ENDBRANCH  12  14
ENDBRANCH   1  12
BRANCH   4  17
ATOM     17  C   UNL     1      -0.941   4.175   5.015  0.00  0.00    +0.204 C 
BRANCH  17  18
ATOM     18  C   UNL     1       0.250   4.438   5.899  0.00  0.00    +0.233 C 
ATOM     19  O   UNL     1       1.352   4.060   5.561  0.00  0.00    -0.274 OA
ATOM     20  N   UNL     1       0.091   5.092   7.067  0.00  0.00    -0.306 N 
ATOM     21  C   UNL     1       1.249   5.347   7.927  0.00  0.00    +0.131 C 
ATOM     22  C   UNL     1      -1.240   5.547   7.476  0.00  0.00    +0.131 C 
ENDBRANCH  17  18
ENDBRANCH   4  17
TORSDOF 4
