REMARK  Name = ZINC60382454
REMARK  7 active torsions:
REMARK  status: ('A' for Active; 'I' for Inactive)
REMARK    1  A    between atoms: C_9  and  C_12
REMARK    2  A    between atoms: N_14  and  N_15
REMARK    3  A    between atoms: C_16  and  C_18
REMARK    4  A    between atoms: C_18  and  O_19
REMARK    5  A    between atoms: O_19  and  C_20
REMARK    6  A    between atoms: C_20  and  C_22
REMARK    7  A    between atoms: C_27  and  O_28
REMARK                            x       y       z     vdW  Elec       q    Type
REMARK                         _______ _______ _______ _____ _____    ______ ____
ROOT
ATOM      1  N   UNL     1       6.355  -4.522  -0.051  0.00  0.00    -0.231 N 
ATOM      2  C   UNL     1       6.593  -5.804  -0.392  0.00  0.00    +0.267 C 
ATOM      3  O   UNL     1       5.752  -6.437  -0.994  0.00  0.00    -0.271 OA
ATOM      4  H   UNL     1       7.028  -4.015   0.430  0.00  0.00    +0.173 HD
ENDROOT
BRANCH   1   7
ATOM      5  C   UNL     1       4.898  -2.639  -0.050  0.00  0.00    +0.273 C 
ATOM      6  O   UNL     1       5.739  -2.006   0.552  0.00  0.00    -0.270 OA
ATOM      7  N   UNL     1       5.136  -3.921  -0.391  0.00  0.00    -0.231 N 
ATOM      8  H   UNL     1       4.464  -4.428  -0.873  0.00  0.00    +0.173 HD
BRANCH   5  17
ATOM      9  C   UNL     1      -0.017   1.378   0.010  0.00  0.00    +0.004 A 
ATOM     10  C   UNL     1       1.170   2.088   0.002  0.00  0.00    +0.004 A 
ATOM     11  C   UNL     1       2.378   1.418  -0.012  0.00  0.00    +0.049 A 
ATOM     12  C   UNL     1       2.404   0.031  -0.019  0.00  0.00    +0.163 A 
ATOM     13  C   UNL     1       1.212  -0.683  -0.014  0.00  0.00    +0.162 A 
ATOM     14  C   UNL     1       0.002  -0.004   0.002  0.00  0.00    +0.049 A 
ATOM     15  O   UNL     1       1.214  -2.043  -0.029  0.00  0.00    -0.484 OA
ATOM     16  C   UNL     1       2.441  -2.689   0.331  0.00  0.00    +0.283 C 
ATOM     17  C   UNL     1       3.587  -1.993  -0.416  0.00  0.00    +0.297 C 
ATOM     18  O   UNL     1       3.602  -0.615  -0.029  0.00  0.00    -0.472 OA
ENDBRANCH   5  17
ENDBRANCH   1   7
BRANCH   2  19
ATOM     19  C   UNL     1       7.905  -6.450  -0.026  0.00  0.00    +0.329 C 
BRANCH  19  20
ATOM     20  O   UNL     1       7.917  -7.801  -0.493  0.00  0.00    -0.452 OA
BRANCH  20  21
ATOM     21  C   UNL     1       9.027  -8.524  -0.245  0.00  0.00    +0.343 C 
ATOM     22  O   UNL     1       9.958  -8.021   0.352  0.00  0.00    -0.245 OA
BRANCH  21  23
ATOM     23  C   UNL     1       9.111  -9.924  -0.698  0.00  0.00    +0.101 A 
ATOM     24  C   UNL     1       8.044 -10.504  -1.390  0.00  0.00    +0.034 A 
ATOM     25  C   UNL     1       8.129 -11.814  -1.811  0.00  0.00    +0.019 A 
ATOM     26  C   UNL     1       9.269 -12.559  -1.551  0.00  0.00    +0.019 A 
ATOM     27  C   UNL     1      10.329 -11.998  -0.868  0.00  0.00    +0.047 A 
ATOM     28  C   UNL     1      10.263 -10.680  -0.442  0.00  0.00    +0.131 A 
ATOM     29 BR   UNL     1       6.685 -12.598  -2.746  0.00  0.00    -0.050 Br
BRANCH  28  30
ATOM     30  O   UNL     1      11.307 -10.126   0.224  0.00  0.00    -0.506 OA
ATOM     31  H   UNL     1      11.263 -10.234   1.184  0.00  0.00    +0.292 HD
ENDBRANCH  28  30
ENDBRANCH  21  23
ENDBRANCH  20  21
ENDBRANCH  19  20
ENDBRANCH   2  19
TORSDOF 7
