REMARK  Name = ZINC12756901
REMARK  7 active torsions:
REMARK  status: ('A' for Active; 'I' for Inactive)
REMARK    1  A    between atoms: C_1  and  C_2
REMARK    2  A    between atoms: C_7  and  N_8
REMARK    3  A    between atoms: C_9  and  C_11
REMARK    4  A    between atoms: C_11  and  N_12
REMARK    5  A    between atoms: N_15  and  C_16
REMARK    6  A    between atoms: C_16  and  C_18
REMARK    7  A    between atoms: C_16  and  C_19
REMARK                            x       y       z     vdW  Elec       q    Type
REMARK                         _______ _______ _______ _____ _____    ______ ____
ROOT
ATOM      1  N   UNL     1       3.697   0.889   0.318  0.00  0.00    -0.291 N 
ATOM      2  C   UNL     1       2.382   0.642   0.477  0.00  0.00    +0.300 C 
ATOM      3  O   UNL     1       2.012  -0.191   1.282  0.00  0.00    -0.253 OA
ATOM      4  N   UNL     1       1.476   1.320  -0.256  0.00  0.00    -0.293 N 
ATOM      5  H   UNL     1       3.992   1.554  -0.324  0.00  0.00    +0.151 HD
ATOM      6  H   UNL     1       1.770   1.985  -0.897  0.00  0.00    +0.151 HD
ENDROOT
BRANCH   4   7
ATOM      7  C   UNL     1       0.046   1.052  -0.083  0.00  0.00    +0.103 C 
ATOM      8  C   UNL     1      -0.473   1.819   1.135  0.00  0.00    +0.033 C 
BRANCH   7   9
ATOM      9  C   UNL     1      -0.701   1.498  -1.313  0.00  0.00    -0.009 A 
ATOM     10  C   UNL     1      -0.198   2.521  -2.095  0.00  0.00    +0.007 A 
ATOM     11  C   UNL     1      -0.880   2.927  -3.226  0.00  0.00    +0.000 A 
ATOM     12  C   UNL     1      -2.072   2.317  -3.571  0.00  0.00    +0.001 A 
ATOM     13  C   UNL     1      -2.580   1.298  -2.787  0.00  0.00    +0.020 A 
ATOM     14  C   UNL     1      -1.894   0.888  -1.657  0.00  0.00    +0.046 A 
ATOM     15 CL   UNL     1      -2.531  -0.392  -0.672  0.00  0.00    -0.083 Cl
ENDBRANCH   7   9
ENDBRANCH   4   7
BRANCH   1  16
ATOM     16  C   UNL     1       4.682   0.153   1.115  0.00  0.00    +0.202 C 
BRANCH  16  18
ATOM     17  N   UNL     1       7.142   0.071   1.358  0.00  0.00    -0.284 N 
ATOM     18  C   UNL     1       6.069   0.613   0.748  0.00  0.00    +0.234 C 
ATOM     19  O   UNL     1       6.221   1.471  -0.095  0.00  0.00    -0.274 OA
ATOM     20  H   UNL     1       7.026  -0.662   1.982  0.00  0.00    +0.155 HD
BRANCH  17  27
ATOM     21  C   UNL     1       9.048   0.081   3.470  0.00  0.00    +0.046 C 
ATOM     22  C   UNL     1       9.384   0.588   2.092  0.00  0.00    -0.028 A 
ATOM     23  C   UNL     1      10.650   1.072   1.823  0.00  0.00    +0.020 A 
ATOM     24  C   UNL     1      10.957   1.543   0.559  0.00  0.00    +0.018 A 
ATOM     25  C   UNL     1      10.001   1.526  -0.440  0.00  0.00    +0.017 A 
ATOM     26  C   UNL     1       8.736   1.039  -0.178  0.00  0.00    +0.024 A 
ATOM     27  C   UNL     1       8.424   0.565   1.089  0.00  0.00    +0.036 A 
ATOM     28 BR   UNL     1      12.689   2.212   0.197  0.00  0.00    -0.050 Br
ENDBRANCH  17  27
ENDBRANCH  16  18
ENDBRANCH   1  16
TORSDOF 5
