REMARK  Name = ZINC66636725
REMARK  5 active torsions:
REMARK  status: ('A' for Active; 'I' for Inactive)
REMARK    1  A    between atoms: C_1  and  C_2
REMARK    2  A    between atoms: C_2  and  N_3
REMARK    3  A    between atoms: C_4  and  C_9
REMARK    4  A    between atoms: C_9  and  N_10
REMARK    5  A    between atoms: C_11  and  C_13
REMARK                            x       y       z     vdW  Elec       q    Type
REMARK                         _______ _______ _______ _____ _____    ______ ____
ROOT
ATOM      1  N   UNL     1      -2.734  -1.015   3.468  0.00  0.00    -0.308 N 
ATOM      2  C   UNL     1      -2.543  -0.961   4.801  0.00  0.00    +0.221 C 
ATOM      3  O   UNL     1      -1.453  -0.669   5.246  0.00  0.00    -0.275 OA
ATOM      4  H   UNL     1      -3.583  -1.320   3.111  0.00  0.00    +0.149 HD
ENDROOT
BRANCH   2   5
ATOM      5  C   UNL     1      -3.684  -1.264   5.738  0.00  0.00    +0.112 C 
ATOM      6  C   UNL     1      -3.583  -0.362   6.971  0.00  0.00    +0.058 C 
ATOM      7  C   UNL     1      -4.562  -0.884   8.030  0.00  0.00    +0.230 C 
ATOM      8  O   UNL     1      -4.133  -2.183   8.439  0.00  0.00    -0.492 OA
ATOM      9  C   UNL     1      -3.844  -3.091   7.470  0.00  0.00    +0.124 A 
ATOM     10  C   UNL     1      -3.616  -2.710   6.160  0.00  0.00    +0.006 A 
ATOM     11  C   UNL     1      -3.319  -3.669   5.207  0.00  0.00    +0.008 A 
ATOM     12  C   UNL     1      -3.253  -5.003   5.557  0.00  0.00    +0.001 A 
ATOM     13  C   UNL     1      -3.483  -5.386   6.866  0.00  0.00    +0.004 A 
ATOM     14  C   UNL     1      -3.778  -4.436   7.819  0.00  0.00    +0.046 A 
ENDBRANCH   2   5
BRANCH   1  15
ATOM     15  C   UNL     1      -1.659  -0.613   2.557  0.00  0.00    +0.180 C 
BRANCH  15  17
ATOM     16  N   UNL     1      -1.380  -0.481   0.013  0.00  0.00    -0.306 N 
ATOM     17  C   UNL     1      -2.124  -0.765   1.132  0.00  0.00    +0.149 A 
ATOM     18  N   UNL     1      -3.291  -1.186   0.762  0.00  0.00    -0.157 NA
ATOM     19  N   UNL     1      -3.330  -1.184  -0.639  0.00  0.00    -0.254 N 
ATOM     20  C   UNL     1      -2.134  -0.737  -1.074  0.00  0.00    +0.176 A 
ATOM     21  S   UNL     1      -1.659  -0.535  -2.707  0.00  0.00    -0.011 S 
ATOM     22  H   UNL     1      -4.080  -1.451  -1.194  0.00  0.00    +0.191 HD
BRANCH  16  24
ATOM     23  C   UNL     1      -0.018   1.551   0.024  0.00  0.00    +0.027 C 
ATOM     24  C   UNL     1      -0.004   0.021   0.004  0.00  0.00    +0.122 C 
ENDBRANCH  16  24
ENDBRANCH  15  17
ENDBRANCH   1  15
TORSDOF 4
