REMARK  Name = ZINC38095227
REMARK  5 active torsions:
REMARK  status: ('A' for Active; 'I' for Inactive)
REMARK    1  A    between atoms: C_1  and  C_2
REMARK    2  A    between atoms: C_2  and  C_3
REMARK    3  A    between atoms: C_10  and  C_12
REMARK    4  A    between atoms: C_14  and  N_19
REMARK    5  A    between atoms: C_17  and  C_18
REMARK                            x       y       z     vdW  Elec       q    Type
REMARK                         _______ _______ _______ _____ _____    ______ ____
ROOT
ATOM      1  C   UNL     1      -1.329  -0.815   0.306  0.00  0.00    +0.006 C 
ATOM      2  C   UNL     1      -1.337  -2.344   0.388  0.00  0.00    +0.006 C 
ATOM      3  C   UNL     1      -2.780  -2.851   0.334  0.00  0.00    +0.019 C 
ATOM      4  C   UNL     1      -3.556  -2.299   1.534  0.00  0.00    +0.108 C 
ATOM      5  N   UNL     1      -3.431  -0.835   1.545  0.00  0.00    -0.297 N 
ATOM      6  C   UNL     1      -2.089  -0.239   1.505  0.00  0.00    +0.111 C 
ATOM      7  C   UNL     1      -4.528  -0.053   1.590  0.00  0.00    +0.248 C 
ATOM      8  O   UNL     1      -4.411   1.154   1.672  0.00  0.00    -0.270 OA
ENDROOT
BRANCH   7   9
ATOM      9  C   UNL     1      -5.874  -0.663   1.538  0.00  0.00    +0.060 A 
ATOM     10  C   UNL     1      -6.242  -1.650   2.460  0.00  0.00    +0.039 A 
ATOM     11  C   UNL     1      -7.520  -2.191   2.368  0.00  0.00    +0.044 A 
ATOM     12  C   UNL     1      -8.378  -1.736   1.373  0.00  0.00    +0.133 A 
ATOM     13  N   UNL     1      -7.996  -0.805   0.521  0.00  0.00    -0.258 NA
ATOM     14  C   UNL     1      -6.798  -0.261   0.574  0.00  0.00    +0.050 A 
ATOM     15  C   UNL     1      -6.419   0.804  -0.423  0.00  0.00    +0.066 C 
BRANCH  11  16
ATOM     16  N   UNL     1      -7.936  -3.179   3.265  0.00  0.00    -0.357 N 
ATOM     17  H   UNL     1      -7.332  -3.491   3.956  0.00  0.00    +0.142 HD
ATOM     18  H   UNL     1      -8.828  -3.552   3.195  0.00  0.00    +0.142 HD
ENDBRANCH  11  16
ENDBRANCH   7   9
BRANCH   1  20
ATOM     19  C   UNL     1       0.129   1.206   0.121  0.00  0.00    +0.004 C 
ATOM     20  C   UNL     1       0.115  -0.311   0.326  0.00  0.00    +0.002 C 
ENDBRANCH   1  20
TORSDOF 3
