REMARK  Name = ZINC04787862
REMARK  8 active torsions:
REMARK  status: ('A' for Active; 'I' for Inactive)
REMARK    1  A    between atoms: C_1  and  C_2
REMARK    2  A    between atoms: N_4  and  C_5
REMARK    3  A    between atoms: C_7  and  N_20
REMARK    4  A    between atoms: C_9  and  O_19
REMARK    5  A    between atoms: C_12  and  C_17
REMARK    6  A    between atoms: C_14  and  O_16
REMARK    7  A    between atoms: C_17  and  O_18
REMARK    8  A    between atoms: C_21  and  C_23
REMARK                            x       y       z     vdW  Elec       q    Type
REMARK                         _______ _______ _______ _____ _____    ______ ____
ROOT
ATOM      1  C   UNL     1       1.739   1.671   0.144  0.00  0.00    +0.129 C 
ATOM      2  C   UNL     1       1.390   3.147  -0.073  0.00  0.00    +0.151 C 
ATOM      3  C   UNL     1       0.439   3.269  -1.266  0.00  0.00    +0.270 C 
ATOM      4  O   UNL     1      -0.729   2.482  -1.025  0.00  0.00    -0.341 OA
ATOM      5  C   UNL     1      -0.470   1.086  -0.862  0.00  0.00    +0.177 C 
ATOM      6  C   UNL     1       0.445   0.877   0.348  0.00  0.00    +0.168 C 
ENDROOT
BRANCH   1  10
ATOM      7  C   UNL     1       4.286   0.340   2.673  0.00  0.00    +0.109 C 
ATOM      8  C   UNL     1       3.412   0.478   1.453  0.00  0.00    +0.210 C 
ATOM      9  O   UNL     1       3.449  -0.365   0.582  0.00  0.00    -0.276 OA
ATOM     10  N   UNL     1       2.588   1.538   1.330  0.00  0.00    -0.308 N 
ATOM     11  H   UNL     1       2.558   2.212   2.026  0.00  0.00    +0.149 HD
ENDBRANCH   1  10
BRANCH   2  12
ATOM     12  N   UNL     1       0.740   3.678   1.127  0.00  0.00    -0.306 N 
ATOM     13  C   UNL     1       1.444   4.425   2.001  0.00  0.00    +0.210 C 
ATOM     14  O   UNL     1       2.616   4.657   1.794  0.00  0.00    -0.276 OA
ATOM     15  C   UNL     1       0.774   4.971   3.236  0.00  0.00    +0.109 C 
ATOM     16  H   UNL     1      -0.198   3.492   1.294  0.00  0.00    +0.149 HD
ENDBRANCH   2  12
BRANCH   6  17
ATOM     17  O   UNL     1      -0.214   1.334   1.531  0.00  0.00    -0.387 OA
ATOM     18  H   UNL     1      -1.043   0.875   1.722  0.00  0.00    +0.210 HD
ENDBRANCH   6  17
BRANCH   3  19
ATOM     19  O   UNL     1       0.065   4.637  -1.440  0.00  0.00    -0.365 OA
ATOM     20  H   UNL     1      -0.538   4.789  -2.180  0.00  0.00    +0.213 HD
ENDBRANCH   3  19
BRANCH   5  21
ATOM     21  C   UNL     1      -1.789   0.345  -0.638  0.00  0.00    +0.190 C 
BRANCH  21  22
ATOM     22  O   UNL     1      -2.596   0.443  -1.813  0.00  0.00    -0.392 OA
ATOM     23  H   UNL     1      -3.449  -0.006  -1.743  0.00  0.00    +0.210 HD
ENDBRANCH  21  22
ENDBRANCH   5  21
TORSDOF 6
