REMARK  Name = ZINC15951947
REMARK  5 active torsions:
REMARK  status: ('A' for Active; 'I' for Inactive)
REMARK    1  A    between atoms: C_1  and  C_2
REMARK    2  A    between atoms: C_5  and  C_8
REMARK    3  A    between atoms: C_8  and  C_10
REMARK    4  A    between atoms: C_8  and  N_11
REMARK    5  A    between atoms: C_12  and  C_14
REMARK                            x       y       z     vdW  Elec       q    Type
REMARK                         _______ _______ _______ _____ _____    ______ ____
ROOT
ATOM      1  C   UNL     1       2.642  -6.344   1.722  0.00  0.00    +0.097 A 
ATOM      2  C   UNL     1       2.846  -5.519   2.819  0.00  0.00    +0.030 A 
ATOM      3  C   UNL     1       3.646  -6.053   3.924  0.00  0.00    +0.019 A 
ATOM      4  C   UNL     1       3.677  -5.404   5.164  0.00  0.00    +0.026 A 
ATOM      5  C   UNL     1       4.434  -5.927   6.188  0.00  0.00    +0.019 A 
ATOM      6  C   UNL     1       5.164  -7.093   5.996  0.00  0.00    +0.019 A 
ATOM      7  C   UNL     1       5.143  -7.743   4.779  0.00  0.00    +0.048 A 
ATOM      8  C   UNL     1       4.389  -7.233   3.733  0.00  0.00    +0.137 A 
ATOM      9  O   UNL     1       4.366  -7.858   2.530  0.00  0.00    -0.439 OA
ATOM     10  C   UNL     1       3.249  -7.693   1.772  0.00  0.00    +0.205 A 
ATOM     11  N   UNL     1       2.730  -8.690   1.107  0.00  0.00    -0.369 N 
ATOM     12 BR   UNL     1       4.481  -5.054   7.864  0.00  0.00    -0.050 Br
ATOM     13  H   UNL     1       1.890  -8.574   0.637  0.00  0.00    +0.159 HD
ATOM     14  H   UNL     1       3.186  -9.546   1.082  0.00  0.00    +0.159 HD
ENDROOT
BRANCH   1  16
ATOM     15  N   UNL     1       1.213  -4.713   0.597  0.00  0.00    -0.305 N 
ATOM     16  C   UNL     1       1.852  -5.899   0.563  0.00  0.00    +0.250 C 
ATOM     17  O   UNL     1       1.775  -6.603  -0.427  0.00  0.00    -0.270 OA
ATOM     18  H   UNL     1       1.202  -4.192   1.415  0.00  0.00    +0.150 HD
BRANCH  15  19
ATOM     19  C   UNL     1       0.536  -4.211  -0.601  0.00  0.00    +0.100 C 
ATOM     20  C   UNL     1      -0.874  -4.801  -0.675  0.00  0.00    +0.033 C 
BRANCH  19  25
ATOM     21  C   UNL     1       0.195   1.552  -0.349  0.00  0.00    +0.044 C 
ATOM     22  C   UNL     1       0.284   0.049  -0.415  0.00  0.00    -0.050 A 
ATOM     23  C   UNL     1       0.573  -0.574  -1.614  0.00  0.00    +0.004 A 
ATOM     24  C   UNL     1       0.654  -1.953  -1.674  0.00  0.00    +0.006 A 
ATOM     25  C   UNL     1       0.448  -2.708  -0.535  0.00  0.00    -0.027 A 
ATOM     26  C   UNL     1       0.160  -2.084   0.665  0.00  0.00    +0.006 A 
ATOM     27  C   UNL     1       0.083  -0.705   0.726  0.00  0.00    +0.004 A 
ENDBRANCH  19  25
ENDBRANCH  15  19
ENDBRANCH   1  16
TORSDOF 3
