REMARK  Name = ZINC42117348
REMARK  5 active torsions:
REMARK  status: ('A' for Active; 'I' for Inactive)
REMARK    1  A    between atoms: C_1  and  C_2
REMARK    2  A    between atoms: C_6  and  N_9
REMARK    3  A    between atoms: C_7  and  C_8
REMARK    4  A    between atoms: N_9  and  C_10
REMARK    5  A    between atoms: C_16  and  C_21
REMARK                            x       y       z     vdW  Elec       q    Type
REMARK                         _______ _______ _______ _____ _____    ______ ____
ROOT
ATOM      1  C   UNL     1       0.071  -4.261   2.379  0.00  0.00    +0.190 C 
ATOM      2  C   UNL     1      -0.471  -4.808   3.680  0.00  0.00    +0.004 A 
ATOM      3  C   UNL     1      -1.695  -4.703   4.302  0.00  0.00    +0.023 A 
ATOM      4  C   UNL     1      -1.906  -5.327   5.520  0.00  0.00    +0.019 A 
ATOM      5  C   UNL     1      -0.885  -6.053   6.107  0.00  0.00    +0.020 A 
ATOM      6  C   UNL     1       0.342  -6.159   5.486  0.00  0.00    -0.028 A 
ATOM      7  C   UNL     1       0.561  -5.534   4.259  0.00  0.00    +0.042 A 
ATOM      8  N   UNL     1       1.695  -5.494   3.446  0.00  0.00    -0.283 N 
ATOM      9  C   UNL     1       1.495  -4.773   2.326  0.00  0.00    +0.242 C 
ATOM     10  O   UNL     1       2.301  -4.569   1.443  0.00  0.00    -0.273 OA
ATOM     11  C   UNL     1       1.448  -6.951   6.134  0.00  0.00    +0.046 C 
ATOM     12 BR   UNL     1      -3.585  -5.186   6.380  0.00  0.00    -0.050 Br
ATOM     13  H   UNL     1       2.531  -5.935   3.662  0.00  0.00    +0.155 HD
ENDROOT
BRANCH   1  14
ATOM     14  N   UNL     1       0.051  -2.796   2.390  0.00  0.00    -0.329 N 
ATOM     15  H   UNL     1       0.049  -2.318   3.234  0.00  0.00    +0.147 HD
BRANCH  14  21
ATOM     16  C   UNL     1      -0.018   1.503   0.010  0.00  0.00    +0.044 C 
ATOM     17  C   UNL     1       0.002  -0.004   0.002  0.00  0.00    -0.046 A 
ATOM     18  C   UNL     1       0.006  -0.688  -1.200  0.00  0.00    +0.004 A 
ATOM     19  C   UNL     1       0.024  -2.071  -1.212  0.00  0.00    +0.002 A 
ATOM     20  C   UNL     1       0.039  -2.773  -0.023  0.00  0.00    +0.023 A 
ATOM     21  C   UNL     1       0.036  -2.089   1.186  0.00  0.00    +0.031 A 
ATOM     22  C   UNL     1       0.023  -0.700   1.194  0.00  0.00    -0.027 A 
ATOM     23  C   UNL     1       0.025   0.046   2.504  0.00  0.00    +0.046 C 
ENDBRANCH  14  21
ENDBRANCH   1  14
TORSDOF 2
