REMARK  Name = ZINC39597509
REMARK  7 active torsions:
REMARK  status: ('A' for Active; 'I' for Inactive)
REMARK    1  A    between atoms: C_1  and  N_2
REMARK    2  A    between atoms: C_6  and  C_7
REMARK    3  A    between atoms: C_11  and  C_20
REMARK    4  A    between atoms: N_22  and  C_23
REMARK    5  A    between atoms: C_23  and  C_24
REMARK    6  A    between atoms: C_29  and  O_30
REMARK    7  A    between atoms: O_30  and  C_31
REMARK                            x       y       z     vdW  Elec       q    Type
REMARK                         _______ _______ _______ _____ _____    ______ ____
ROOT
ATOM      1  C   UNL     1      -0.172  -0.420   2.571  0.00  0.00    +0.265 C 
ATOM      2  O   UNL     1      -0.136  -1.250   3.459  0.00  0.00    -0.268 OA
ATOM      3  N   UNL     1      -0.389   0.877   2.868  0.00  0.00    -0.295 N 
ATOM      4  C   UNL     1      -0.606   2.001   1.927  0.00  0.00    +0.121 C 
ATOM      5  C   UNL     1      -1.701   2.863   2.595  0.00  0.00    +0.100 C 
ATOM      6  C   UNL     1      -1.601   2.532   4.093  0.00  0.00    -0.004 C 
ATOM      7  C   UNL     1      -0.470   1.500   4.211  0.00  0.00    +0.115 C 
ATOM      8  C   UNL     1      -1.257   3.787   4.890  0.00  0.00    -0.010 C 
ATOM      9  C   UNL     1      -1.221   3.445   6.382  0.00  0.00    -0.082 C 
ATOM     10  N   UNL     1      -2.527   2.920   6.798  0.00  0.00    +0.379 N 
ATOM     11  C   UNL     1      -2.808   1.662   6.094  0.00  0.00    -0.082 C 
ATOM     12  C   UNL     1      -2.912   1.929   4.590  0.00  0.00    -0.010 C 
ATOM     13  H   UNL     1      -2.520   2.752   7.793  0.00  0.00    -0.086 HD
ATOM     14  H   UNL     1      -3.245   3.594   6.578  0.00  0.00    -0.086 HD
ENDROOT
BRANCH   1  20
ATOM     15  C   UNL     1       0.012  -3.353   1.486  0.00  0.00    +0.150 C 
ATOM     16  N   UNL     1       0.102  -2.123   0.695  0.00  0.00    -0.330 N 
ATOM     17  C   UNL     1       0.274  -2.039  -0.636  0.00  0.00    +0.199 A 
ATOM     18  N   UNL     1       0.306  -0.779  -0.987  0.00  0.00    -0.243 NA
ATOM     19  C   UNL     1       0.158  -0.009   0.091  0.00  0.00    +0.143 A 
ATOM     20  C   UNL     1       0.020  -0.830   1.175  0.00  0.00    +0.124 A 
ENDBRANCH   1  20
BRANCH   5  21
ATOM     21  C   UNL     1      -1.431   4.327   2.360  0.00  0.00    +0.218 C 
ATOM     22  O   UNL     1      -0.290   4.731   2.294  0.00  0.00    -0.275 OA
ATOM     23  N   UNL     1      -2.460   5.188   2.222  0.00  0.00    -0.311 N 
ATOM     24  H   UNL     1      -3.373   4.864   2.274  0.00  0.00    +0.149 HD
BRANCH  23  25
ATOM     25  C   UNL     1      -2.198   6.611   1.993  0.00  0.00    +0.143 C 
BRANCH  25  26
ATOM     26  C   UNL     1      -3.506   7.349   1.874  0.00  0.00    +0.011 A 
ATOM     27  C   UNL     1      -4.006   7.674   0.628  0.00  0.00    +0.009 A 
ATOM     28  C   UNL     1      -5.206   8.352   0.519  0.00  0.00    +0.001 A 
ATOM     29  C   UNL     1      -5.909   8.706   1.656  0.00  0.00    +0.004 A 
ATOM     30  C   UNL     1      -5.413   8.383   2.904  0.00  0.00    +0.046 A 
ATOM     31  C   UNL     1      -4.212   7.698   3.016  0.00  0.00    +0.125 A 
BRANCH  31  32
ATOM     32  O   UNL     1      -3.725   7.375   4.243  0.00  0.00    -0.495 OA
ATOM     33  C   UNL     1      -4.505   7.766   5.375  0.00  0.00    +0.277 C 
ENDBRANCH  31  32
ENDBRANCH  25  26
ENDBRANCH  23  25
ENDBRANCH   5  21
TORSDOF 5
