REMARK  Name = ZINC67063363
REMARK  7 active torsions:
REMARK  status: ('A' for Active; 'I' for Inactive)
REMARK    1  A    between atoms: C_1  and  C_2
REMARK    2  A    between atoms: C_6  and  C_7
REMARK    3  A    between atoms: N_9  and  N_10
REMARK    4  A    between atoms: N_13  and  C_14
REMARK    5  A    between atoms: C_17  and  C_25
REMARK    6  A    between atoms: C_17  and  C_26
REMARK    7  A    between atoms: C_22  and  C_24
REMARK                            x       y       z     vdW  Elec       q    Type
REMARK                         _______ _______ _______ _____ _____    ______ ____
ROOT
ATOM      1  N   UNL     1       0.058  -0.732   4.900  0.00  0.00    -0.218 N 
ATOM      2  C   UNL     1       0.080  -1.625   5.909  0.00  0.00    +0.316 C 
ATOM      3  O   UNL     1       0.086  -1.239   7.062  0.00  0.00    -0.251 OA
ATOM      4  N   UNL     1       0.096  -2.945   5.640  0.00  0.00    -0.291 N 
ATOM      5  H   UNL     1       0.047   0.219   5.094  0.00  0.00    +0.174 HD
ATOM      6  H   UNL     1       0.091  -3.253   4.720  0.00  0.00    +0.151 HD
ENDROOT
BRANCH   4   7
ATOM      7  C   UNL     1       0.119  -3.916   6.737  0.00  0.00    +0.109 C 
ATOM      8  C   UNL     1      -0.466  -5.251   6.258  0.00  0.00    +0.034 C 
ATOM      9  C   UNL     1      -0.197  -6.331   7.310  0.00  0.00    -0.026 C 
ATOM     10  C   UNL     1       1.300  -6.658   7.338  0.00  0.00    +0.081 C 
ATOM     11  C   UNL     1       2.069  -5.363   7.443  0.00  0.00    +0.111 A 
ATOM     12  C   UNL     1       1.541  -4.150   7.177  0.00  0.00    +0.014 A 
ATOM     13  C   UNL     1       2.555  -3.199   7.389  0.00  0.00    +0.050 A 
ATOM     14  C   UNL     1       3.651  -3.883   7.773  0.00  0.00    +0.103 A 
ATOM     15  O   UNL     1       3.348  -5.195   7.800  0.00  0.00    -0.464 OA
ATOM     16  C   UNL     1       4.990  -3.281   8.112  0.00  0.00    +0.086 C 
ATOM     17  C   UNL     1      -0.988  -7.593   6.958  0.00  0.00    +0.011 C 
ATOM     18  C   UNL     1      -0.635  -5.823   8.685  0.00  0.00    +0.011 C 
ENDBRANCH   4   7
BRANCH   1  21
ATOM     19  C   UNL     1       0.030  -0.283   2.562  0.00  0.00    +0.267 C 
ATOM     20  O   UNL     1       0.016   0.910   2.805  0.00  0.00    -0.268 OA
ATOM     21  N   UNL     1       0.052  -1.176   3.571  0.00  0.00    -0.229 N 
ATOM     22  H   UNL     1       0.063  -2.126   3.378  0.00  0.00    +0.173 HD
BRANCH  19  28
ATOM     23  C   UNL     1      -0.018   1.503   0.010  0.00  0.00    +0.045 C 
ATOM     24  C   UNL     1       0.002  -0.004   0.002  0.00  0.00    -0.031 A 
ATOM     25  C   UNL     1       0.007  -0.729  -1.166  0.00  0.00    +0.011 A 
ATOM     26  C   UNL     1       0.026  -2.083  -1.101  0.00  0.00    +0.046 A 
ATOM     27  S   UNL     1       0.038  -2.416   0.545  0.00  0.00    -0.092 S 
ATOM     28  C   UNL     1       0.023  -0.748   1.172  0.00  0.00    +0.078 A 
ENDBRANCH  19  28
ENDBRANCH   1  21
TORSDOF 3
