REMARK  Name = ZINC43237395
REMARK  6 active torsions:
REMARK  status: ('A' for Active; 'I' for Inactive)
REMARK    1  A    between atoms: C_1  and  C_2
REMARK    2  A    between atoms: C_2  and  C_4
REMARK    3  A    between atoms: C_2  and  N_14
REMARK    4  A    between atoms: N_17  and  N_18
REMARK    5  A    between atoms: C_19  and  C_21
REMARK    6  A    between atoms: C_21  and  C_22
REMARK                            x       y       z     vdW  Elec       q    Type
REMARK                         _______ _______ _______ _____ _____    ______ ____
ROOT
ATOM      1  N   UNL     1       0.630  -0.498   1.230  0.00  0.00    -0.292 N 
ATOM      2  C   UNL     1      -0.118  -0.710   2.331  0.00  0.00    +0.316 C 
ATOM      3  O   UNL     1      -1.313  -0.490   2.306  0.00  0.00    -0.251 OA
ATOM      4  N   UNL     1       0.460  -1.165   3.461  0.00  0.00    -0.218 N 
ATOM      5  H   UNL     1       1.584  -0.674   1.250  0.00  0.00    +0.151 HD
ATOM      6  H   UNL     1      -0.078  -1.317   4.253  0.00  0.00    +0.174 HD
ENDROOT
BRANCH   4   7
ATOM      7  N   UNL     1       1.837  -1.418   3.490  0.00  0.00    -0.233 N 
ATOM      8  C   UNL     1       2.415  -1.873   4.620  0.00  0.00    +0.234 C 
ATOM      9  O   UNL     1       1.742  -2.063   5.611  0.00  0.00    -0.274 OA
ATOM     10  H   UNL     1       2.376  -1.266   2.698  0.00  0.00    +0.173 HD
BRANCH   8  11
ATOM     11  C   UNL     1       3.897  -2.145   4.651  0.00  0.00    +0.134 C 
BRANCH  11  12
ATOM     12  C   UNL     1       4.287  -2.642   6.020  0.00  0.00    -0.014 A 
ATOM     13  C   UNL     1       4.757  -1.899   7.034  0.00  0.00    +0.087 A 
ATOM     14  N   UNL     1       5.002  -2.694   8.121  0.00  0.00    -0.360 N 
ATOM     15  H   UNL     1       5.346  -2.383   8.973  0.00  0.00    +0.165 HD
ATOM     16  C   UNL     1       4.687  -4.001   7.824  0.00  0.00    +0.047 A 
ATOM     17  C   UNL     1       4.220  -4.025   6.497  0.00  0.00    +0.003 A 
ATOM     18  C   UNL     1       3.817  -5.231   5.921  0.00  0.00    +0.010 A 
ATOM     19  C   UNL     1       3.877  -6.385   6.652  0.00  0.00    +0.001 A 
ATOM     20  C   UNL     1       4.333  -6.366   7.963  0.00  0.00    +0.002 A 
ATOM     21  C   UNL     1       4.744  -5.188   8.547  0.00  0.00    +0.026 A 
ENDBRANCH  11  12
ENDBRANCH   8  11
ENDBRANCH   4   7
BRANCH   1  23
ATOM     22  C   UNL     1      -0.038   1.525   0.030  0.00  0.00    +0.033 C 
ATOM     23  C   UNL     1       0.002  -0.004   0.002  0.00  0.00    +0.102 C 
BRANCH  23  24
ATOM     24  C   UNL     1       0.800  -0.464  -1.191  0.00  0.00    -0.020 A 
ATOM     25  C   UNL     1       2.132  -0.715  -1.067  0.00  0.00    +0.006 A 
ATOM     26  C   UNL     1       2.886  -1.141  -2.159  0.00  0.00    +0.001 A 
ATOM     27  C   UNL     1       2.313  -1.319  -3.380  0.00  0.00    +0.008 A 
ATOM     28  C   UNL     1       0.940  -1.070  -3.546  0.00  0.00    -0.018 A 
ATOM     29  C   UNL     1       0.172  -0.642  -2.435  0.00  0.00    -0.013 A 
ATOM     30  C   UNL     1      -1.203  -0.399  -2.600  0.00  0.00    +0.009 A 
ATOM     31  C   UNL     1      -1.777  -0.582  -3.820  0.00  0.00    +0.001 A 
ATOM     32  C   UNL     1      -1.023  -1.009  -4.911  0.00  0.00    +0.001 A 
ATOM     33  C   UNL     1       0.313  -1.242  -4.792  0.00  0.00    +0.008 A 
ENDBRANCH  23  24
ENDBRANCH   1  23
TORSDOF 5
