REMARK  Name = ZINC47914640
REMARK  11 active torsions:
REMARK  status: ('A' for Active; 'I' for Inactive)
REMARK    1  A    between atoms: C_1  and  N_2
REMARK    2  A    between atoms: N_2  and  C_3
REMARK    3  A    between atoms: N_2  and  C_4
REMARK    4  A    between atoms: C_4  and  C_5
REMARK    5  A    between atoms: C_4  and  C_22
REMARK    6  A    between atoms: C_5  and  N_6
REMARK    7  A    between atoms: N_9  and  C_10
REMARK    8  A    between atoms: C_10  and  C_11
REMARK    9  A    between atoms: N_14  and  C_16
REMARK   10  A    between atoms: C_27  and  O_28
REMARK   11  A    between atoms: O_28  and  C_29
REMARK                            x       y       z     vdW  Elec       q    Type
REMARK                         _______ _______ _______ _____ _____    ______ ____
ROOT
ATOM      1  N   UNL     1      -1.702   1.302  -1.405  0.00  0.00    -0.301 N 
ATOM      2  C   UNL     1      -2.076   1.923  -2.541  0.00  0.00    +0.300 C 
ATOM      3  O   UNL     1      -2.647   1.300  -3.415  0.00  0.00    -0.253 OA
ATOM      4  N   UNL     1      -1.817   3.235  -2.708  0.00  0.00    -0.299 N 
ATOM      5  H   UNL     1      -1.246   1.799  -0.708  0.00  0.00    +0.150 HD
ATOM      6  H   UNL     1      -1.362   3.732  -2.010  0.00  0.00    +0.150 HD
ENDROOT
BRANCH   1   7
ATOM      7  C   UNL     1      -1.983  -0.125  -1.224  0.00  0.00    +0.095 C 
BRANCH   7   8
ATOM      8  C   UNL     1      -1.353  -0.606   0.085  0.00  0.00    -0.017 C 
BRANCH   8   9
ATOM      9  C   UNL     1       0.147  -0.502  -0.012  0.00  0.00    -0.018 A 
ATOM     10  C   UNL     1       0.805   0.566   0.569  0.00  0.00    +0.005 A 
ATOM     11  C   UNL     1       2.181   0.662   0.481  0.00  0.00    +0.000 A 
ATOM     12  C   UNL     1       2.903  -0.308  -0.189  0.00  0.00    +0.004 A 
ATOM     13  C   UNL     1       2.251  -1.378  -0.771  0.00  0.00    +0.046 A 
ATOM     14  C   UNL     1       0.870  -1.480  -0.679  0.00  0.00    +0.122 A 
BRANCH  14  15
ATOM     15  O   UNL     1       0.226  -2.534  -1.246  0.00  0.00    -0.495 OA
ATOM     16  C   UNL     1       1.034  -3.503  -1.917  0.00  0.00    +0.277 C 
ENDBRANCH  14  15
ENDBRANCH   8   9
BRANCH   8  18
ATOM     17  C   UNL     1      -3.300   0.231   1.207  0.00  0.00    -0.096 C 
ATOM     18  N   UNL     1      -1.832   0.228   1.195  0.00  0.00    +0.382 N 
ATOM     19  C   UNL     1      -1.332  -0.314   2.465  0.00  0.00    -0.096 C 
ATOM     20  H   UNL     1      -1.494   1.172   1.076  0.00  0.00    -0.082 HD
ENDBRANCH   8  18
ENDBRANCH   7   8
ENDBRANCH   1   7
BRANCH   4  21
ATOM     21  C   UNL     1      -2.224   3.911  -3.942  0.00  0.00    +0.110 C 
BRANCH  21  22
ATOM     22  C   UNL     1      -1.815   5.384  -3.876  0.00  0.00    +0.025 C 
ATOM     23  C   UNL     1      -0.276   5.532  -4.004  0.00  0.00    +0.025 C 
ATOM     24  C   UNL     1      -0.148   6.961  -4.588  0.00  0.00    +0.105 C 
ATOM     25  N   UNL     1      -1.285   7.091  -5.518  0.00  0.00    -0.330 N 
ATOM     26  C   UNL     1      -2.339   6.152  -5.108  0.00  0.00    +0.110 C 
BRANCH  25  27
ATOM     27  C   UNL     1      -1.350   7.963  -6.607  0.00  0.00    +0.030 A 
ATOM     28  C   UNL     1      -2.486   7.995  -7.407  0.00  0.00    +0.023 A 
ATOM     29  C   UNL     1      -2.547   8.858  -8.482  0.00  0.00    +0.002 A 
ATOM     30  C   UNL     1      -1.480   9.691  -8.764  0.00  0.00    +0.000 A 
ATOM     31  C   UNL     1      -0.348   9.662  -7.970  0.00  0.00    +0.002 A 
ATOM     32  C   UNL     1      -0.282   8.805  -6.889  0.00  0.00    +0.023 A 
ENDBRANCH  25  27
ENDBRANCH  21  22
ENDBRANCH   4  21
TORSDOF 8
