REMARK  Name = ZINC27816830
REMARK  7 active torsions:
REMARK  status: ('A' for Active; 'I' for Inactive)
REMARK    1  A    between atoms: C_1  and  C_2
REMARK    2  A    between atoms: C_6  and  C_7
REMARK    3  A    between atoms: N_9  and  C_10
REMARK    4  A    between atoms: C_15  and  C_16
REMARK    5  A    between atoms: C_21  and  C_26
REMARK    6  A    between atoms: C_21  and  C_27
REMARK    7  A    between atoms: C_23  and  O_25
REMARK                            x       y       z     vdW  Elec       q    Type
REMARK                         _______ _______ _______ _____ _____    ______ ____
ROOT
ATOM      1  C   UNL     1      -2.708  -1.856   0.553  0.00  0.00    +0.048 C 
ATOM      2  C   UNL     1      -1.216  -1.938   0.359  0.00  0.00    +0.006 A 
ATOM      3  C   UNL     1      -0.385  -0.945  -0.166  0.00  0.00    +0.025 A 
ATOM      4  C   UNL     1       0.880  -1.432  -0.166  0.00  0.00    +0.112 A 
ATOM      5  O   UNL     1       0.860  -2.670   0.336  0.00  0.00    -0.454 OA
ATOM      6  C   UNL     1      -0.408  -3.000   0.662  0.00  0.00    +0.193 A 
ATOM      7  C   UNL     1       2.078  -0.659  -0.664  0.00  0.00    +0.081 C 
ATOM      8  C   UNL     1       1.577   0.513  -1.517  0.00  0.00    -0.025 C 
ATOM      9  C   UNL     1       0.499   1.282  -0.747  0.00  0.00    +0.043 C 
ATOM     10  C   UNL     1      -0.771   0.427  -0.656  0.00  0.00    +0.149 C 
ATOM     11  C   UNL     1       2.745   1.449  -1.831  0.00  0.00    +0.011 C 
ATOM     12  C   UNL     1       0.987  -0.023  -2.823  0.00  0.00    +0.011 C 
ENDROOT
BRANCH   6  13
ATOM     13  C   UNL     1      -0.844  -4.275   1.240  0.00  0.00    +0.284 C 
ATOM     14  O   UNL     1      -2.021  -4.458   1.493  0.00  0.00    -0.266 OA
ATOM     15  N   UNL     1       0.058  -5.245   1.491  0.00  0.00    -0.278 N 
ATOM     16  H   UNL     1       1.131  -5.047   1.351  0.00  0.00    +0.155 HD
BRANCH  15  17
ATOM     17  C   UNL     1      -0.370  -6.502   1.929  0.00  0.00    +0.045 A 
ATOM     18  C   UNL     1      -1.694  -6.886   1.754  0.00  0.00    +0.024 A 
ATOM     19  C   UNL     1      -2.112  -8.130   2.183  0.00  0.00    +0.002 A 
ATOM     20  C   UNL     1      -1.218  -8.989   2.797  0.00  0.00    +0.001 A 
ATOM     21  C   UNL     1       0.099  -8.607   2.978  0.00  0.00    +0.014 A 
ATOM     22  C   UNL     1       0.525  -7.366   2.546  0.00  0.00    +0.076 A 
BRANCH  22  23
ATOM     23  C   UNL     1       1.960  -6.950   2.743  0.00  0.00    +0.419 C 
ATOM     24  F   UNL     1       2.660  -7.980   3.380  0.00  0.00    -0.166 F 
ATOM     25  F   UNL     1       2.545  -6.689   1.499  0.00  0.00    -0.166 F 
ATOM     26  F   UNL     1       2.007  -5.796   3.532  0.00  0.00    -0.166 F 
ENDBRANCH  22  23
ENDBRANCH  15  17
ENDBRANCH   6  13
BRANCH  10  27
ATOM     27  O   UNL     1      -1.689   1.025   0.261  0.00  0.00    -0.387 OA
ATOM     28  H   UNL     1      -2.082   2.034   0.067  0.00  0.00    +0.210 HD
ENDBRANCH  10  27
TORSDOF 4
