REMARK  Name = ZINC19262243
REMARK  3 active torsions:
REMARK  status: ('A' for Active; 'I' for Inactive)
REMARK    1  A    between atoms: C_1  and  C_2
REMARK    2  A    between atoms: N_5  and  C_9
REMARK    3  A    between atoms: C_16  and  N_18
REMARK                            x       y       z     vdW  Elec       q    Type
REMARK                         _______ _______ _______ _____ _____    ______ ____
ROOT
ATOM      1  C   UNL     1       1.439  -2.486  -2.440  0.00  0.00    +0.073 C 
ATOM      2  C   UNL     1       0.541  -2.187  -3.658  0.00  0.00    +0.020 C 
ATOM      3  C   UNL     1       1.274  -2.247  -4.915  0.00  0.00    +0.002 C 
ATOM      4  C   UNL     1       1.859  -3.648  -5.188  0.00  0.00    +0.000 C 
ATOM      5  C   UNL     1       3.125  -3.801  -4.389  0.00  0.00    +0.002 C 
ATOM      6  C   UNL     1       2.883  -4.481  -3.027  0.00  0.00    +0.020 C 
ATOM      7  C   UNL     1       1.613  -3.976  -2.323  0.00  0.00    +0.068 C 
ENDROOT
BRANCH   1  11
ATOM      8  C   UNL     1       1.966  -1.588   2.370  0.00  0.00    +0.039 C 
ATOM      9  C   UNL     1       1.046  -1.438   1.157  0.00  0.00    +0.129 C 
ATOM     10  C   UNL     1       1.724  -2.043  -0.076  0.00  0.00    +0.116 C 
ATOM     11  N   UNL     1       0.805  -1.966  -1.221  0.00  0.00    -0.293 NA
ATOM     12  C   UNL     1      -0.448  -2.679  -0.933  0.00  0.00    +0.113 C 
ATOM     13  C   UNL     1      -1.103  -2.067   0.308  0.00  0.00    +0.175 C 
ATOM     14  O   UNL     1      -0.185  -2.122   1.403  0.00  0.00    -0.374 OA
ENDBRANCH   1  11
BRANCH   7  15
ATOM     15  N   UNL     1       0.447  -4.639  -2.923  0.00  0.00    -0.326 NA
ATOM     16  H   UNL     1       0.531  -5.643  -2.862  0.00  0.00    +0.119 HD
ATOM     17  H   UNL     1      -0.410  -4.321  -2.496  0.00  0.00    +0.119 HD
ENDBRANCH   7  15
TORSDOF 2
