REMARK  Name = ZINC05639324
REMARK  8 active torsions:
REMARK  status: ('A' for Active; 'I' for Inactive)
REMARK    1  A    between atoms: C_1  and  C_2
REMARK    2  A    between atoms: N_4  and  C_5
REMARK    3  A    between atoms: C_7  and  N_20
REMARK    4  A    between atoms: C_9  and  O_19
REMARK    5  A    between atoms: C_12  and  C_17
REMARK    6  A    between atoms: C_14  and  O_16
REMARK    7  A    between atoms: C_17  and  O_18
REMARK    8  A    between atoms: C_21  and  C_23
REMARK                            x       y       z     vdW  Elec       q    Type
REMARK                         _______ _______ _______ _____ _____    ______ ____
ROOT
ATOM      1  C   UNL     1      -1.290   1.681   0.017  0.00  0.00    +0.129 C 
ATOM      2  C   UNL     1      -2.373   0.786   0.628  0.00  0.00    +0.151 C 
ATOM      3  C   UNL     1      -3.719   1.511   0.562  0.00  0.00    +0.270 C 
ATOM      4  O   UNL     1      -4.015   1.842  -0.796  0.00  0.00    -0.341 OA
ATOM      5  C   UNL     1      -3.061   2.716  -1.405  0.00  0.00    +0.177 C 
ATOM      6  C   UNL     1      -1.688   2.039  -1.418  0.00  0.00    +0.168 C 
ENDROOT
BRANCH   1  10
ATOM      7  C   UNL     1       2.462   0.920  -0.017  0.00  0.00    +0.109 C 
ATOM      8  C   UNL     1       1.147   1.655   0.000  0.00  0.00    +0.210 C 
ATOM      9  O   UNL     1       1.130   2.868   0.007  0.00  0.00    -0.276 OA
ATOM     10  N   UNL     1      -0.011   0.966   0.007  0.00  0.00    -0.308 N 
ATOM     11  H   UNL     1       0.002  -0.004   0.002  0.00  0.00    +0.149 HD
ENDBRANCH   1  10
BRANCH   2  12
ATOM     12  N   UNL     1      -2.039   0.497   2.024  0.00  0.00    -0.306 N 
ATOM     13  C   UNL     1      -2.514  -0.619   2.614  0.00  0.00    +0.210 C 
ATOM     14  O   UNL     1      -3.218  -1.382   1.988  0.00  0.00    -0.276 OA
ATOM     15  C   UNL     1      -2.170  -0.916   4.051  0.00  0.00    +0.109 C 
ATOM     16  H   UNL     1      -1.476   1.107   2.525  0.00  0.00    +0.149 HD
ENDBRANCH   2  12
BRANCH   6  17
ATOM     17  O   UNL     1      -0.721   2.933  -1.973  0.00  0.00    -0.387 OA
ATOM     18  H   UNL     1      -0.910   3.202  -2.882  0.00  0.00    +0.210 HD
ENDBRANCH   6  17
BRANCH   3  19
ATOM     19  O   UNL     1      -4.745   0.660   1.079  0.00  0.00    -0.365 OA
ATOM     20  H   UNL     1      -5.627   1.055   1.067  0.00  0.00    +0.213 HD
ENDBRANCH   3  19
BRANCH   5  21
ATOM     21  C   UNL     1      -3.493   3.022  -2.840  0.00  0.00    +0.190 C 
BRANCH  21  22
ATOM     22  O   UNL     1      -4.719   3.756  -2.822  0.00  0.00    -0.392 OA
ATOM     23  H   UNL     1      -5.053   3.985  -3.700  0.00  0.00    +0.210 HD
ENDBRANCH  21  22
ENDBRANCH   5  21
TORSDOF 6
