REMARK  Name = ZINC39458521
REMARK  5 active torsions:
REMARK  status: ('A' for Active; 'I' for Inactive)
REMARK    1  A    between atoms: C_1  and  C_2
REMARK    2  A    between atoms: C_2  and  O_3
REMARK    3  A    between atoms: O_3  and  N_4
REMARK    4  A    between atoms: C_5  and  C_21
REMARK    5  A    between atoms: C_6  and  O_20
REMARK                            x       y       z     vdW  Elec       q    Type
REMARK                         _______ _______ _______ _____ _____    ______ ____
ROOT
ATOM      1  N   UNL     1      -1.431  -1.912   0.005  0.00  0.00    -0.181 N 
ATOM      2  C   UNL     1      -1.488  -2.694  -1.105  0.00  0.00    +0.097 A 
ATOM      3  C   UNL     1      -1.558  -3.996  -0.721  0.00  0.00    +0.144 A 
ATOM      4  C   UNL     1      -1.548  -4.027   0.672  0.00  0.00    +0.025 A 
ATOM      5  C   UNL     1      -1.473  -2.718   1.125  0.00  0.00    +0.111 A 
ATOM      6  C   UNL     1      -1.462  -2.243   2.505  0.00  0.00    +0.081 A 
ATOM      7  C   UNL     1      -0.901  -2.937   3.574  0.00  0.00    +0.089 A 
ATOM      8  C   UNL     1      -0.889  -2.261   4.894  0.00  0.00    +0.193 A 
ATOM      9  C   UNL     1      -1.494  -0.990   5.016  0.00  0.00    +0.069 A 
ATOM     10  C   UNL     1      -2.061  -0.417   3.938  0.00  0.00    +0.087 A 
ATOM     11  N   UNL     1      -2.054  -1.021   2.728  0.00  0.00    -0.359 N 
ATOM     12  O   UNL     1      -0.364  -2.793   5.859  0.00  0.00    -0.287 OA
ATOM     13  C   UNL     1      -0.388  -4.241   3.558  0.00  0.00    +0.169 C 
ATOM     14  O   UNL     1       0.106  -4.618   4.601  0.00  0.00    -0.292 OA
ATOM     15  C   UNL     1      -0.362  -5.214   2.465  0.00  0.00    +0.084 C 
ATOM     16  C   UNL     1      -1.592  -5.221   1.575  0.00  0.00    +0.049 C 
ATOM     17  C   UNL     1      -1.474  -2.199  -2.528  0.00  0.00    +0.071 C 
ATOM     18  H   UNL     1      -2.486  -0.573   1.984  0.00  0.00    +0.165 HD
ENDROOT
BRANCH   3  19
ATOM     19  O   UNL     1      -1.626  -5.076  -1.548  0.00  0.00    -0.505 OA
ATOM     20  H   UNL     1      -0.764  -5.438  -1.795  0.00  0.00    +0.292 HD
ENDBRANCH   3  19
BRANCH   1  21
ATOM     21  O   UNL     1      -1.339  -0.499   0.012  0.00  0.00    -0.411 OA
BRANCH  21  23
ATOM     22  C   UNL     1      -0.019   1.526   0.010  0.00  0.00    +0.051 C 
ATOM     23  C   UNL     1       0.002  -0.004   0.002  0.00  0.00    +0.257 C 
ENDBRANCH  21  23
ENDBRANCH   1  21
TORSDOF 3
