REMARK  Name = ZINC11612313
REMARK  11 active torsions:
REMARK  status: ('A' for Active; 'I' for Inactive)
REMARK    1  A    between atoms: C_1  and  C_2
REMARK    2  A    between atoms: N_4  and  C_5
REMARK    3  A    between atoms: C_7  and  O_24
REMARK    4  A    between atoms: C_9  and  O_23
REMARK    5  A    between atoms: C_11  and  C_21
REMARK    6  A    between atoms: C_14  and  O_16
REMARK    7  A    between atoms: O_16  and  C_17
REMARK    8  A    between atoms: C_17  and  C_18
REMARK    9  A    between atoms: C_17  and  C_19
REMARK   10  A    between atoms: C_17  and  C_20
REMARK   11  A    between atoms: C_21  and  O_22
REMARK                            x       y       z     vdW  Elec       q    Type
REMARK                         _______ _______ _______ _____ _____    ______ ____
ROOT
ATOM      1  C   UNL     1       3.473   3.545  -1.255  0.00  0.00    +0.160 C 
ATOM      2  C   UNL     1       2.837   4.007   0.060  0.00  0.00    +0.171 C 
ATOM      3  C   UNL     1       1.401   3.479   0.132  0.00  0.00    +0.176 C 
ATOM      4  C   UNL     1       1.418   1.954  -0.001  0.00  0.00    +0.178 C 
ATOM      5  O   UNL     1       2.051   1.592  -1.230  0.00  0.00    -0.341 OA
ATOM      6  C   UNL     1       3.411   2.017  -1.334  0.00  0.00    +0.274 C 
ENDROOT
BRANCH   1  10
ATOM      7  C   UNL     1       6.924   4.595  -2.538  0.00  0.00    +0.109 C 
ATOM      8  C   UNL     1       5.486   4.147  -2.490  0.00  0.00    +0.210 C 
ATOM      9  O   UNL     1       4.882   3.935  -3.520  0.00  0.00    -0.276 OA
ATOM     10  N   UNL     1       4.871   3.981  -1.302  0.00  0.00    -0.305 N 
ATOM     11  H   UNL     1       5.354   4.150  -0.478  0.00  0.00    +0.149 HD
ENDBRANCH   1  10
BRANCH   3  12
ATOM     12  O   UNL     1       0.631   4.043  -0.932  0.00  0.00    -0.387 OA
ATOM     13  H   UNL     1      -0.290   3.748  -0.951  0.00  0.00    +0.210 HD
ENDBRANCH   3  12
BRANCH   2  14
ATOM     14  O   UNL     1       3.590   3.495   1.161  0.00  0.00    -0.387 OA
ATOM     15  H   UNL     1       3.243   3.749   2.027  0.00  0.00    +0.210 HD
ENDBRANCH   2  14
BRANCH   6  16
ATOM     16  O   UNL     1       4.170   1.453  -0.263  0.00  0.00    -0.344 OA
BRANCH  16  17
ATOM     17  C   UNL     1       4.365   0.041  -0.370  0.00  0.00    +0.064 C 
ATOM     18  C   UNL     1       5.112  -0.274  -1.668  0.00  0.00    +0.041 C 
ATOM     19  C   UNL     1       5.186  -0.452   0.823  0.00  0.00    +0.041 C 
ATOM     20  C   UNL     1       3.006  -0.662  -0.380  0.00  0.00    +0.041 C 
ENDBRANCH  16  17
ENDBRANCH   6  16
BRANCH   4  21
ATOM     21  C   UNL     1      -0.017   1.425   0.010  0.00  0.00    +0.190 C 
BRANCH  21  22
ATOM     22  O   UNL     1       0.002  -0.004   0.002  0.00  0.00    -0.392 OA
ATOM     23  H   UNL     1      -0.876  -0.409   0.008  0.00  0.00    +0.210 HD
ENDBRANCH  21  22
ENDBRANCH   4  21
TORSDOF 7
