REMARK  Name = ZINC52339536
REMARK  7 active torsions:
REMARK  status: ('A' for Active; 'I' for Inactive)
REMARK    1  A    between atoms: C_1  and  C_2
REMARK    2  A    between atoms: C_2  and  C_3
REMARK    3  A    between atoms: C_3  and  C_5
REMARK    4  A    between atoms: C_3  and  N_11
REMARK    5  A    between atoms: N_11  and  C_12
REMARK    6  A    between atoms: C_12  and  C_14
REMARK    7  A    between atoms: C_12  and  C_15
REMARK                            x       y       z     vdW  Elec       q    Type
REMARK                         _______ _______ _______ _____ _____    ______ ____
ROOT
ATOM      1  N   UNL     1      -2.106   0.043   1.037  0.00  0.00    +0.388 N 
ATOM      2  H   UNL     1      -3.079  -0.226   1.057  0.00  0.00    -0.084 HD
ATOM      3  H   UNL     1      -1.624  -0.384   1.814  0.00  0.00    -0.084 HD
ENDROOT
BRANCH   1   4
ATOM      4  C   UNL     1      -2.000   1.504   1.137  0.00  0.00    +0.014 C 
ATOM      5  C   UNL     1      -2.838   2.153   0.034  0.00  0.00    -0.004 C 
BRANCH   4   6
ATOM      6  C   UNL     1      -2.507   1.954   2.483  0.00  0.00    +0.206 C 
ATOM      7  O   UNL     1      -2.917   1.137   3.280  0.00  0.00    -0.277 OA
ATOM      8  N   UNL     1      -2.506   3.264   2.801  0.00  0.00    -0.242 N 
ATOM      9  C   UNL     1      -2.960   3.666   4.004  0.00  0.00    +0.303 C 
ATOM     10  O   UNL     1      -3.370   2.847   4.803  0.00  0.00    -0.253 OA
ATOM     11  N   UNL     1      -2.958   4.976   4.322  0.00  0.00    -0.313 N 
ATOM     12  H   UNL     1      -2.179   3.917   2.163  0.00  0.00    +0.159 HD
ATOM     13  H   UNL     1      -2.631   5.629   3.684  0.00  0.00    +0.146 HD
ATOM     14  H   UNL     1      -3.285   5.265   5.188  0.00  0.00    +0.146 HD
ENDBRANCH   4   6
ENDBRANCH   1   4
BRANCH   1  15
ATOM     15  C   UNL     1      -1.499  -0.407  -0.223  0.00  0.00    -0.068 C 
BRANCH  15  16
ATOM     16  C   UNL     1      -1.761  -1.903  -0.409  0.00  0.00    -0.025 C 
ATOM     17  C   UNL     1      -1.236  -2.669   0.807  0.00  0.00    +0.002 C 
ATOM     18  C   UNL     1      -1.498  -4.164   0.620  0.00  0.00    +0.000 C 
ATOM     19  C   UNL     1      -0.781  -4.654  -0.639  0.00  0.00    +0.000 C 
ATOM     20  C   UNL     1      -1.306  -3.889  -1.856  0.00  0.00    +0.000 C 
ATOM     21  C   UNL     1      -1.044  -2.393  -1.669  0.00  0.00    +0.002 C 
ENDBRANCH  15  16
BRANCH  15  23
ATOM     22  C   UNL     1       0.535   0.033  -1.605  0.00  0.00    +0.002 C 
ATOM     23  C   UNL     1       0.010  -0.155  -0.180  0.00  0.00    -0.019 C 
ENDBRANCH  15  23
ENDBRANCH   1  15
TORSDOF 5
