REMARK  Name = ZINC62778645
REMARK  3 active torsions:
REMARK  status: ('A' for Active; 'I' for Inactive)
REMARK    1  A    between atoms: C_2  and  C_8
REMARK    2  A    between atoms: C_8  and  C_10
REMARK    3  A    between atoms: C_8  and  O_16
REMARK                            x       y       z     vdW  Elec       q    Type
REMARK                         _______ _______ _______ _____ _____    ______ ____
ROOT
ATOM      1  C   UNL     1       1.204   3.545   0.009  0.00  0.00    +0.179 C 
ENDROOT
BRANCH   1   3
ATOM      2  C   UNL     1      -0.016   1.352   0.009  0.00  0.00    +0.035 A 
ATOM      3  C   UNL     1       1.185   2.038   0.002  0.00  0.00    +0.012 A 
ATOM      4  C   UNL     1       2.344   1.335  -0.013  0.00  0.00    +0.085 A 
ATOM      5  S   UNL     1       1.753  -0.350  -0.017  0.00  0.00    -0.065 S 
ATOM      6  C   UNL     1       0.002  -0.004   0.002  0.00  0.00    +0.080 A 
ATOM      7 CL   UNL     1      -1.332  -1.115   0.010  0.00  0.00    -0.076 Cl
ATOM      8 CL   UNL     1       3.978   1.920  -0.026  0.00  0.00    -0.075 Cl
ENDBRANCH   1   3
BRANCH   1   9
ATOM      9  C   UNL     1       1.348   4.039   1.426  0.00  0.00    +0.022 A 
ATOM     10  C   UNL     1       2.492   4.471   2.006  0.00  0.00    +0.111 A 
ATOM     11  N   UNL     1       2.201   4.824   3.276  0.00  0.00    -0.284 N 
ATOM     12  H   UNL     1       2.828   5.171   3.930  0.00  0.00    +0.188 HD
ATOM     13  N   UNL     1       0.833   4.602   3.482  0.00  0.00    -0.182 NA
ATOM     14  C   UNL     1       0.322   4.137   2.371  0.00  0.00    +0.140 A 
ENDBRANCH   1   9
BRANCH   1  15
ATOM     15  O   UNL     1      -0.015   4.040  -0.546  0.00  0.00    -0.382 OA
ATOM     16  H   UNL     1      -0.807   3.763  -0.066  0.00  0.00    +0.211 HD
ENDBRANCH   1  15
TORSDOF 3
