REMARK  Name = ZINC50705218
REMARK  4 active torsions:
REMARK  status: ('A' for Active; 'I' for Inactive)
REMARK    1  A    between atoms: C_1  and  C_2
REMARK    2  A    between atoms: C_8  and  C_10
REMARK    3  A    between atoms: C_11  and  C_13
REMARK    4  A    between atoms: C_18  and  N_19
REMARK                            x       y       z     vdW  Elec       q    Type
REMARK                         _______ _______ _______ _____ _____    ______ ____
ROOT
ATOM      1  C   UNL     1      -0.026   1.544   0.080  0.00  0.00    +0.009 C 
ATOM      2  C   UNL     1      -0.007   0.014   0.052  0.00  0.00    +0.006 C 
ATOM      3  C   UNL     1      -1.443  -0.514   0.072  0.00  0.00    +0.006 C 
ATOM      4  C   UNL     1      -1.426  -2.044   0.012  0.00  0.00    +0.019 C 
ATOM      5  C   UNL     1      -0.692  -2.591   1.241  0.00  0.00    +0.108 C 
ATOM      6  N   UNL     1       0.640  -1.975   1.309  0.00  0.00    -0.294 N 
ATOM      7  C   UNL     1       0.744  -0.509   1.281  0.00  0.00    +0.076 C 
ATOM      8  C   UNL     1       0.119   0.073   2.550  0.00  0.00    +0.028 C 
ATOM      9  C   UNL     1       1.746  -2.740   1.396  0.00  0.00    +0.250 C 
ATOM     10  O   UNL     1       2.847  -2.224   1.347  0.00  0.00    -0.270 OA
ENDROOT
BRANCH   9  11
ATOM     11  C   UNL     1       1.623  -4.200   1.550  0.00  0.00    +0.077 A 
ATOM     12  C   UNL     1       0.853  -4.745   2.584  0.00  0.00    +0.033 A 
ATOM     13  C   UNL     1       0.768  -6.123   2.686  0.00  0.00    +0.037 A 
ATOM     14  C   UNL     1       1.440  -6.916   1.771  0.00  0.00    +0.128 A 
ATOM     15  N   UNL     1       2.160  -6.383   0.804  0.00  0.00    -0.239 NA
ATOM     16  C   UNL     1       2.271  -5.071   0.658  0.00  0.00    +0.128 A 
ATOM     17 BR   UNL     1      -0.256  -6.916   4.063  0.00  0.00    -0.049 Br
BRANCH  16  18
ATOM     18  N   UNL     1       3.032  -4.556  -0.375  0.00  0.00    -0.343 N 
ATOM     19  H   UNL     1       3.178  -3.599  -0.440  0.00  0.00    +0.144 HD
ATOM     20  H   UNL     1       3.421  -5.152  -1.035  0.00  0.00    +0.144 HD
ENDBRANCH  16  18
ENDBRANCH   9  11
TORSDOF 2
