REMARK  Name = ZINC10186302
REMARK  6 active torsions:
REMARK  status: ('A' for Active; 'I' for Inactive)
REMARK    1  A    between atoms: C_6  and  C_7
REMARK    2  A    between atoms: C_10  and  S_13
REMARK    3  A    between atoms: N_11  and  N_12
REMARK    4  A    between atoms: S_13  and  C_14
REMARK    5  A    between atoms: C_14  and  C_15
REMARK    6  A    between atoms: N_17  and  C_18
REMARK                            x       y       z     vdW  Elec       q    Type
REMARK                         _______ _______ _______ _____ _____    ______ ____
ROOT
ATOM      1  C   UNL     1       0.778   1.248  -4.205  0.00  0.00    +0.182 A 
ATOM      2  N   UNL     1       1.499   0.374  -3.543  0.00  0.00    -0.127 NA
ATOM      3  N   UNL     1       1.112   0.323  -2.318  0.00  0.00    -0.121 NA
ATOM      4  C   UNL     1       0.114   1.156  -2.126  0.00  0.00    +0.209 A 
ATOM      5  N   UNL     1      -0.132   1.776  -3.318  0.00  0.00    -0.224 N 
ENDROOT
BRANCH   1  11
ATOM      6  C   UNL     1       1.625   0.760  -6.497  0.00  0.00    +0.013 A 
ATOM      7  C   UNL     1       1.747   1.090  -7.830  0.00  0.00    +0.021 A 
ATOM      8  C   UNL     1       1.178   2.256  -8.312  0.00  0.00    +0.041 A 
ATOM      9  C   UNL     1       0.479   3.095  -7.461  0.00  0.00    +0.021 A 
ATOM     10  C   UNL     1       0.346   2.773  -6.127  0.00  0.00    +0.013 A 
ATOM     11  C   UNL     1       0.917   1.599  -5.635  0.00  0.00    +0.021 A 
ATOM     12 CL   UNL     1       1.342   2.669  -9.991  0.00  0.00    -0.084 Cl
ENDBRANCH   1  11
BRANCH   5  13
ATOM     13  N   UNL     1      -1.082   2.722  -3.576  0.00  0.00    -0.295 N 
ATOM     14  H   UNL     1      -0.695   3.651  -3.508  0.00  0.00    +0.163 HD
ATOM     15  H   UNL     1      -1.505   2.573  -4.480  0.00  0.00    +0.163 HD
ENDBRANCH   5  13
BRANCH   4  16
ATOM     16  S   UNL     1      -0.744   1.428  -0.611  0.00  0.00    -0.075 S 
BRANCH  16  17
ATOM     17  C   UNL     1       0.140   0.270   0.463  0.00  0.00    +0.173 C 
BRANCH  17  18
ATOM     18  C   UNL     1      -0.439   0.331   1.853  0.00  0.00    +0.227 C 
ATOM     19  O   UNL     1      -1.358   1.084   2.094  0.00  0.00    -0.275 OA
ATOM     20  N   UNL     1       0.066  -0.451   2.828  0.00  0.00    -0.285 N 
ATOM     21  H   UNL     1       0.849  -0.997   2.655  0.00  0.00    +0.155 HD
BRANCH  20  22
ATOM     22  C   UNL     1      -0.541  -0.475   4.089  0.00  0.00    +0.035 A 
ATOM     23  C   UNL     1       0.231  -0.663   5.229  0.00  0.00    +0.026 A 
ATOM     24  C   UNL     1      -0.369  -0.681   6.473  0.00  0.00    +0.041 A 
ATOM     25  C   UNL     1      -1.740  -0.524   6.585  0.00  0.00    +0.142 A 
ATOM     26  C   UNL     1      -2.513  -0.342   5.449  0.00  0.00    +0.078 A 
ATOM     27  C   UNL     1      -1.916  -0.318   4.203  0.00  0.00    +0.046 A 
ATOM     28 CL   UNL     1      -4.232  -0.145   5.592  0.00  0.00    -0.081 Cl
ATOM     29  F   UNL     1      -2.325  -0.548   7.802  0.00  0.00    -0.204 F 
ENDBRANCH  20  22
ENDBRANCH  17  18
ENDBRANCH  16  17
ENDBRANCH   4  16
TORSDOF 6
