REMARK  Name = ZINC39934857
REMARK  7 active torsions:
REMARK  status: ('A' for Active; 'I' for Inactive)
REMARK    1  A    between atoms: C_1  and  C_2
REMARK    2  A    between atoms: C_7  and  C_12
REMARK    3  A    between atoms: C_12  and  C_29
REMARK    4  A    between atoms: C_13  and  C_14
REMARK    5  A    between atoms: C_19  and  O_20
REMARK    6  A    between atoms: O_20  and  C_21
REMARK    7  A    between atoms: C_21  and  C_22
REMARK                            x       y       z     vdW  Elec       q    Type
REMARK                         _______ _______ _______ _____ _____    ______ ____
ROOT
ATOM      1  C   UNL     1       1.183  -4.920   2.692  0.00  0.00    +0.072 C 
ATOM      2  C   UNL     1       1.214  -6.265   2.585  0.00  0.00    +0.030 C 
ENDROOT
BRANCH   1   9
ATOM      3  C   UNL     1      -1.196   1.553   3.831  0.00  0.00    +0.044 C 
ATOM      4  C   UNL     1      -0.781   0.299   3.106  0.00  0.00    -0.048 A 
ATOM      5  C   UNL     1      -0.243   0.414   1.811  0.00  0.00    +0.005 A 
ATOM      6  C   UNL     1       0.153  -0.654   1.091  0.00  0.00    +0.027 A 
ATOM      7  C   UNL     1       0.025  -2.002   1.663  0.00  0.00    +0.060 A 
ATOM      8  N   UNL     1       0.318  -3.187   1.211  0.00  0.00    -0.359 N 
ATOM      9  C   UNL     1      -0.041  -4.157   2.253  0.00  0.00    +0.216 C 
ATOM     10  N   UNL     1      -0.581  -3.379   3.375  0.00  0.00    -0.359 N 
ATOM     11  C   UNL     1      -0.544  -2.124   3.033  0.00  0.00    +0.061 A 
ATOM     12  C   UNL     1      -0.936  -0.888   3.725  0.00  0.00    +0.030 A 
ATOM     13  H   UNL     1       0.701  -3.392   0.344  0.00  0.00    +0.162 HD
ATOM     14  H   UNL     1      -0.907  -3.736   4.216  0.00  0.00    +0.162 HD
ENDBRANCH   1   9
BRANCH   2  15
ATOM     15  C   UNL     1       2.457  -6.996   2.871  0.00  0.00    +0.018 A 
ATOM     16  C   UNL     1       3.697  -6.418   2.578  0.00  0.00    +0.011 A 
ATOM     17  C   UNL     1       4.858  -7.110   2.849  0.00  0.00    +0.001 A 
ATOM     18  C   UNL     1       4.803  -8.375   3.411  0.00  0.00    +0.004 A 
ATOM     19  C   UNL     1       3.585  -8.958   3.705  0.00  0.00    +0.046 A 
ATOM     20  C   UNL     1       2.407  -8.275   3.446  0.00  0.00    +0.128 A 
BRANCH  20  21
ATOM     21  O   UNL     1       1.211  -8.844   3.740  0.00  0.00    -0.487 OA
BRANCH  21  22
ATOM     22  C   UNL     1       1.238 -10.149   4.324  0.00  0.00    +0.266 C 
BRANCH  22  23
ATOM     23  C   UNL     1      -0.172 -10.615   4.580  0.00  0.00    +0.008 A 
ATOM     24  C   UNL     1      -1.239  -9.803   4.245  0.00  0.00    +0.008 A 
ATOM     25  C   UNL     1      -2.533 -10.230   4.480  0.00  0.00    +0.000 A 
ATOM     26  C   UNL     1      -2.759 -11.470   5.049  0.00  0.00    +0.001 A 
ATOM     27  C   UNL     1      -1.693 -12.282   5.383  0.00  0.00    +0.020 A 
ATOM     28  C   UNL     1      -0.398 -11.857   5.144  0.00  0.00    +0.047 A 
ATOM     29 CL   UNL     1       0.942 -12.880   5.558  0.00  0.00    -0.083 Cl
ENDBRANCH  22  23
ENDBRANCH  21  22
ENDBRANCH  20  21
ENDBRANCH   2  15
BRANCH   1  30
ATOM     30  C   UNL     1       2.311  -4.217   3.225  0.00  0.00    +0.099 C 
ATOM     31  N   UNL     1       3.207  -3.660   3.647  0.00  0.00    -0.191 NA
ENDBRANCH   1  30
TORSDOF 6
