REMARK  Name = ZINC62132270
REMARK  9 active torsions:
REMARK  status: ('A' for Active; 'I' for Inactive)
REMARK    1  A    between atoms: C_1  and  C_2
REMARK    2  A    between atoms: C_2  and  C_3
REMARK    3  A    between atoms: C_6  and  N_12
REMARK    4  A    between atoms: C_8  and  N_9
REMARK    5  A    between atoms: C_13  and  C_15
REMARK    6  A    between atoms: N_17  and  C_18
REMARK    7  A    between atoms: C_18  and  C_19
REMARK    8  A    between atoms: C_19  and  C_20
REMARK    9  A    between atoms: C_19  and  O_27
REMARK                            x       y       z     vdW  Elec       q    Type
REMARK                         _______ _______ _______ _____ _____    ______ ____
ROOT
ATOM      1  N   UNL     1      -5.314  -1.967   0.043  0.00  0.00    -0.278 N 
ATOM      2  C   UNL     1      -5.899  -2.299   1.211  0.00  0.00    +0.303 C 
ATOM      3  O   UNL     1      -5.260  -2.263   2.242  0.00  0.00    -0.265 OA
ATOM      4  H   UNL     1      -5.806  -2.054  -0.788  0.00  0.00    +0.155 HD
ENDROOT
BRANCH   1   8
ATOM      5  C   UNL     1      -1.393  -0.566   0.004  0.00  0.00    -0.017 A 
ATOM      6  C   UNL     1      -2.314  -0.062  -0.896  0.00  0.00    +0.007 A 
ATOM      7  C   UNL     1      -3.615  -0.525  -0.886  0.00  0.00    +0.024 A 
ATOM      8  C   UNL     1      -3.998  -1.497   0.030  0.00  0.00    +0.036 A 
ATOM      9  C   UNL     1      -3.070  -2.001   0.932  0.00  0.00    +0.056 A 
ATOM     10  C   UNL     1      -1.769  -1.537   0.913  0.00  0.00    +0.131 A 
BRANCH  10  11
ATOM     11  N   UNL     1      -0.778  -2.077   1.871  0.00  0.00    +0.057 N 
ATOM     12  O   UNL     1      -1.083  -2.985   2.609  0.00  0.00    -0.126 OA
ATOM     13  O   UNL     1       0.336  -1.609   1.917  0.00  0.00    -0.126 OA
ENDBRANCH  10  11
BRANCH   5  15
ATOM     14  C   UNL     1       0.920  -1.065  -0.737  0.00  0.00    +0.009 C 
ATOM     15  C   UNL     1       0.026  -0.059  -0.010  0.00  0.00    +0.034 C 
ENDBRANCH   5  15
ENDBRANCH   1   8
BRANCH   2  16
ATOM     16  C   UNL     1      -7.335  -2.710   1.236  0.00  0.00    +0.299 C 
ATOM     17  O   UNL     1      -7.974  -2.746   0.205  0.00  0.00    -0.265 OA
ATOM     18  N   UNL     1      -7.920  -3.042   2.404  0.00  0.00    -0.305 N 
ATOM     19  H   UNL     1      -7.409  -3.013   3.228  0.00  0.00    +0.149 HD
BRANCH  18  20
ATOM     20  C   UNL     1      -9.328  -3.446   2.429  0.00  0.00    +0.140 C 
BRANCH  20  21
ATOM     21  C   UNL     1      -9.742  -3.767   3.866  0.00  0.00    +0.164 C 
BRANCH  21  22
ATOM     22  C   UNL     1     -11.190  -4.182   3.892  0.00  0.00    +0.018 A 
ATOM     23  C   UNL     1     -11.525  -5.522   3.852  0.00  0.00    +0.009 A 
ATOM     24  C   UNL     1     -12.854  -5.904   3.876  0.00  0.00    +0.001 A 
ATOM     25  C   UNL     1     -13.848  -4.945   3.939  0.00  0.00    +0.003 A 
ATOM     26  C   UNL     1     -13.515  -3.605   3.979  0.00  0.00    +0.039 A 
ATOM     27  C   UNL     1     -12.185  -3.222   3.961  0.00  0.00    +0.129 A 
ATOM     28  F   UNL     1     -11.858  -1.912   4.005  0.00  0.00    -0.205 F 
ENDBRANCH  21  22
BRANCH  21  29
ATOM     29  O   UNL     1      -8.932  -4.832   4.368  0.00  0.00    -0.386 OA
ATOM     30  H   UNL     1      -9.002  -5.652   3.861  0.00  0.00    +0.210 HD
ENDBRANCH  21  29
ENDBRANCH  20  21
ENDBRANCH  18  20
ENDBRANCH   2  16
TORSDOF 8
