REMARK  Name = ZINC35346985
REMARK  8 active torsions:
REMARK  status: ('A' for Active; 'I' for Inactive)
REMARK    1  A    between atoms: C_1  and  C_2
REMARK    2  A    between atoms: C_6  and  N_21
REMARK    3  A    between atoms: C_7  and  S_8
REMARK    4  A    between atoms: S_8  and  N_11
REMARK    5  A    between atoms: N_11  and  C_12
REMARK    6  A    between atoms: C_17  and  C_18
REMARK    7  A    between atoms: C_18  and  C_19
REMARK    8  A    between atoms: C_18  and  C_20
REMARK                            x       y       z     vdW  Elec       q    Type
REMARK                         _______ _______ _______ _____ _____    ______ ____
ROOT
ATOM      1  S   UNL     1       1.302  -0.232   2.341  0.00  0.00    +0.074 S 
ATOM      2  O   UNL     1       1.845  -1.290   3.118  0.00  0.00    -0.150 OA
ATOM      3  O   UNL     1       2.113   0.780   1.759  0.00  0.00    -0.150 OA
ENDROOT
BRANCH   1  10
ATOM      4  C   UNL     1       0.550   1.183  -0.223  0.00  0.00    +0.046 C 
ATOM      5  C   UNL     1       0.110  -0.254  -0.113  0.00  0.00    -0.022 A 
ATOM      6  C   UNL     1      -0.587  -0.844  -1.152  0.00  0.00    +0.005 A 
ATOM      7  C   UNL     1      -0.993  -2.163  -1.056  0.00  0.00    +0.002 A 
ATOM      8  C   UNL     1      -0.703  -2.895   0.079  0.00  0.00    +0.025 A 
ATOM      9  C   UNL     1      -0.003  -2.305   1.124  0.00  0.00    +0.052 A 
ATOM     10  C   UNL     1       0.408  -0.982   1.022  0.00  0.00    +0.132 A 
BRANCH   9  11
ATOM     11  N   UNL     1       0.292  -3.043   2.273  0.00  0.00    -0.356 N 
ATOM     12  H   UNL     1       0.348  -4.010   2.227  0.00  0.00    +0.142 HD
ATOM     13  H   UNL     1       0.441  -2.588   3.116  0.00  0.00    +0.142 HD
ENDBRANCH   9  11
ENDBRANCH   1  10
BRANCH   1  14
ATOM     14  N   UNL     1       0.198   0.543   3.303  0.00  0.00    -0.216 N 
ATOM     15  H   UNL     1       0.234   1.507   3.403  0.00  0.00    +0.174 HD
BRANCH  14  16
ATOM     16  C   UNL     1      -0.785  -0.193   3.969  0.00  0.00    +0.051 A 
ATOM     17  C   UNL     1      -1.961  -0.537   3.314  0.00  0.00    +0.025 A 
ATOM     18  C   UNL     1      -2.930  -1.264   3.975  0.00  0.00    +0.002 A 
ATOM     19  C   UNL     1      -2.732  -1.650   5.288  0.00  0.00    +0.000 A 
ATOM     20  C   UNL     1      -1.563  -1.309   5.944  0.00  0.00    +0.006 A 
ATOM     21  C   UNL     1      -0.586  -0.587   5.286  0.00  0.00    -0.022 A 
BRANCH  21  22
ATOM     22  C   UNL     1       0.690  -0.222   5.998  0.00  0.00    +0.015 C 
ATOM     23  C   UNL     1       0.363   0.626   7.229  0.00  0.00    +0.012 C 
ATOM     24  C   UNL     1       1.413  -1.497   6.436  0.00  0.00    +0.012 C 
ENDBRANCH  21  22
ENDBRANCH  14  16
ENDBRANCH   1  14
TORSDOF 5
