REMARK  Name = ZINC63743449
REMARK  7 active torsions:
REMARK  status: ('A' for Active; 'I' for Inactive)
REMARK    1  A    between atoms: C_1  and  C_2
REMARK    2  A    between atoms: C_5  and  S_8
REMARK    3  A    between atoms: S_8  and  N_11
REMARK    4  A    between atoms: N_11  and  C_12
REMARK    5  A    between atoms: C_17  and  C_18
REMARK    6  A    between atoms: C_18  and  C_19
REMARK    7  A    between atoms: C_19  and  C_20
REMARK                            x       y       z     vdW  Elec       q    Type
REMARK                         _______ _______ _______ _____ _____    ______ ____
ROOT
ATOM      1  C   UNL     1       2.497  -4.623   1.011  0.00  0.00    +0.051 A 
ATOM      2  C   UNL     1       2.036  -4.640   2.321  0.00  0.00    +0.025 A 
ATOM      3  C   UNL     1       2.876  -4.267   3.352  0.00  0.00    +0.002 A 
ATOM      4  C   UNL     1       4.175  -3.877   3.082  0.00  0.00    +0.000 A 
ATOM      5  C   UNL     1       4.637  -3.858   1.779  0.00  0.00    +0.005 A 
ATOM      6  C   UNL     1       3.804  -4.236   0.743  0.00  0.00    -0.025 A 
ENDROOT
BRANCH   1   7
ATOM      7  N   UNL     1       1.651  -4.999  -0.034  0.00  0.00    -0.216 N 
ATOM      8  H   UNL     1       2.008  -5.477  -0.799  0.00  0.00    +0.174 HD
BRANCH   7   9
ATOM      9  S   UNL     1       0.038  -4.631   0.033  0.00  0.00    +0.072 S 
ATOM     10  O   UNL     1      -0.442  -5.135   1.272  0.00  0.00    -0.150 OA
ATOM     11  O   UNL     1      -0.520  -5.020  -1.215  0.00  0.00    -0.150 OA
BRANCH   9  16
ATOM     12  C   UNL     1      -0.413   1.379   0.323  0.00  0.00    +0.044 C 
ATOM     13  C   UNL     1      -0.300  -0.122   0.251  0.00  0.00    -0.050 A 
ATOM     14  C   UNL     1      -0.285  -0.756  -0.978  0.00  0.00    +0.005 A 
ATOM     15  C   UNL     1      -0.182  -2.133  -1.044  0.00  0.00    +0.029 A 
ATOM     16  C   UNL     1      -0.093  -2.876   0.118  0.00  0.00    +0.109 A 
ATOM     17  C   UNL     1      -0.107  -2.243   1.346  0.00  0.00    +0.029 A 
ATOM     18  C   UNL     1      -0.207  -0.866   1.413  0.00  0.00    +0.005 A 
ENDBRANCH   9  16
ENDBRANCH   7   9
ENDBRANCH   1   7
BRANCH   6  19
ATOM     19  C   UNL     1       4.311  -4.221  -0.676  0.00  0.00    +0.041 C 
BRANCH  19  20
ATOM     20  C   UNL     1       3.938  -2.893  -1.338  0.00  0.00    +0.051 C 
BRANCH  20  21
ATOM     21  C   UNL     1       4.452  -2.879  -2.778  0.00  0.00    +0.174 C 
ATOM     22  N   UNL     1       5.918  -2.958  -2.791  0.00  0.00    -0.363 N 
ATOM     23  C   UNL     1       6.363  -1.880  -3.368  0.00  0.00    +0.060 A 
ATOM     24  C   UNL     1       7.716  -1.394  -3.671  0.00  0.00    +0.027 A 
ATOM     25  C   UNL     1       7.874  -0.209  -4.293  0.00  0.00    +0.002 A 
ATOM     26  C   UNL     1       6.787   0.599  -4.673  0.00  0.00    +0.002 A 
ATOM     27  C   UNL     1       5.506   0.248  -4.443  0.00  0.00    +0.027 A 
ATOM     28  C   UNL     1       5.212  -1.025  -3.771  0.00  0.00    +0.060 A 
ATOM     29  N   UNL     1       4.101  -1.609  -3.426  0.00  0.00    -0.363 N 
ATOM     30  H   UNL     1       6.457  -3.682  -2.434  0.00  0.00    +0.162 HD
ATOM     31  H   UNL     1       3.204  -1.267  -3.571  0.00  0.00    +0.162 HD
ENDBRANCH  20  21
ENDBRANCH  19  20
ENDBRANCH   6  19
TORSDOF 6
