REMARK  Name = ZINC49425806
REMARK  4 active torsions:
REMARK  status: ('A' for Active; 'I' for Inactive)
REMARK    1  A    between atoms: C_3  and  C_6
REMARK    2  A    between atoms: C_6  and  N_7
REMARK    3  A    between atoms: C_14  and  C_17
REMARK    4  A    between atoms: N_19  and  C_20
REMARK                            x       y       z     vdW  Elec       q    Type
REMARK                         _______ _______ _______ _____ _____    ______ ____
ROOT
ATOM      1  N   UNL     1       4.304   1.932   1.212  0.00  0.00    -0.295 N 
ATOM      2  C   UNL     1       5.558   2.359   1.460  0.00  0.00    +0.302 C 
ATOM      3  O   UNL     1       6.378   2.390   0.563  0.00  0.00    -0.253 OA
ATOM      4  N   UNL     1       5.903   2.751   2.703  0.00  0.00    -0.285 N 
ATOM      5  C   UNL     1       4.963   2.605   3.822  0.00  0.00    +0.109 C 
ATOM      6  C   UNL     1       5.654   1.832   4.949  0.00  0.00    +0.020 C 
ATOM      7  C   UNL     1       6.964   2.534   5.316  0.00  0.00    +0.016 C 
ATOM      8  C   UNL     1       7.893   2.550   4.100  0.00  0.00    +0.093 C 
ATOM      9  C   UNL     1       7.230   3.326   2.964  0.00  0.00    +0.122 C 
ATOM     10  H   UNL     1       3.670   1.839   1.941  0.00  0.00    +0.151 HD
ENDROOT
BRANCH   8  11
ATOM     11  C   UNL     1       9.195   3.212   4.471  0.00  0.00    +0.222 C 
ATOM     12  O   UNL     1       9.364   3.631   5.598  0.00  0.00    -0.275 OA
ATOM     13  N   UNL     1      10.173   3.339   3.552  0.00  0.00    -0.285 N 
ATOM     14  H   UNL     1      10.012   3.072   2.634  0.00  0.00    +0.155 HD
BRANCH  13  15
ATOM     15  C   UNL     1      11.420   3.857   3.924  0.00  0.00    +0.037 A 
ATOM     16  C   UNL     1      12.150   4.624   3.025  0.00  0.00    +0.027 A 
ATOM     17  C   UNL     1      13.380   5.134   3.390  0.00  0.00    +0.051 A 
ATOM     18  C   UNL     1      13.891   4.883   4.655  0.00  0.00    +0.162 A 
ATOM     19  C   UNL     1      13.162   4.117   5.558  0.00  0.00    +0.164 A 
ATOM     20  C   UNL     1      11.925   3.609   5.192  0.00  0.00    +0.072 A 
ATOM     21  O   UNL     1      13.643   3.867   6.806  0.00  0.00    -0.485 OA
ATOM     22  C   UNL     1      15.044   4.082   7.011  0.00  0.00    +0.270 C 
ATOM     23  C   UNL     1      15.418   5.436   6.393  0.00  0.00    +0.270 C 
ATOM     24  O   UNL     1      15.108   5.391   4.996  0.00  0.00    -0.485 OA
ENDBRANCH  13  15
ENDBRANCH   8  11
BRANCH   1  25
ATOM     25  C   UNL     1       3.897   1.609  -0.158  0.00  0.00    +0.148 C 
BRANCH  25  28
ATOM     26  C   UNL     1       0.105   1.268  -0.279  0.00  0.00    +0.008 A 
ATOM     27  C   UNL     1       1.333   1.901  -0.307  0.00  0.00    +0.013 A 
ATOM     28  C   UNL     1       2.459   1.160  -0.162  0.00  0.00    +0.007 A 
ATOM     29  S   UNL     1       1.795  -0.487   0.023  0.00  0.00    -0.100 S 
ATOM     30  C   UNL     1       0.062  -0.076  -0.106  0.00  0.00    +0.045 A 
ENDBRANCH  25  28
ENDBRANCH   1  25
TORSDOF 4
