REMARK  Name = ZINC59483769
REMARK  10 active torsions:
REMARK  status: ('A' for Active; 'I' for Inactive)
REMARK    1  A    between atoms: C_1  and  C_2
REMARK    2  A    between atoms: C_2  and  C_3
REMARK    3  A    between atoms: C_2  and  C_4
REMARK    4  A    between atoms: C_7  and  N_10
REMARK    5  A    between atoms: C_11  and  C_13
REMARK    6  A    between atoms: N_15  and  N_16
REMARK    7  A    between atoms: C_17  and  C_18
REMARK    8  A    between atoms: C_20  and  O_26
REMARK    9  A    between atoms: C_21  and  O_25
REMARK   10  A    between atoms: O_26  and  C_27
REMARK                            x       y       z     vdW  Elec       q    Type
REMARK                         _______ _______ _______ _____ _____    ______ ____
ROOT
ATOM      1  C   UNL     1      -7.219  -3.081  -1.052  0.00  0.00    +0.318 C 
ATOM      2  O   UNL     1      -7.960  -2.797  -0.133  0.00  0.00    -0.263 OA
ATOM      3  N   UNL     1      -7.689  -3.776  -2.107  0.00  0.00    -0.199 N 
ATOM      4  H   UNL     1      -7.097  -4.003  -2.841  0.00  0.00    +0.178 HD
ENDROOT
BRANCH   1   6
ATOM      5  N   UNL     1      -5.319  -1.966   0.042  0.00  0.00    -0.278 N 
ATOM      6  C   UNL     1      -5.789  -2.661  -1.013  0.00  0.00    +0.305 C 
ATOM      7  O   UNL     1      -5.048  -2.945  -1.932  0.00  0.00    -0.265 OA
ATOM      8  H   UNL     1      -5.889  -1.806   0.810  0.00  0.00    +0.155 HD
BRANCH   5  12
ATOM      9  C   UNL     1      -1.417  -0.511   0.005  0.00  0.00    -0.045 A 
ATOM     10  C   UNL     1      -1.990  -0.918   1.196  0.00  0.00    +0.006 A 
ATOM     11  C   UNL     1      -3.284  -1.401   1.212  0.00  0.00    +0.023 A 
ATOM     12  C   UNL     1      -4.010  -1.478   0.029  0.00  0.00    +0.034 A 
ATOM     13  C   UNL     1      -3.431  -1.068  -1.165  0.00  0.00    +0.023 A 
ATOM     14  C   UNL     1      -2.139  -0.581  -1.173  0.00  0.00    +0.006 A 
BRANCH   9  16
ATOM     15  C   UNL     1       0.088   1.248   0.894  0.00  0.00    +0.012 C 
ATOM     16  C   UNL     1      -0.005   0.016  -0.009  0.00  0.00    +0.013 C 
ATOM     17  C   UNL     1       0.947  -1.065   0.505  0.00  0.00    +0.012 C 
ENDBRANCH   9  16
ENDBRANCH   5  12
ENDBRANCH   1   6
BRANCH   3  18
ATOM     18  N   UNL     1      -9.033  -4.170  -2.143  0.00  0.00    -0.187 NA
ATOM     19  C   UNL     1      -9.486  -4.840  -3.160  0.00  0.00    +0.138 C 
BRANCH  19  20
ATOM     20  C   UNL     1     -10.899  -5.255  -3.199  0.00  0.00    -0.001 A 
ATOM     21  C   UNL     1     -11.387  -5.981  -4.290  0.00  0.00    +0.059 A 
ATOM     22  C   UNL     1     -12.713  -6.367  -4.321  0.00  0.00    +0.163 A 
ATOM     23  C   UNL     1     -13.561  -6.034  -3.267  0.00  0.00    +0.173 A 
ATOM     24  C   UNL     1     -13.078  -5.313  -2.183  0.00  0.00    +0.063 A 
ATOM     25  C   UNL     1     -11.754  -4.929  -2.142  0.00  0.00    +0.028 A 
ATOM     26 BR   UNL     1     -14.236  -4.864  -0.757  0.00  0.00    -0.046 Br
BRANCH  23  27
ATOM     27  O   UNL     1     -14.866  -6.415  -3.300  0.00  0.00    -0.503 OA
ATOM     28  H   UNL     1     -15.033  -7.280  -2.901  0.00  0.00    +0.292 HD
ENDBRANCH  23  27
BRANCH  22  29
ATOM     29  O   UNL     1     -13.191  -7.073  -5.381  0.00  0.00    -0.491 OA
ATOM     30  C   UNL     1     -12.266  -7.379  -6.426  0.00  0.00    +0.277 C 
ENDBRANCH  22  29
ENDBRANCH  19  20
ENDBRANCH   3  18
TORSDOF 7
