REMARK  Name = ZINC40139219
REMARK  6 active torsions:
REMARK  status: ('A' for Active; 'I' for Inactive)
REMARK    1  A    between atoms: C_1  and  C_2
REMARK    2  A    between atoms: C_5  and  C_29
REMARK    3  A    between atoms: N_13  and  C_14
REMARK    4  A    between atoms: C_14  and  N_15
REMARK    5  A    between atoms: N_18  and  C_26
REMARK    6  A    between atoms: C_19  and  C_21
REMARK                            x       y       z     vdW  Elec       q    Type
REMARK                         _______ _______ _______ _____ _____    ______ ____
ROOT
ATOM      1  C   UNL     1      -0.286   1.233   0.038  0.00  0.00    +0.028 C 
ATOM      2  C   UNL     1      -0.099  -0.283   0.127  0.00  0.00    +0.073 C 
ATOM      3  C   UNL     1       0.439  -0.819  -1.206  0.00  0.00    +0.039 C 
ATOM      4  C   UNL     1       0.552  -2.341  -1.117  0.00  0.00    +0.108 C 
ATOM      5  C   UNL     1       1.317  -2.741   0.116  0.00  0.00    -0.014 A 
ATOM      6  C   UNL     1       1.895  -3.998   0.167  0.00  0.00    +0.006 A 
ATOM      7  C   UNL     1       2.601  -4.396   1.286  0.00  0.00    +0.000 A 
ATOM      8  C   UNL     1       2.734  -3.541   2.364  0.00  0.00    +0.002 A 
ATOM      9  C   UNL     1       2.161  -2.286   2.322  0.00  0.00    +0.023 A 
ATOM     10  C   UNL     1       1.451  -1.883   1.196  0.00  0.00    +0.035 A 
ATOM     11  N   UNL     1       0.884  -0.603   1.171  0.00  0.00    -0.307 N 
ENDROOT
BRANCH   4  12
ATOM     12  C   UNL     1       1.272  -2.859  -2.335  0.00  0.00    +0.218 C 
ATOM     13  O   UNL     1       2.168  -2.210  -2.832  0.00  0.00    -0.275 OA
ATOM     14  N   UNL     1       0.921  -4.044  -2.873  0.00  0.00    -0.329 N 
ATOM     15  H   UNL     1       0.158  -4.529  -2.521  0.00  0.00    +0.145 HD
ATOM     16  H   UNL     1       1.431  -4.412  -3.611  0.00  0.00    +0.145 HD
ENDBRANCH   4  12
BRANCH  11  17
ATOM     17  C   UNL     1       1.266   0.401   2.167  0.00  0.00    +0.253 C 
BRANCH  17  18
ATOM     18  N   UNL     1       2.477   1.094   1.723  0.00  0.00    -0.222 N 
ATOM     19  C   UNL     1       3.719   0.927   2.221  0.00  0.00    +0.180 A 
ATOM     20  S   UNL     1       4.165  -0.135   3.488  0.00  0.00    -0.011 S 
ATOM     21  N   UNL     1       4.547   1.746   1.542  0.00  0.00    -0.300 N 
ATOM     22  C   UNL     1       3.801   2.434   0.603  0.00  0.00    +0.170 A 
ATOM     23  N   UNL     1       2.557   2.047   0.698  0.00  0.00    -0.149 NA
BRANCH  22  24
ATOM     24  C   UNL     1       4.322   3.431  -0.347  0.00  0.00    +0.056 A 
ATOM     25  C   UNL     1       3.648   4.155  -1.297  0.00  0.00    +0.019 A 
ATOM     26  C   UNL     1       4.355   5.039  -2.080  0.00  0.00    +0.008 A 
ATOM     27  C   UNL     1       5.694   5.169  -1.889  0.00  0.00    +0.046 A 
ATOM     28  S   UNL     1       5.995   4.019  -0.557  0.00  0.00    -0.094 S 
ENDBRANCH  22  24
BRANCH  21  29
ATOM     29  C   UNL     1       5.989   1.882   1.760  0.00  0.00    +0.091 C 
ATOM     30  C   UNL     1       6.688   0.786   2.567  0.00  0.00    +0.027 C 
ATOM     31  C   UNL     1       6.463   2.167   3.187  0.00  0.00    +0.027 C 
ENDBRANCH  21  29
ENDBRANCH  17  18
ENDBRANCH  11  17
TORSDOF 5
