REMARK  Name = ZINC35388170
REMARK  8 active torsions:
REMARK  status: ('A' for Active; 'I' for Inactive)
REMARK    1  A    between atoms: C_1  and  C_2
REMARK    2  A    between atoms: C_2  and  C_3
REMARK    3  A    between atoms: C_2  and  C_4
REMARK    4  A    between atoms: C_4  and  C_6
REMARK    5  A    between atoms: C_4  and  N_17
REMARK    6  A    between atoms: C_18  and  C_20
REMARK    7  A    between atoms: C_20  and  N_21
REMARK    8  A    between atoms: C_30  and  C_32
REMARK                            x       y       z     vdW  Elec       q    Type
REMARK                         _______ _______ _______ _____ _____    ______ ____
ROOT
ATOM      1  N   UNL     1      -0.624  -2.973  -1.013  0.00  0.00    -0.307 N 
ATOM      2  C   UNL     1      -0.661  -3.303   0.293  0.00  0.00    +0.228 C 
ATOM      3  O   UNL     1      -0.518  -2.446   1.139  0.00  0.00    -0.274 OA
ATOM      4  H   UNL     1      -0.739  -3.658  -1.690  0.00  0.00    +0.149 HD
ENDROOT
BRANCH   1   5
ATOM      5  C   UNL     1      -0.411  -1.579  -1.410  0.00  0.00    +0.106 C 
BRANCH   5   6
ATOM      6  C   UNL     1      -0.999  -1.351  -2.779  0.00  0.00    -0.023 A 
ATOM      7  C   UNL     1      -0.868  -2.321  -3.755  0.00  0.00    +0.009 A 
ATOM      8  C   UNL     1      -1.405  -2.119  -5.014  0.00  0.00    +0.050 A 
ATOM      9  C   UNL     1      -2.076  -0.940  -5.293  0.00  0.00    +0.162 A 
ATOM     10  C   UNL     1      -2.207   0.034  -4.313  0.00  0.00    +0.162 A 
ATOM     11  C   UNL     1      -1.672  -0.174  -3.053  0.00  0.00    +0.055 A 
ATOM     12  O   UNL     1      -2.871   1.191  -4.598  0.00  0.00    -0.488 OA
ATOM     13  C   UNL     1      -2.230   2.066  -5.529  0.00  0.00    +0.232 C 
ATOM     14  C   UNL     1      -2.552   1.661  -6.959  0.00  0.00    +0.082 C 
ATOM     15  C   UNL     1      -1.991   0.293  -7.314  0.00  0.00    +0.232 C 
ATOM     16  O   UNL     1      -2.611  -0.729  -6.530  0.00  0.00    -0.488 OA
ENDBRANCH   5   6
BRANCH   5  18
ATOM     17  C   UNL     1       1.312   0.174  -1.858  0.00  0.00    +0.009 C 
ATOM     18  C   UNL     1       1.089  -1.282  -1.444  0.00  0.00    +0.008 C 
ATOM     19  C   UNL     1       1.686  -1.513  -0.054  0.00  0.00    +0.009 C 
ENDBRANCH   5  18
ENDBRANCH   1   5
BRANCH   2  20
ATOM     20  C   UNL     1      -0.880  -4.737   0.701  0.00  0.00    +0.181 C 
BRANCH  20  21
ATOM     21  N   UNL     1      -0.879  -4.834   2.167  0.00  0.00    -0.278 NA
ATOM     22  C   UNL     1       0.477  -4.680   2.703  0.00  0.00    +0.121 C 
ATOM     23  C   UNL     1       0.480  -4.878   4.196  0.00  0.00    -0.030 A 
ATOM     24  C   UNL     1       1.568  -4.416   4.921  0.00  0.00    +0.005 A 
ATOM     25  C   UNL     1       1.615  -4.580   6.291  0.00  0.00    +0.000 A 
ATOM     26  C   UNL     1       0.572  -5.210   6.945  0.00  0.00    +0.000 A 
ATOM     27  C   UNL     1      -0.513  -5.669   6.224  0.00  0.00    +0.004 A 
ATOM     28  C   UNL     1      -0.561  -5.502   4.848  0.00  0.00    -0.041 A 
ATOM     29  C   UNL     1      -1.770  -6.010   4.105  0.00  0.00    +0.063 C 
ATOM     30  C   UNL     1      -1.460  -6.111   2.611  0.00  0.00    +0.148 C 
BRANCH  30  31
ATOM     31  C   UNL     1      -2.730  -6.383   1.848  0.00  0.00    +0.228 C 
ATOM     32  O   UNL     1      -3.451  -5.463   1.523  0.00  0.00    -0.274 OA
ATOM     33  N   UNL     1      -3.066  -7.648   1.526  0.00  0.00    -0.328 N 
ATOM     34  H   UNL     1      -2.490  -8.383   1.786  0.00  0.00    +0.145 HD
ATOM     35  H   UNL     1      -3.884  -7.822   1.034  0.00  0.00    +0.145 HD
ENDBRANCH  30  31
ENDBRANCH  20  21
ENDBRANCH   2  20
TORSDOF 6
