REMARK  Name = ZINC42278630
REMARK  7 active torsions:
REMARK  status: ('A' for Active; 'I' for Inactive)
REMARK    1  A    between atoms: C_1  and  C_2
REMARK    2  A    between atoms: C_2  and  C_3
REMARK    3  A    between atoms: C_3  and  N_4
REMARK    4  A    between atoms: N_4  and  S_5
REMARK    5  A    between atoms: S_5  and  C_8
REMARK    6  A    between atoms: C_11  and  S_15
REMARK    7  A    between atoms: S_15  and  N_18
REMARK                            x       y       z     vdW  Elec       q    Type
REMARK                         _______ _______ _______ _____ _____    ______ ____
ROOT
ATOM      1  C   UNL     1       1.300  -2.455   3.889  0.00  0.00    +0.140 A 
ATOM      2  C   UNL     1       0.825  -3.476   4.692  0.00  0.00    +0.033 A 
ATOM      3  C   UNL     1       0.435  -3.210   5.991  0.00  0.00    +0.030 A 
ATOM      4  C   UNL     1       0.519  -1.923   6.489  0.00  0.00    +0.108 A 
ATOM      5  C   UNL     1       0.994  -0.901   5.689  0.00  0.00    +0.068 A 
ATOM      6  C   UNL     1       1.390  -1.168   4.389  0.00  0.00    +0.151 A 
ATOM      7  F   UNL     1       1.859  -0.171   3.607  0.00  0.00    -0.203 F 
ENDROOT
BRANCH   1   8
ATOM      8  S   UNL     1       1.797  -2.795   2.233  0.00  0.00    +0.061 S 
ATOM      9  O   UNL     1       1.562  -4.180   2.015  0.00  0.00    -0.153 OA
ATOM     10  O   UNL     1       3.078  -2.204   2.065  0.00  0.00    -0.153 OA
BRANCH   8  11
ATOM     11  N   UNL     1       0.762  -1.976   1.234  0.00  0.00    -0.190 NA
ATOM     12  H   UNL     1       0.169  -2.466   0.642  0.00  0.00    +0.148 HD
BRANCH  11  13
ATOM     13  C   UNL     1       0.742  -0.511   1.242  0.00  0.00    +0.105 C 
BRANCH  13  15
ATOM     14  C   UNL     1      -0.019   1.526   0.010  0.00  0.00    +0.005 C 
ATOM     15  C   UNL     1       0.002  -0.004   0.002  0.00  0.00    +0.013 C 
ENDBRANCH  13  15
ENDBRANCH  11  13
ENDBRANCH   8  11
ENDBRANCH   1   8
BRANCH   4  16
ATOM     16  S   UNL     1       0.020  -1.585   8.145  0.00  0.00    +0.056 S 
ATOM     17  O   UNL     1      -0.316  -0.205   8.194  0.00  0.00    -0.153 OA
ATOM     18  O   UNL     1      -0.898  -2.606   8.509  0.00  0.00    -0.153 OA
BRANCH  16  19
ATOM     19  N   UNL     1       1.353  -1.782   9.108  0.00  0.00    -0.204 NA
ATOM     20  H   UNL     1       2.202  -2.039   8.714  0.00  0.00    +0.144 HD
ATOM     21  H   UNL     1       1.285  -1.641  10.065  0.00  0.00    +0.144 HD
ENDBRANCH  16  19
ENDBRANCH   4  16
TORSDOF 6
