REMARK  Name = ZINC44777266
REMARK  6 active torsions:
REMARK  status: ('A' for Active; 'I' for Inactive)
REMARK    1  A    between atoms: C_1  and  N_2
REMARK    2  A    between atoms: C_5  and  C_8
REMARK    3  A    between atoms: C_8  and  N_9
REMARK    4  A    between atoms: C_10  and  C_12
REMARK    5  A    between atoms: C_12  and  C_18
REMARK    6  A    between atoms: C_18  and  N_20
REMARK                            x       y       z     vdW  Elec       q    Type
REMARK                         _______ _______ _______ _____ _____    ______ ____
ROOT
ATOM      1  N   UNL     1      -0.185  -3.774   3.017  0.00  0.00    -0.314 N 
ATOM      2  C   UNL     1      -0.607  -4.213   4.220  0.00  0.00    +0.225 C 
ATOM      3  O   UNL     1      -0.534  -3.489   5.189  0.00  0.00    -0.275 OA
ATOM      4  H   UNL     1      -0.174  -4.377   2.257  0.00  0.00    +0.149 HD
ENDROOT
BRANCH   2   5
ATOM      5  C   UNL     1      -1.169  -5.604   4.359  0.00  0.00    +0.095 C 
ATOM      6  C   UNL     1      -1.403  -5.917   5.840  0.00  0.00    +0.051 C 
ATOM      7  C   UNL     1      -0.061  -5.894   6.576  0.00  0.00    +0.161 C 
ATOM      8  O   UNL     1       0.827  -6.838   5.974  0.00  0.00    -0.380 OA
ATOM      9  C   UNL     1       1.120  -6.569   4.601  0.00  0.00    +0.161 C 
ATOM     10  C   UNL     1      -0.174  -6.619   3.785  0.00  0.00    +0.051 C 
BRANCH   5  11
ATOM     11  C   UNL     1      -2.473  -5.699   3.610  0.00  0.00    +0.061 C 
ATOM     12  S   UNL     1      -2.678  -6.832   2.500  0.00  0.00    -0.040 S 
BRANCH  11  13
ATOM     13  N   UNL     1      -3.467  -4.827   3.875  0.00  0.00    -0.355 N 
ATOM     14  H   UNL     1      -3.371  -4.187   4.597  0.00  0.00    +0.143 HD
ATOM     15  H   UNL     1      -4.278  -4.841   3.343  0.00  0.00    +0.143 HD
ENDBRANCH  11  13
ENDBRANCH   5  11
ENDBRANCH   2   5
BRANCH   1  16
ATOM     16  C   UNL     1       0.257  -2.386   2.858  0.00  0.00    +0.105 C 
BRANCH  16  21
ATOM     17  C   UNL     1       0.675   1.165  -0.225  0.00  0.00    -0.096 C 
ATOM     18  N   UNL     1       0.719  -0.300  -0.117  0.00  0.00    +0.378 N 
ATOM     19  C   UNL     1      -0.651  -0.868  -0.200  0.00  0.00    -0.079 C 
ATOM     20  C   UNL     1      -0.538  -2.255   0.469  0.00  0.00    -0.016 C 
ATOM     21  C   UNL     1       0.681  -2.150   1.407  0.00  0.00    -0.012 C 
ATOM     22  C   UNL     1       1.202  -0.707   1.227  0.00  0.00    -0.074 C 
ATOM     23  H   UNL     1       1.308  -0.689  -0.837  0.00  0.00    -0.082 HD
ENDBRANCH  16  21
ENDBRANCH   1  16
TORSDOF 5
