REMARK  Name = ZINC12873391
REMARK  7 active torsions:
REMARK  status: ('A' for Active; 'I' for Inactive)
REMARK    1  A    between atoms: C_1  and  N_43
REMARK    2  A    between atoms: C_2  and  C_3
REMARK    3  A    between atoms: C_2  and  N_43
REMARK    4  A    between atoms: N_5  and  C_6
REMARK    5  A    between atoms: C_11  and  C_12
REMARK    6  A    between atoms: C_16  and  C_17
REMARK    7  A    between atoms: C_16  and  N_43
REMARK                            x       y       z     vdW  Elec       q    Type
REMARK                         _______ _______ _______ _____ _____    ______ ____
ROOT
ATOM      1  C   UNL     1       1.250   1.895   0.002  0.00  0.00    +0.019 C 
ENDROOT
BRANCH   1   2
ATOM      2  C   UNL     1      -0.064   1.158  -0.006  0.00  0.00    +0.201 C 
ATOM      3  O   UNL     1      -0.079  -0.055  -0.025  0.00  0.00    -0.278 OA
ATOM      4  N   UNL     1      -1.223   1.846   0.002  0.00  0.00    -0.287 N 
ATOM      5  H   UNL     1      -1.212   2.813   0.076  0.00  0.00    +0.155 HD
BRANCH   4   6
ATOM      6  C   UNL     1      -2.442   1.165  -0.096  0.00  0.00    +0.045 A 
ATOM      7  C   UNL     1      -2.535  -0.157   0.320  0.00  0.00    +0.024 A 
ATOM      8  C   UNL     1      -3.740  -0.825   0.226  0.00  0.00    +0.002 A 
ATOM      9  C   UNL     1      -4.851  -0.182  -0.291  0.00  0.00    +0.001 A 
ATOM     10  C   UNL     1      -4.759   1.132  -0.709  0.00  0.00    +0.014 A 
ATOM     11  C   UNL     1      -3.558   1.808  -0.614  0.00  0.00    +0.076 A 
BRANCH  11  12
ATOM     12  C   UNL     1      -3.459   3.240  -1.071  0.00  0.00    +0.419 C 
ATOM     13  F   UNL     1      -4.704   3.664  -1.550  0.00  0.00    -0.166 F 
ATOM     14  F   UNL     1      -3.074   4.048   0.004  0.00  0.00    -0.166 F 
ATOM     15  F   UNL     1      -2.509   3.339  -2.093  0.00  0.00    -0.166 F 
ENDBRANCH  11  12
ENDBRANCH   4   6
ENDBRANCH   1   2
BRANCH   1  17
ATOM     16  C   UNL     1       2.388   0.142   1.224  0.00  0.00    -0.095 C 
ATOM     17  N   UNL     1       2.350   0.909  -0.038  0.00  0.00    +0.389 N 
ATOM     18  H   UNL     1       2.189   0.261  -0.818  0.00  0.00    -0.081 HD
BRANCH  17  19
ATOM     19  C   UNL     1       3.640   1.600  -0.248  0.00  0.00    +0.019 C 
BRANCH  19  20
ATOM     20  C   UNL     1       4.708   0.568  -0.504  0.00  0.00    +0.202 C 
ATOM     21  O   UNL     1       4.426  -0.611  -0.495  0.00  0.00    -0.278 OA
ATOM     22  N   UNL     1       5.976   0.956  -0.744  0.00  0.00    -0.272 N 
ATOM     23  C   UNL     1       6.942   0.011  -1.087  0.00  0.00    +0.125 A 
ATOM     24  C   UNL     1       8.269   0.401  -1.227  0.00  0.00    +0.045 A 
ATOM     25  C   UNL     1       9.218  -0.548  -1.563  0.00  0.00    +0.025 A 
ATOM     26  C   UNL     1       8.803  -1.860  -1.758  0.00  0.00    +0.059 A 
ATOM     27  C   UNL     1       7.467  -2.176  -1.606  0.00  0.00    +0.132 A 
ATOM     28  N   UNL     1       6.586  -1.249  -1.280  0.00  0.00    -0.239 NA
ATOM     29 CL   UNL     1       9.952  -3.088  -2.186  0.00  0.00    -0.082 Cl
ATOM     30  H   UNL     1       6.218   1.894  -0.677  0.00  0.00    +0.156 HD
ENDBRANCH  19  20
ENDBRANCH  17  19
ENDBRANCH   1  17
TORSDOF 6
