REMARK  Name = ZINC48925049
REMARK  6 active torsions:
REMARK  status: ('A' for Active; 'I' for Inactive)
REMARK    1  A    between atoms: C_1  and  C_2
REMARK    2  A    between atoms: C_2  and  C_23
REMARK    3  A    between atoms: N_10  and  CA_11
REMARK    4  A    between atoms: CA_11  and  CB_13
REMARK    5  A    between atoms: CA_11  and  C_20
REMARK    6  A    between atoms: CB_13  and  CG_14
REMARK                            x       y       z     vdW  Elec       q    Type
REMARK                         _______ _______ _______ _____ _____    ______ ____
ROOT
ATOM      1  C   UNK A   0      -0.023   1.558   0.009  0.00  0.00    +0.034 C 
ATOM      2  C   UNK A   0      -0.093   0.031  -0.059  0.00  0.00    +0.057 C 
ATOM      3  C   UNK A   0      -1.553  -0.424   0.048  0.00  0.00    +0.185 C 
ATOM      4  O   UNK A   0      -2.043  -0.130   1.358  0.00  0.00    -0.376 OA
ATOM      5  C   UNK A   0      -1.359  -0.818   2.407  0.00  0.00    +0.179 C 
ATOM      6  C   UNK A   0       0.111  -0.383   2.422  0.00  0.00    +0.138 C 
ATOM      7  N   UNK A   0       0.657  -0.550   1.066  0.00  0.00    -0.276 N 
ATOM      8  C   UNK A   0       1.812  -1.214   0.860  0.00  0.00    +0.303 C 
ATOM      9  O   UNK A   0       2.301  -1.253  -0.253  0.00  0.00    -0.253 OA
ATOM     10  N   HIS A   1       2.424  -1.836   1.887  0.00  0.00    -0.286 N 
ATOM     11  C   UNK A   0       0.503  -0.454  -1.382  0.00  0.00    +0.034 C 
ATOM     12  H   HIS A   1       1.997  -1.869   2.758  0.00  0.00    +0.151 HD
ENDROOT
BRANCH  10  13
ATOM     13  CA  HIS A   1       3.733  -2.463   1.689  0.00  0.00    +0.193 C 
BRANCH  13  14
ATOM     14  C   HIS A   1       3.546  -3.856   1.145  0.00  0.00    +0.376 C 
ATOM     15  O   HIS A   1       4.393  -4.346   0.418  0.00  0.00    -0.244 OA
ATOM     16  OXT HIS A   1       2.547  -4.494   1.433  0.00  0.00    -0.244 OA
ENDBRANCH  13  14
BRANCH  13  17
ATOM     17  CB  HIS A   1       4.473  -2.533   3.026  0.00  0.00    +0.088 C 
BRANCH  17  18
ATOM     18  CG  HIS A   1       4.769  -1.136   3.509  0.00  0.00    +0.035 A 
ATOM     19  CD2 HIS A   1       5.823  -0.373   3.163  0.00  0.00    +0.105 A 
ATOM     20  NE2 HIS A   1       5.718   0.797   3.810  0.00  0.00    -0.352 N 
ATOM     21  HD1 HIS A   1       3.186  -0.674   4.803  0.00  0.00    +0.166 HD
ATOM     22  CE1 HIS A   1       4.639   0.789   4.543  0.00  0.00    +0.171 A 
ATOM     23  ND1 HIS A   1       4.014  -0.397   4.380  0.00  0.00    -0.350 N 
ATOM     24  HE2 HIS A   1       6.346   1.534   3.743  0.00  0.00    +0.166 HD
ENDBRANCH  17  18
ENDBRANCH  13  17
ENDBRANCH  10  13
TORSDOF 4
