REMARK  Name = ZINC35332995
REMARK  3 active torsions:
REMARK  status: ('A' for Active; 'I' for Inactive)
REMARK    1  A    between atoms: C_3  and  O_9
REMARK    2  A    between atoms: O_9  and  C_10
REMARK    3  A    between atoms: C_13  and  N_20
REMARK                            x       y       z     vdW  Elec       q    Type
REMARK                         _______ _______ _______ _____ _____    ______ ____
ROOT
ATOM      1  C   UNL     1       3.379   3.456  -0.005  0.00  0.00    +0.136 A 
ATOM      2  C   UNL     1       2.113   3.994   0.074  0.00  0.00    +0.049 A 
ATOM      3  C   UNL     1       1.923   5.372   0.092  0.00  0.00    +0.027 A 
ATOM      4  C   UNL     1       2.996   6.237   0.030  0.00  0.00    +0.034 A 
ATOM      5  C   UNL     1       4.303   5.716  -0.052  0.00  0.00    +0.024 A 
ATOM      6  C   UNL     1       4.494   4.309  -0.064  0.00  0.00    +0.029 A 
ATOM      7  C   UNL     1       5.809   3.817  -0.141  0.00  0.00    +0.032 A 
ATOM      8  C   UNL     1       6.838   4.708  -0.195  0.00  0.00    +0.111 A 
ATOM      9  N   UNL     1       6.631   6.018  -0.176  0.00  0.00    -0.263 NA
ATOM     10  C   UNL     1       5.431   6.547  -0.117  0.00  0.00    +0.121 A 
ENDROOT
BRANCH   4  11
ATOM     11  N   UNL     1       2.789   7.616   0.047  0.00  0.00    -0.357 N 
ATOM     12  H   UNL     1       1.888   7.971   0.103  0.00  0.00    +0.142 HD
ATOM     13  H   UNL     1       3.547   8.221   0.004  0.00  0.00    +0.142 HD
ENDBRANCH   4  11
BRANCH   1  14
ATOM     14  O   UNL     1       3.548   2.107  -0.021  0.00  0.00    -0.454 OA
BRANCH  14  17
ATOM     15  C   UNL     1       3.984   1.557   3.549  0.00  0.00    +0.042 A 
ATOM     16  C   UNL     1       3.742   2.196   2.348  0.00  0.00    +0.050 A 
ATOM     17  C   UNL     1       3.787   1.480   1.161  0.00  0.00    +0.143 A 
ATOM     18  C   UNL     1       4.075   0.122   1.182  0.00  0.00    +0.063 A 
ATOM     19  C   UNL     1       4.316  -0.514   2.385  0.00  0.00    +0.057 A 
ATOM     20  C   UNL     1       4.271   0.203   3.569  0.00  0.00    +0.125 A 
ATOM     21  F   UNL     1       4.507  -0.420   4.744  0.00  0.00    -0.205 F 
ATOM     22 BR   UNL     1       4.136  -0.857  -0.435  0.00  0.00    -0.046 Br
ENDBRANCH  14  17
ENDBRANCH   1  14
TORSDOF 3
