REMARK  Name = ZINC41583202
REMARK  2 active torsions:
REMARK  status: ('A' for Active; 'I' for Inactive)
REMARK    1  A    between atoms: C_3  and  C_7
REMARK    2  A    between atoms: C_16  and  C_17
REMARK                            x       y       z     vdW  Elec       q    Type
REMARK                         _______ _______ _______ _____ _____    ______ ____
ROOT
ATOM      1  C   UNL     1       3.519   0.638  -0.041  0.00  0.00    +0.245 C 
ATOM      2  O   UNL     1       3.888  -0.293  -0.725  0.00  0.00    -0.273 OA
ATOM      3  N   UNL     1       4.397   1.593   0.326  0.00  0.00    -0.298 N 
ATOM      4  C   UNL     1       3.971   2.656   1.240  0.00  0.00    +0.112 C 
ATOM      5  C   UNL     1       4.217   4.030   0.597  0.00  0.00    +0.051 C 
ATOM      6  C   UNL     1       5.637   3.993   0.035  0.00  0.00    -0.039 C 
ATOM      7  C   UNL     1       6.020   2.875  -0.935  0.00  0.00    +0.097 C 
ATOM      8  S   UNL     1       7.815   3.156  -1.160  0.00  0.00    -0.096 S 
ATOM      9  C   UNL     1       7.960   4.661  -0.207  0.00  0.00    +0.101 C 
ATOM     10  C   UNL     1       6.598   4.849   0.337  0.00  0.00    +0.068 C 
ATOM     11  N   UNL     1       9.013   5.411  -0.034  0.00  0.00    -0.292 NA
ATOM     12  C   UNL     1       5.774   1.554  -0.191  0.00  0.00    +0.126 C 
ATOM     13  H   UNL     1       8.975   6.168   0.572  0.00  0.00    +0.187 HD
ENDROOT
BRANCH   1  16
ATOM     14  C   UNL     1      -0.112   1.491  -0.243  0.00  0.00    +0.031 C 
ATOM     15  C   UNL     1       1.373   1.924  -0.286  0.00  0.00    +0.043 C 
ATOM     16  C   UNL     1       2.081   0.727   0.399  0.00  0.00    +0.204 C 
ATOM     17  O   UNL     1       1.332  -0.417  -0.064  0.00  0.00    -0.367 OA
ATOM     18  C   UNL     1      -0.055  -0.039  -0.065  0.00  0.00    +0.161 C 
ENDBRANCH   1  16
BRANCH  10  19
ATOM     19  C   UNL     1       6.310   5.997   1.220  0.00  0.00    +0.244 C 
ATOM     20  O   UNL     1       6.645   5.965   2.388  0.00  0.00    -0.270 OA
ATOM     21  N   UNL     1       5.675   7.081   0.731  0.00  0.00    -0.325 N 
ATOM     22  H   UNL     1       5.344   7.078  -0.181  0.00  0.00    +0.145 HD
ATOM     23  H   UNL     1       5.550   7.863   1.290  0.00  0.00    +0.145 HD
ENDBRANCH  10  19
TORSDOF 2
