REMARK  Name = ZINC34976039
REMARK  3 active torsions:
REMARK  status: ('A' for Active; 'I' for Inactive)
REMARK    1  A    between atoms: C_1  and  C_2
REMARK    2  A    between atoms: C_3  and  C_8
REMARK    3  A    between atoms: C_6  and  N_7
REMARK                            x       y       z     vdW  Elec       q    Type
REMARK                         _______ _______ _______ _____ _____    ______ ____
ROOT
ATOM      1  C   UNL     1      -0.018   1.503   0.010  0.00  0.00    +0.051 C 
ATOM      2  C   UNL     1       0.002  -0.004   0.002  0.00  0.00    +0.039 A 
ATOM      3  C   UNL     1       0.008  -0.829  -1.145  0.00  0.00    +0.125 A 
ATOM      4  N   UNL     1       0.027  -2.081  -0.742  0.00  0.00    -0.075 NA
ATOM      5  O   UNL     1       0.034  -2.084   0.674  0.00  0.00    -0.339 OA
ATOM      6  C   UNL     1       0.024  -0.807   1.094  0.00  0.00    +0.219 A 
ENDROOT
BRANCH   3   7
ATOM      7  C   UNL     1      -0.005  -0.367  -2.549  0.00  0.00    +0.042 A 
ATOM      8  C   UNL     1       0.603  -0.919  -3.645  0.00  0.00    +0.019 A 
ATOM      9  C   UNL     1       0.449  -0.305  -4.867  0.00  0.00    +0.023 A 
ATOM     10  C   UNL     1      -0.300   0.827  -4.950  0.00  0.00    +0.056 A 
ATOM     11  S   UNL     1      -0.824   1.052  -3.258  0.00  0.00    -0.080 S 
ATOM     12 BR   UNL     1      -0.692   1.885  -6.468  0.00  0.00    -0.043 Br
ENDBRANCH   3   7
BRANCH   6  13
ATOM     13  N   UNL     1       0.032  -0.386   2.412  0.00  0.00    -0.327 N 
ATOM     14  H   UNL     1       0.021   0.561   2.618  0.00  0.00    +0.145 HD
ATOM     15  H   UNL     1       0.047  -1.039   3.129  0.00  0.00    +0.145 HD
ENDBRANCH   6  13
TORSDOF 2
