REMARK  Name = ZINC62321103
REMARK  5 active torsions:
REMARK  status: ('A' for Active; 'I' for Inactive)
REMARK    1  A    between atoms: C_1  and  N_2
REMARK    2  A    between atoms: N_2  and  C_3
REMARK    3  A    between atoms: C_4  and  C_6
REMARK    4  A    between atoms: N_8  and  C_18
REMARK    5  A    between atoms: C_13  and  N_17
REMARK                            x       y       z     vdW  Elec       q    Type
REMARK                         _______ _______ _______ _____ _____    ______ ____
ROOT
ATOM      1  C   UNL     1       0.080  -2.159  -1.318  0.00  0.00    +0.100 A 
ATOM      2  C   UNL     1       0.207  -2.758  -2.554  0.00  0.00    +0.103 A 
ATOM      3  N   UNL     1       0.174  -4.088  -2.709  0.00  0.00    -0.343 N 
ATOM      4  C   UNL     1       0.012  -4.959  -1.652  0.00  0.00    +0.055 A 
ATOM      5  C   UNL     1      -0.014  -6.333  -1.867  0.00  0.00    +0.026 A 
ATOM      6  C   UNL     1      -0.176  -7.198  -0.805  0.00  0.00    +0.004 A 
ATOM      7  C   UNL     1      -0.315  -6.718   0.486  0.00  0.00    +0.023 A 
ATOM      8  C   UNL     1      -0.292  -5.353   0.730  0.00  0.00    +0.037 A 
ATOM      9  C   UNL     1      -0.127  -4.466  -0.343  0.00  0.00    +0.067 A 
ATOM     10  C   UNL     1      -0.091  -3.011  -0.129  0.00  0.00    +0.203 A 
ATOM     11  O   UNL     1      -0.202  -2.530   0.986  0.00  0.00    -0.286 OA
ENDROOT
BRANCH   1  15
ATOM     12  C   UNL     1      -0.912   1.499  -1.438  0.00  0.00    +0.132 C 
ATOM     13  N   UNL     1      -0.984   0.036  -1.444  0.00  0.00    -0.303 N 
ATOM     14  C   UNL     1      -2.256  -0.634  -1.727  0.00  0.00    +0.132 C 
ATOM     15  C   UNL     1       0.120  -0.694  -1.189  0.00  0.00    +0.251 C 
ATOM     16  O   UNL     1       1.150  -0.142  -0.852  0.00  0.00    -0.270 OA
ENDBRANCH   1  15
BRANCH   3  17
ATOM     17  C   UNL     1       0.315  -4.641  -4.058  0.00  0.00    +0.087 C 
ATOM     18  C   UNL     1       1.566  -4.051  -4.742  0.00  0.00    +0.025 C 
ATOM     19  C   UNL     1       1.142  -3.875  -6.222  0.00  0.00    +0.002 C 
ATOM     20  C   UNL     1      -0.332  -3.414  -6.103  0.00  0.00    +0.002 C 
ATOM     21  C   UNL     1      -0.891  -4.236  -4.923  0.00  0.00    +0.025 C 
ENDBRANCH   3  17
BRANCH   8  22
ATOM     22  N   UNL     1      -0.431  -4.869   2.025  0.00  0.00    -0.357 N 
ATOM     23  H   UNL     1      -0.451  -5.486   2.773  0.00  0.00    +0.142 HD
ATOM     24  H   UNL     1      -0.508  -3.915   2.180  0.00  0.00    +0.142 HD
ENDBRANCH   8  22
TORSDOF 3
