REMARK  Name = ZINC60907478
REMARK  10 active torsions:
REMARK  status: ('A' for Active; 'I' for Inactive)
REMARK    1  A    between atoms: C_1  and  C_2
REMARK    2  A    between atoms: C_2  and  CA_3
REMARK    3  A    between atoms: CA_3  and  C_4
REMARK    4  A    between atoms: CA_3  and  N_6
REMARK    5  A    between atoms: C_4  and  O_5
REMARK    6  A    between atoms: N_9  and  C_10
REMARK    7  A    between atoms: C_10  and  C_11
REMARK    8  A    between atoms: C_14  and  C_17
REMARK    9  A    between atoms: C_17  and  N_18
REMARK   10  A    between atoms: C_23  and  C_24
REMARK                            x       y       z     vdW  Elec       q    Type
REMARK                         _______ _______ _______ _____ _____    ______ ____
ROOT
ATOM      1  C   UNL     1      -4.481   2.834   4.079  0.00  0.00    -0.030 A 
ATOM      2  C   UNL     1      -5.783   2.433   4.316  0.00  0.00    +0.005 A 
ATOM      3  C   UNL     1      -6.323   2.554   5.583  0.00  0.00    +0.002 A 
ATOM      4  C   UNL     1      -5.561   3.075   6.613  0.00  0.00    -0.064 A 
ATOM      5  C   UNL     1      -4.259   3.475   6.375  0.00  0.00    +0.002 A 
ATOM      6  C   UNL     1      -3.718   3.351   5.109  0.00  0.00    +0.005 A 
ENDROOT
BRANCH   1   7
ATOM      7  C   UNL     1      -3.893   2.703   2.698  0.00  0.00    +0.141 C 
BRANCH   7  11
ATOM      8  N   UNL     1      -2.082  -0.162   1.273  0.00  0.00    -0.294 N 
ATOM      9  C   UNL     1      -2.664   1.047   1.400  0.00  0.00    +0.300 C 
ATOM     10  O   UNL     1      -2.651   1.829   0.469  0.00  0.00    -0.253 OA
ATOM     11  N   UNL     1      -3.260   1.389   2.559  0.00  0.00    -0.295 N 
ATOM     12  H   UNL     1      -2.092  -0.785   2.016  0.00  0.00    +0.151 HD
ATOM     13  H   UNL     1      -3.270   0.765   3.302  0.00  0.00    +0.151 HD
BRANCH   8  14
ATOM     14  CA  UNL     1      -1.433  -0.534   0.013  0.00  0.00    +0.099 C 
BRANCH  14  16
ATOM     15  C   UNL     1      -0.019   1.526   0.010  0.00  0.00    +0.006 C 
ATOM     16  C   UNL     1       0.002  -0.004   0.002  0.00  0.00    +0.021 C 
ENDBRANCH  14  16
BRANCH  14  17
ATOM     17  C   UNL     1      -1.416  -2.058  -0.121  0.00  0.00    +0.178 C 
BRANCH  17  18
ATOM     18  O   UNL     1      -0.594  -2.617   0.906  0.00  0.00    -0.393 OA
ATOM     19  H   UNL     1      -0.537  -3.582   0.882  0.00  0.00    +0.209 HD
ENDBRANCH  17  18
ENDBRANCH  14  17
ENDBRANCH   8  14
ENDBRANCH   7  11
ENDBRANCH   1   7
BRANCH   4  20
ATOM     20  C   UNL     1      -6.150   3.207   7.994  0.00  0.00    -0.043 C 
BRANCH  20  21
ATOM     21  N   UNL     1      -5.893   1.977   8.755  0.00  0.00    +0.384 N 
ATOM     22  C   UNL     1      -6.604   0.857   8.126  0.00  0.00    -0.078 C 
ATOM     23  C   UNL     1      -6.275  -0.441   8.868  0.00  0.00    -0.019 C 
ATOM     24  C   UNL     1      -6.714  -0.312  10.329  0.00  0.00    -0.003 C 
ATOM     25  C   UNL     1      -6.023   0.904  10.954  0.00  0.00    -0.016 C 
ATOM     26  C   UNL     1      -6.361   2.152  10.135  0.00  0.00    -0.071 C 
ATOM     27  C   UNL     1      -5.673   3.370  10.756  0.00  0.00    -0.013 C 
ATOM     28  H   UNL     1      -4.903   1.785   8.758  0.00  0.00    -0.081 HD
ENDBRANCH  20  21
ENDBRANCH   4  20
TORSDOF 8
