REMARK  Name = ZINC12564646
REMARK  4 active torsions:
REMARK  status: ('A' for Active; 'I' for Inactive)
REMARK    1  A    between atoms: C_5  and  N_7
REMARK    2  A    between atoms: C_8  and  C_10
REMARK    3  A    between atoms: C_10  and  N_11
REMARK    4  A    between atoms: C_13  and  C_22
REMARK                            x       y       z     vdW  Elec       q    Type
REMARK                         _______ _______ _______ _____ _____    ______ ____
ROOT
ATOM      1  N   UNL     1       1.126   3.637   0.441  0.00  0.00    -0.314 N 
ATOM      2  C   UNL     1       2.411   4.267   0.766  0.00  0.00    +0.160 C 
ATOM      3  C   UNL     1       2.216   5.789   0.800  0.00  0.00    +0.275 C 
ATOM      4  O   UNL     1       1.838   6.213  -0.514  0.00  0.00    -0.476 OA
ATOM      5  C   UNL     1       0.884   5.473  -1.144  0.00  0.00    +0.143 A 
ATOM      6  C   UNL     1       0.530   4.209  -0.688  0.00  0.00    +0.073 A 
ATOM      7  C   UNL     1      -0.445   3.484  -1.365  0.00  0.00    +0.027 A 
ATOM      8  C   UNL     1      -1.059   4.017  -2.481  0.00  0.00    +0.002 A 
ATOM      9  C   UNL     1      -0.708   5.276  -2.931  0.00  0.00    +0.004 A 
ATOM     10  C   UNL     1       0.261   6.003  -2.265  0.00  0.00    +0.047 A 
ENDROOT
BRANCH   3  11
ATOM     11  C   UNL     1       3.504   6.460   1.202  0.00  0.00    +0.253 C 
ATOM     12  O   UNL     1       4.083   7.180   0.417  0.00  0.00    -0.272 OA
ATOM     13  N   UNL     1       4.012   6.260   2.434  0.00  0.00    -0.326 N 
ATOM     14  H   UNL     1       3.548   5.684   3.062  0.00  0.00    +0.145 HD
ATOM     15  H   UNL     1       4.841   6.691   2.693  0.00  0.00    +0.145 HD
ENDBRANCH   3  11
BRANCH   1  16
ATOM     16  C   UNL     1       1.279   2.185   0.278  0.00  0.00    +0.201 C 
BRANCH  16  18
ATOM     17  N   UNL     1       1.970   0.258   1.665  0.00  0.00    -0.283 N 
ATOM     18  C   UNL     1       1.667   1.569   1.597  0.00  0.00    +0.235 C 
ATOM     19  O   UNL     1       1.702   2.253   2.598  0.00  0.00    -0.274 OA
ATOM     20  H   UNL     1       1.879  -0.303   0.879  0.00  0.00    +0.155 HD
BRANCH  17  25
ATOM     21  C   UNL     1       2.357  -0.377   5.267  0.00  0.00    +0.002 A 
ATOM     22  C   UNL     1       3.300  -1.388   5.255  0.00  0.00    +0.001 A 
ATOM     23  C   UNL     1       3.802  -1.855   4.054  0.00  0.00    +0.017 A 
ATOM     24  C   UNL     1       3.364  -1.312   2.862  0.00  0.00    +0.039 A 
ATOM     25  C   UNL     1       2.417  -0.295   2.871  0.00  0.00    +0.047 A 
ATOM     26  C   UNL     1       1.918   0.174   4.079  0.00  0.00    +0.024 A 
ATOM     27 BR   UNL     1       4.052  -1.950   1.220  0.00  0.00    -0.048 Br
ENDBRANCH  17  25
ENDBRANCH  16  18
ENDBRANCH   1  16
TORSDOF 4
