REMARK  Name = ZINC57219046
REMARK  3 active torsions:
REMARK  status: ('A' for Active; 'I' for Inactive)
REMARK    1  A    between atoms: C_3  and  C_12
REMARK    2  A    between atoms: C_6  and  C_8
REMARK    3  A    between atoms: C_8  and  C_9
REMARK                            x       y       z     vdW  Elec       q    Type
REMARK                         _______ _______ _______ _____ _____    ______ ____
ROOT
ATOM      1  C   UNL     1      -0.019   1.536   0.011  0.00  0.00    -0.017 C 
ATOM      2  C   UNL     1       1.468   1.960  -0.001  0.00  0.00    -0.009 C 
ATOM      3  C   UNL     1       2.191   0.705   0.550  0.00  0.00    +0.034 C 
ATOM      4  N   UNL     1       1.421  -0.418  -0.044  0.00  0.00    +0.389 N 
ATOM      5  C   UNL     1       0.002  -0.004   0.002  0.00  0.00    -0.060 C 
ATOM      6  H   UNL     1       1.708  -0.571  -0.999  0.00  0.00    -0.085 HD
ATOM      7  H   UNL     1       1.556  -1.258   0.499  0.00  0.00    -0.085 HD
ENDROOT
BRANCH   3   8
ATOM      8  C   UNL     1       3.647   0.672   0.083  0.00  0.00    +0.379 C 
ATOM      9  F   UNL     1       4.319   1.798   0.572  0.00  0.00    -0.173 F 
ATOM     10  F   UNL     1       4.266  -0.486   0.567  0.00  0.00    -0.173 F 
ATOM     11  F   UNL     1       3.689   0.674  -1.315  0.00  0.00    -0.173 F 
ENDBRANCH   3   8
BRANCH   5  12
ATOM     12  C   UNL     1      -0.657  -0.541   1.274  0.00  0.00    +0.109 C 
BRANCH  12  13
ATOM     13  C   UNL     1      -0.709  -2.046   1.216  0.00  0.00    +0.354 C 
ATOM     14  O   UNL     1      -0.261  -2.635   0.246  0.00  0.00    -0.246 OA
ATOM     15  O   UNL     1      -1.200  -2.675   2.138  0.00  0.00    -0.246 OA
ENDBRANCH  12  13
ENDBRANCH   5  12
TORSDOF 3
