REMARK  Name = ZINC40701036
REMARK  5 active torsions:
REMARK  status: ('A' for Active; 'I' for Inactive)
REMARK    1  A    between atoms: C_1  and  C_2
REMARK    2  A    between atoms: C_3  and  C_24
REMARK    3  A    between atoms: C_9  and  N_23
REMARK    4  A    between atoms: C_10  and  N_14
REMARK    5  A    between atoms: N_14  and  C_15
REMARK                            x       y       z     vdW  Elec       q    Type
REMARK                         _______ _______ _______ _____ _____    ______ ____
ROOT
ATOM      1  C   UNL     1      -0.062   1.502   0.011  0.00  0.00    +0.066 C 
ATOM      2  C   UNL     1      -0.264   0.009   0.017  0.00  0.00    +0.050 A 
ATOM      3  C   UNL     1      -0.493  -0.679  -1.128  0.00  0.00    +0.011 A 
ATOM      4  S   UNL     1      -0.643  -2.341  -0.493  0.00  0.00    -0.057 S 
ATOM      5  C   UNL     1      -0.402  -1.992   1.135  0.00  0.00    +0.164 A 
ATOM      6  N   UNL     1      -0.219  -0.689   1.138  0.00  0.00    -0.230 NA
ATOM      7  N   UNL     1      -0.392  -2.866   2.213  0.00  0.00    -0.277 N 
ATOM      8  C   UNL     1      -0.173  -2.383   3.498  0.00  0.00    +0.150 A 
ATOM      9  C   UNL     1      -0.156  -3.254   4.590  0.00  0.00    +0.106 A 
ATOM     10  C   UNL     1       0.068  -2.716   5.859  0.00  0.00    +0.149 A 
ATOM     11  N   UNL     1       0.255  -1.404   5.979  0.00  0.00    -0.219 NA
ATOM     12  C   UNL     1       0.230  -0.617   4.922  0.00  0.00    +0.225 A 
ATOM     13  N   UNL     1       0.028  -1.084   3.707  0.00  0.00    -0.219 NA
ATOM     14  C   UNL     1      -0.595  -0.179  -2.546  0.00  0.00    +0.053 C 
ATOM     15  H   UNL     1      -0.538  -3.814   2.069  0.00  0.00    +0.156 HD
ENDROOT
BRANCH   9  16
ATOM     16  N   UNL     1      -0.358  -4.632   4.416  0.00  0.00    -0.353 N 
ATOM     17  H   UNL     1      -0.512  -4.991   3.528  0.00  0.00    +0.143 HD
ATOM     18  H   UNL     1      -0.343  -5.225   5.183  0.00  0.00    +0.143 HD
ENDBRANCH   9  16
BRANCH  10  19
ATOM     19  N   UNL     1       0.095  -3.539   6.979  0.00  0.00    -0.298 N 
ATOM     20  H   UNL     1       0.042  -4.502   6.875  0.00  0.00    +0.154 HD
BRANCH  19  21
ATOM     21  C   UNL     1       0.199  -2.978   8.255  0.00  0.00    +0.035 A 
ATOM     22  C   UNL     1      -0.417  -1.765   8.534  0.00  0.00    +0.043 A 
ATOM     23  C   UNL     1      -0.312  -1.213   9.797  0.00  0.00    +0.044 A 
ATOM     24  C   UNL     1       0.405  -1.867  10.783  0.00  0.00    +0.040 A 
ATOM     25  C   UNL     1       1.021  -3.076  10.507  0.00  0.00    +0.044 A 
ATOM     26  C   UNL     1       0.914  -3.636   9.248  0.00  0.00    +0.043 A 
ATOM     27 CL   UNL     1       1.921  -3.893  11.746  0.00  0.00    -0.083 Cl
ATOM     28 CL   UNL     1      -1.082   0.303  10.147  0.00  0.00    -0.083 Cl
ENDBRANCH  19  21
ENDBRANCH  10  19
TORSDOF 3
