REMARK  Name = ZINC42527666
REMARK  11 active torsions:
REMARK  status: ('A' for Active; 'I' for Inactive)
REMARK    1  A    between atoms: C_1  and  N_2
REMARK    2  A    between atoms: N_2  and  C_3
REMARK    3  A    between atoms: C_3  and  C_4
REMARK    4  A    between atoms: C_4  and  C_6
REMARK    5  A    between atoms: C_4  and  O_9
REMARK    6  A    between atoms: C_6  and  O_7
REMARK    7  A    between atoms: O_7  and  C_8
REMARK    8  A    between atoms: C_10  and  C_12
REMARK    9  A    between atoms: C_17  and  C_18
REMARK   10  A    between atoms: C_19  and  C_20
REMARK   11  A    between atoms: C_20  and  N_21
REMARK                            x       y       z     vdW  Elec       q    Type
REMARK                         _______ _______ _______ _____ _____    ______ ____
ROOT
ATOM      1  C   UNL     1      -0.124   0.068  -2.440  0.00  0.00    +0.055 A 
ATOM      2  C   UNL     1       0.995   0.792  -2.851  0.00  0.00    +0.052 A 
ATOM      3  C   UNL     1       0.968   1.483  -4.047  0.00  0.00    +0.124 A 
ATOM      4  C   UNL     1      -0.167   1.463  -4.845  0.00  0.00    +0.039 A 
ATOM      5  C   UNL     1      -1.283   0.752  -4.454  0.00  0.00    +0.020 A 
ATOM      6  C   UNL     1      -1.273   0.043  -3.253  0.00  0.00    +0.037 A 
ATOM      7  F   UNL     1       2.054   2.184  -4.442  0.00  0.00    -0.205 F 
ENDROOT
BRANCH   1  10
ATOM      8  C   UNL     1       0.851   1.300  -0.098  0.00  0.00    +0.132 C 
ATOM      9  N   UNL     1       0.417  -0.098  -0.060  0.00  0.00    -0.298 N 
ATOM     10  C   UNL     1      -0.102  -0.673  -1.163  0.00  0.00    +0.248 C 
ATOM     11  O   UNL     1      -0.551  -1.802  -1.107  0.00  0.00    -0.270 OA
BRANCH   9  12
ATOM     12  C   UNL     1       0.546  -0.872   1.177  0.00  0.00    +0.141 C 
BRANCH  12  13
ATOM     13  C   UNL     1      -0.729  -0.722   2.009  0.00  0.00    +0.157 C 
BRANCH  13  14
ATOM     14  O   UNL     1      -1.827  -1.309   1.308  0.00  0.00    -0.388 OA
ATOM     15  H   UNL     1      -1.717  -2.252   1.124  0.00  0.00    +0.210 HD
ENDBRANCH  13  14
BRANCH  13  16
ATOM     16  C   UNL     1      -0.547  -1.427   3.354  0.00  0.00    +0.192 C 
BRANCH  16  17
ATOM     17  O   UNL     1      -1.691  -1.188   4.176  0.00  0.00    -0.380 OA
ATOM     18  C   UNL     1      -1.622  -1.806   5.463  0.00  0.00    +0.194 C 
ENDBRANCH  16  17
ENDBRANCH  13  16
ENDBRANCH  12  13
ENDBRANCH   9  12
ENDBRANCH   1  10
BRANCH   6  19
ATOM     19  C   UNL     1      -2.427  -0.701  -2.847  0.00  0.00    -0.067 C 
ATOM     20  C   UNL     1      -3.373  -1.312  -2.514  0.00  0.00    -0.117 C 
BRANCH  20  21
ATOM     21  C   UNL     1      -4.560  -2.076  -2.097  0.00  0.00    +0.005 C 
BRANCH  21  22
ATOM     22  N   UNL     1      -5.612  -1.940  -3.112  0.00  0.00    +0.385 N 
ATOM     23  H   UNL     1      -5.858  -0.967  -3.213  0.00  0.00    -0.089 HD
ATOM     24  H   UNL     1      -5.276  -2.296  -3.995  0.00  0.00    -0.089 HD
ATOM     25  H   UNL     1      -6.426  -2.465  -2.826  0.00  0.00    -0.089 HD
ENDBRANCH  21  22
ENDBRANCH  20  21
ENDBRANCH   6  19
TORSDOF 9
