REMARK  Name = ZINC59186054
REMARK  6 active torsions:
REMARK  status: ('A' for Active; 'I' for Inactive)
REMARK    1  A    between atoms: C_2  and  C_10
REMARK    2  A    between atoms: C_5  and  O_8
REMARK    3  A    between atoms: C_11  and  C_12
REMARK    4  A    between atoms: C_11  and  C_14
REMARK    5  A    between atoms: C_15  and  C_21
REMARK    6  A    between atoms: C_16  and  N_20
REMARK                            x       y       z     vdW  Elec       q    Type
REMARK                         _______ _______ _______ _____ _____    ______ ____
ROOT
ATOM      1  C   UNL     1       1.198   3.601  -0.248  0.00  0.00    +0.029 C 
ATOM      2  C   UNL     1       2.344   4.246   0.105  0.00  0.00    +0.081 C 
ENDROOT
BRANCH   1   4
ATOM      3  C   UNL     1       2.194   2.069  -1.931  0.00  0.00    +0.027 A 
ATOM      4  C   UNL     1       1.265   2.292  -0.908  0.00  0.00    -0.021 A 
ATOM      5  C   UNL     1       0.401   1.262  -0.515  0.00  0.00    +0.027 A 
ATOM      6  C   UNL     1       0.469   0.035  -1.138  0.00  0.00    +0.061 A 
ATOM      7  C   UNL     1       1.394  -0.182  -2.154  0.00  0.00    +0.145 A 
ATOM      8  C   UNL     1       2.254   0.838  -2.547  0.00  0.00    +0.061 A 
ATOM      9 BR   UNL     1       3.508   0.534  -3.930  0.00  0.00    -0.046 Br
ATOM     10 BR   UNL     1      -0.696  -1.357  -0.610  0.00  0.00    -0.046 Br
BRANCH   7  11
ATOM     11  O   UNL     1       1.458  -1.393  -2.764  0.00  0.00    -0.505 OA
ATOM     12  H   UNL     1       0.883  -1.475  -3.537  0.00  0.00    +0.292 HD
ENDBRANCH   7  11
ENDBRANCH   1   4
BRANCH   2  13
ATOM     13  C   UNL     1       3.635   3.523   0.089  0.00  0.00    +0.122 A 
ATOM     14  C   UNL     1       4.965   4.109   0.291  0.00  0.00    +0.119 A 
ATOM     15  C   UNL     1       5.872   3.058   0.192  0.00  0.00    +0.130 A 
ATOM     16  N   UNL     1       5.168   1.933  -0.047  0.00  0.00    -0.263 N 
ATOM     17  H   UNL     1       5.550   1.049  -0.160  0.00  0.00    +0.190 HD
ATOM     18  N   UNL     1       3.805   2.234  -0.102  0.00  0.00    -0.170 NA
BRANCH  15  19
ATOM     19  N   UNL     1       7.245   3.151   0.316  0.00  0.00    -0.342 N 
ATOM     20  H   UNL     1       7.660   4.010   0.489  0.00  0.00    +0.144 HD
ATOM     21  H   UNL     1       7.795   2.356   0.231  0.00  0.00    +0.144 HD
ENDBRANCH  15  19
BRANCH  14  22
ATOM     22  C   UNL     1       5.270   5.486   0.538  0.00  0.00    +0.105 C 
ATOM     23  N   UNL     1       5.511   6.579   0.735  0.00  0.00    -0.191 NA
ENDBRANCH  14  22
ENDBRANCH   2  13
BRANCH   2  24
ATOM     24  C   UNL     1       2.301   5.625   0.490  0.00  0.00    +0.101 C 
ATOM     25  N   UNL     1       2.266   6.718   0.796  0.00  0.00    -0.191 NA
ENDBRANCH   2  24
TORSDOF 6
