REMARK  Name = ZINC28198854
REMARK  5 active torsions:
REMARK  status: ('A' for Active; 'I' for Inactive)
REMARK    1  A    between atoms: C_1  and  C_2
REMARK    2  A    between atoms: C_4  and  C_8
REMARK    3  A    between atoms: C_6  and  C_7
REMARK    4  A    between atoms: N_10  and  N_11
REMARK    5  A    between atoms: C_12  and  C_14
REMARK                            x       y       z     vdW  Elec       q    Type
REMARK                         _______ _______ _______ _____ _____    ______ ____
ROOT
ATOM      1  N   UNL     1      -4.931   1.652   0.034  0.00  0.00    -0.234 N 
ATOM      2  C   UNL     1      -5.967   2.514   0.043  0.00  0.00    +0.235 C 
ATOM      3  O   UNL     1      -5.761   3.709   0.049  0.00  0.00    -0.274 OA
ATOM      4  H   UNL     1      -5.117   0.568   0.029  0.00  0.00    +0.173 HD
ENDROOT
BRANCH   2   5
ATOM      5  C   UNL     1      -7.380   1.993   0.047  0.00  0.00    +0.049 C 
ATOM      6  C   UNL     1      -7.615   1.146  -1.206  0.00  0.00    +0.019 C 
ATOM      7  C   UNL     1      -9.050   0.617  -1.202  0.00  0.00    -0.009 C 
ATOM      8  C   UNL     1     -10.028   1.793  -1.191  0.00  0.00    +0.007 C 
ATOM      9  C   UNL     1      -9.794   2.640   0.061  0.00  0.00    -0.009 C 
ATOM     10  C   UNL     1      -8.358   3.169   0.058  0.00  0.00    +0.019 C 
ATOM     11  C   UNL     1     -10.017   1.780   1.307  0.00  0.00    +0.007 C 
ATOM     12  C   UNL     1      -9.039   0.603   1.296  0.00  0.00    -0.009 C 
ATOM     13  C   UNL     1      -9.274  -0.243   0.043  0.00  0.00    +0.007 C 
ATOM     14  C   UNL     1      -7.604   1.133   1.292  0.00  0.00    +0.019 C 
ENDBRANCH   2   5
BRANCH   1  17
ATOM     15  C   UNL     1      -2.580   1.276   0.021  0.00  0.00    +0.267 C 
ATOM     16  O   UNL     1      -2.786   0.076   0.015  0.00  0.00    -0.268 OA
ATOM     17  N   UNL     1      -3.616   2.137   0.030  0.00  0.00    -0.230 N 
ATOM     18  H   UNL     1      -3.430   3.221   0.035  0.00  0.00    +0.173 HD
BRANCH  15  22
ATOM     19  C   UNL     1       2.487   1.115  -0.015  0.00  0.00    +0.044 C 
ATOM     20  C   UNL     1       1.149   1.808   0.001  0.00  0.00    -0.040 A 
ATOM     21  C   UNL     1      -0.013   1.076   0.008  0.00  0.00    +0.024 A 
ATOM     22  C   UNL     1      -1.205   1.783   0.017  0.00  0.00    +0.076 A 
ATOM     23  S   UNL     1      -0.629   3.471   0.027  0.00  0.00    -0.089 S 
ATOM     24  C   UNL     1       1.077   3.165   0.009  0.00  0.00    -0.010 A 
ATOM     25  C   UNL     1       2.207   4.162   0.003  0.00  0.00    +0.052 C 
ENDBRANCH  15  22
ENDBRANCH   1  17
TORSDOF 3
