REMARK  Name = ZINC40647344
REMARK  4 active torsions:
REMARK  status: ('A' for Active; 'I' for Inactive)
REMARK    1  A    between atoms: C_3  and  C_6
REMARK    2  A    between atoms: N_8  and  N_9
REMARK    3  A    between atoms: C_11  and  N_24
REMARK    4  A    between atoms: C_12  and  N_16
REMARK                            x       y       z     vdW  Elec       q    Type
REMARK                         _______ _______ _______ _____ _____    ______ ____
ROOT
ATOM      1  N   UNL     1       5.608  -0.597  -0.038  0.00  0.00    -0.246 N 
ATOM      2  C   UNL     1       6.271  -1.814  -0.055  0.00  0.00    +0.171 A 
ATOM      3  C   UNL     1       7.662  -1.860  -0.067  0.00  0.00    +0.207 A 
ATOM      4  C   UNL     1       8.280  -3.106  -0.085  0.00  0.00    +0.160 A 
ATOM      5  N   UNL     1       7.524  -4.202  -0.089  0.00  0.00    -0.218 NA
ATOM      6  C   UNL     1       6.210  -4.117  -0.077  0.00  0.00    +0.225 A 
ATOM      7  N   UNL     1       5.587  -2.956  -0.056  0.00  0.00    -0.217 NA
ATOM      8  H   UNL     1       6.113   0.231  -0.038  0.00  0.00    +0.172 HD
ENDROOT
BRANCH   4   9
ATOM      9  N   UNL     1       9.665  -3.205  -0.098  0.00  0.00    -0.282 N 
ATOM     10  C   UNL     1      10.274  -4.454  -0.005  0.00  0.00    +0.124 A 
ATOM     11  C   UNL     1      11.659  -4.539   0.091  0.00  0.00    +0.045 A 
ATOM     12  C   UNL     1      12.252  -5.785   0.183  0.00  0.00    +0.020 A 
ATOM     13  C   UNL     1      11.435  -6.910   0.176  0.00  0.00    +0.036 A 
ATOM     14  C   UNL     1      10.067  -6.751   0.079  0.00  0.00    +0.128 A 
ATOM     15  N   UNL     1       9.529  -5.548  -0.003  0.00  0.00    -0.239 NA
ATOM     16 BR   UNL     1      12.190  -8.639   0.299  0.00  0.00    -0.049 Br
ATOM     17  H   UNL     1      10.208  -2.405  -0.171  0.00  0.00    +0.155 HD
ENDBRANCH   4   9
BRANCH   1  20
ATOM     18  C   UNL     1       3.562   0.620  -0.002  0.00  0.00    +0.295 C 
ATOM     19  O   UNL     1       4.196   1.659  -0.003  0.00  0.00    -0.265 OA
ATOM     20  N   UNL     1       4.207  -0.563  -0.020  0.00  0.00    -0.229 N 
ATOM     21  H   UNL     1       3.702  -1.391  -0.020  0.00  0.00    +0.173 HD
BRANCH  18  24
ATOM     22  C   UNL     1      -0.015   1.349   0.048  0.00  0.00    +0.042 A 
ATOM     23  C   UNL     1       1.321   1.780   0.035  0.00  0.00    +0.054 A 
ATOM     24  C   UNL     1       2.096   0.656   0.016  0.00  0.00    +0.190 A 
ATOM     25  O   UNL     1       1.277  -0.416   0.018  0.00  0.00    -0.458 OA
ATOM     26  C   UNL     1       0.003  -0.002   0.037  0.00  0.00    +0.196 A 
ENDBRANCH  18  24
ENDBRANCH   1  20
BRANCH   3  27
ATOM     27  N   UNL     1       8.463  -0.615  -0.063  0.00  0.00    +0.063 N 
ATOM     28  O   UNL     1       8.799  -0.116   0.986  0.00  0.00    -0.126 OA
ATOM     29  O   UNL     1       8.781  -0.097  -1.108  0.00  0.00    -0.126 OA
ENDBRANCH   3  27
TORSDOF 4
