REMARK  Name = ZINC65415221
REMARK  7 active torsions:
REMARK  status: ('A' for Active; 'I' for Inactive)
REMARK    1  A    between atoms: C_1  and  C_2
REMARK    2  A    between atoms: C_4  and  C_8
REMARK    3  A    between atoms: C_5  and  C_7
REMARK    4  A    between atoms: C_8  and  C_9
REMARK    5  A    between atoms: C_8  and  N_10
REMARK    6  A    between atoms: N_13  and  C_14
REMARK    7  A    between atoms: C_16  and  N_21
REMARK                            x       y       z     vdW  Elec       q    Type
REMARK                         _______ _______ _______ _____ _____    ______ ____
ROOT
ATOM      1  N   UNL     1      -2.745  -3.095  -0.601  0.00  0.00    -0.292 N 
ATOM      2  C   UNL     1      -3.471  -4.085  -1.157  0.00  0.00    +0.304 C 
ATOM      3  O   UNL     1      -3.032  -5.219  -1.185  0.00  0.00    -0.252 OA
ATOM      4  N   UNL     1      -4.682  -3.818  -1.684  0.00  0.00    -0.267 N 
ATOM      5  H   UNL     1      -3.095  -2.191  -0.579  0.00  0.00    +0.151 HD
ATOM      6  H   UNL     1      -5.068  -2.933  -1.590  0.00  0.00    +0.156 HD
ENDROOT
BRANCH   4   7
ATOM      7  C   UNL     1      -5.385  -4.820  -2.366  0.00  0.00    +0.072 A 
ATOM      8  C   UNL     1      -4.699  -5.874  -2.951  0.00  0.00    +0.051 A 
ATOM      9  C   UNL     1      -5.399  -6.864  -3.626  0.00  0.00    +0.053 A 
ATOM     10  C   UNL     1      -6.783  -6.798  -3.715  0.00  0.00    +0.027 A 
ATOM     11  C   UNL     1      -7.465  -5.747  -3.132  0.00  0.00    +0.042 A 
ATOM     12  C   UNL     1      -6.772  -4.761  -2.454  0.00  0.00    +0.145 A 
ATOM     13  F   UNL     1      -7.441  -3.737  -1.880  0.00  0.00    -0.204 F 
BRANCH   9  14
ATOM     14  N   UNL     1      -4.710  -7.928  -4.217  0.00  0.00    -0.207 N 
ATOM     15  C   UNL     1      -3.307  -7.936  -4.670  0.00  0.00    +0.133 C 
ATOM     16  C   UNL     1      -2.709  -9.352  -4.577  0.00  0.00    +0.045 C 
ATOM     17  C   UNL     1      -3.796 -10.290  -5.185  0.00  0.00    +0.190 C 
ATOM     18  S   UNL     1      -5.308  -9.458  -4.549  0.00  0.00    +0.046 S 
ATOM     19  O   UNL     1      -5.690  -9.998  -3.291  0.00  0.00    -0.155 OA
ATOM     20  O   UNL     1      -6.256  -9.277  -5.592  0.00  0.00    -0.155 OA
ENDBRANCH   9  14
ENDBRANCH   4   7
BRANCH   1  21
ATOM     21  C   UNL     1      -1.428  -3.385  -0.029  0.00  0.00    +0.105 C 
ATOM     22  C   UNL     1      -1.594  -3.874   1.411  0.00  0.00    +0.033 C 
BRANCH  21  26
ATOM     23  C   UNL     1       0.003   1.504  -0.056  0.00  0.00    +0.086 C 
ATOM     24  C   UNL     1       0.020  -0.003  -0.052  0.00  0.00    +0.103 A 
ATOM     25  C   UNL     1      -1.063  -0.801  -0.039  0.00  0.00    +0.050 A 
ATOM     26  C   UNL     1      -0.589  -2.133  -0.040  0.00  0.00    +0.013 A 
ATOM     27  C   UNL     1       0.755  -2.069  -0.053  0.00  0.00    +0.107 A 
ATOM     28  O   UNL     1       1.118  -0.776  -0.066  0.00  0.00    -0.465 OA
ATOM     29  C   UNL     1       1.694  -3.248  -0.058  0.00  0.00    +0.086 C 
ENDBRANCH  21  26
ENDBRANCH   1  21
TORSDOF 4
