REMARK  Name = ZINC48889882
REMARK  7 active torsions:
REMARK  status: ('A' for Active; 'I' for Inactive)
REMARK    1  A    between atoms: C_1  and  C_2
REMARK    2  A    between atoms: C_4  and  C_8
REMARK    3  A    between atoms: N_10  and  N_11
REMARK    4  A    between atoms: C_12  and  C_14
REMARK    5  A    between atoms: N_16  and  C_17
REMARK    6  A    between atoms: C_17  and  C_18
REMARK    7  A    between atoms: C_17  and  C_19
REMARK                            x       y       z     vdW  Elec       q    Type
REMARK                         _______ _______ _______ _____ _____    ______ ____
ROOT
ATOM      1  C   UNL     1       0.042  -3.356  -1.443  0.00  0.00    +0.279 C 
ATOM      2  O   UNL     1       0.035  -3.300  -2.658  0.00  0.00    -0.267 OA
ATOM      3  N   UNL     1       0.062  -4.554  -0.825  0.00  0.00    -0.229 N 
ATOM      4  H   UNL     1       0.068  -4.599   0.144  0.00  0.00    +0.173 HD
ENDROOT
BRANCH   1   8
ATOM      5  C   UNL     1      -0.018   1.503   0.010  0.00  0.00    +0.068 C 
ATOM      6  C   UNL     1       0.002  -0.004   0.002  0.00  0.00    +0.074 A 
ATOM      7  C   UNL     1       0.008  -0.821  -1.132  0.00  0.00    +0.070 A 
ATOM      8  C   UNL     1       0.029  -2.119  -0.649  0.00  0.00    +0.136 A 
ATOM      9  N   UNL     1       0.034  -2.018   0.714  0.00  0.00    -0.271 N 
ATOM     10  H   UNL     1       0.048  -2.768   1.330  0.00  0.00    +0.189 HD
ATOM     11  N   UNL     1       0.023  -0.780   1.055  0.00  0.00    -0.177 NA
ATOM     12 BR   UNL     1      -0.009  -0.271  -2.942  0.00  0.00    -0.046 Br
ENDBRANCH   1   8
BRANCH   3  13
ATOM     13  N   UNL     1       0.074  -5.733  -1.581  0.00  0.00    -0.226 N 
ATOM     14  C   UNL     1       0.094  -6.930  -0.963  0.00  0.00    +0.315 C 
ATOM     15  O   UNL     1       0.102  -6.987   0.249  0.00  0.00    -0.264 OA
ATOM     16  H   UNL     1       0.069  -5.687  -2.550  0.00  0.00    +0.173 HD
BRANCH  14  17
ATOM     17  C   UNL     1       0.108  -8.188  -1.770  0.00  0.00    +0.301 C 
ATOM     18  O   UNL     1       0.101  -8.131  -2.982  0.00  0.00    -0.265 OA
ATOM     19  N   UNL     1       0.128  -9.385  -1.152  0.00  0.00    -0.305 N 
ATOM     20  H   UNL     1       0.133  -9.431  -0.183  0.00  0.00    +0.149 HD
BRANCH  19  21
ATOM     21  C   UNL     1       0.141 -10.618  -1.943  0.00  0.00    +0.067 C 
ATOM     22  C   UNL     1       1.581 -10.959  -2.331  0.00  0.00    +0.027 C 
ATOM     23  C   UNL     1      -0.449 -11.762  -1.115  0.00  0.00    +0.027 C 
ENDBRANCH  19  21
ENDBRANCH  14  17
ENDBRANCH   3  13
TORSDOF 4
