REMARK  Name = ZINC35234211
REMARK  5 active torsions:
REMARK  status: ('A' for Active; 'I' for Inactive)
REMARK    1  A    between atoms: C_1  and  C_2
REMARK    2  A    between atoms: C_2  and  C_4
REMARK    3  A    between atoms: C_2  and  O_18
REMARK    4  A    between atoms: C_4  and  N_5
REMARK    5  A    between atoms: C_6  and  C_8
REMARK                            x       y       z     vdW  Elec       q    Type
REMARK                         _______ _______ _______ _____ _____    ______ ____
ROOT
ATOM      1  C   UNL     1       1.617  -4.135   2.091  0.00  0.00    +0.092 C 
ATOM      2  C   UNL     1       2.354  -4.644   3.332  0.00  0.00    +0.016 C 
ATOM      3  C   UNL     1       2.451  -6.170   3.280  0.00  0.00    +0.020 C 
ATOM      4  C   UNL     1       3.249  -6.585   2.040  0.00  0.00    +0.109 C 
ATOM      5  N   UNL     1       2.629  -5.979   0.854  0.00  0.00    -0.285 N 
ATOM      6  C   UNL     1       2.405  -4.527   0.837  0.00  0.00    +0.122 C 
ATOM      7  C   UNL     1       2.272  -6.741  -0.199  0.00  0.00    +0.300 C 
ATOM      8  O   UNL     1       1.675  -6.244  -1.134  0.00  0.00    -0.253 OA
ATOM      9  N   UNL     1       2.578  -8.053  -0.216  0.00  0.00    -0.313 N 
ATOM     10  H   UNL     1       2.990  -8.465   0.560  0.00  0.00    +0.146 HD
ATOM     11  H   UNL     1       2.386  -8.586  -1.003  0.00  0.00    +0.146 HD
ENDROOT
BRANCH   1  13
ATOM     12  N   UNL     1       0.878  -1.963   1.165  0.00  0.00    -0.313 N 
ATOM     13  C   UNL     1       1.494  -2.635   2.159  0.00  0.00    +0.218 C 
ATOM     14  O   UNL     1       1.949  -2.031   3.107  0.00  0.00    -0.275 OA
ATOM     15  H   UNL     1       0.514  -2.446   0.407  0.00  0.00    +0.149 HD
BRANCH  12  16
ATOM     16  C   UNL     1       0.758  -0.505   1.232  0.00  0.00    +0.135 C 
BRANCH  16  18
ATOM     17  C   UNL     1       0.007   1.533  -0.004  0.00  0.00    +0.039 C 
ATOM     18  C   UNL     1       0.023   0.003  -0.011  0.00  0.00    +0.128 C 
BRANCH  18  19
ATOM     19  O   UNL     1      -1.319  -0.487  -0.004  0.00  0.00    -0.391 OA
ATOM     20  H   UNL     1      -1.846  -0.204  -0.764  0.00  0.00    +0.210 HD
ENDBRANCH  18  19
ENDBRANCH  16  18
ENDBRANCH  12  16
ENDBRANCH   1  13
TORSDOF 4
