REMARK  Name = ZINC46980049
REMARK  5 active torsions:
REMARK  status: ('A' for Active; 'I' for Inactive)
REMARK    1  A    between atoms: C_1  and  C_2
REMARK    2  A    between atoms: C_10  and  C_11
REMARK    3  A    between atoms: N_13  and  C_14
REMARK    4  A    between atoms: N_13  and  C_15
REMARK    5  A    between atoms: C_15  and  C_16
REMARK                            x       y       z     vdW  Elec       q    Type
REMARK                         _______ _______ _______ _____ _____    ______ ____
ROOT
ATOM      1  C   UNL     1       0.649   1.487   0.072  0.00  0.00    +0.048 C 
ATOM      2  C   UNL     1       0.700  -0.019   0.079  0.00  0.00    +0.008 A 
ATOM      3  C   UNL     1       0.951  -0.896  -1.064  0.00  0.00    +0.027 A 
ATOM      4  C   UNL     1       1.205  -0.679  -2.421  0.00  0.00    +0.012 A 
ATOM      5  C   UNL     1       1.402  -1.744  -3.253  0.00  0.00    +0.004 A 
ATOM      6  C   UNL     1       1.352  -3.041  -2.761  0.00  0.00    +0.042 A 
ATOM      7  C   UNL     1       1.103  -3.278  -1.425  0.00  0.00    +0.166 A 
ATOM      8  C   UNL     1       0.899  -2.208  -0.558  0.00  0.00    +0.171 A 
ATOM      9  O   UNL     1       0.642  -2.125   0.762  0.00  0.00    -0.447 OA
ATOM     10  C   UNL     1       0.527  -0.837   1.150  0.00  0.00    +0.194 A 
ATOM     11  F   UNL     1       1.057  -4.545  -0.958  0.00  0.00    -0.202 F 
ENDROOT
BRANCH  10  12
ATOM     12  C   UNL     1       0.253  -0.388   2.522  0.00  0.00    +0.282 C 
ATOM     13  O   UNL     1       0.299   0.797   2.795  0.00  0.00    -0.267 OA
ATOM     14  N   UNL     1      -0.048  -1.288   3.478  0.00  0.00    -0.289 N 
ATOM     15  C   UNL     1      -0.031  -2.720   3.168  0.00  0.00    +0.133 C 
BRANCH  14  16
ATOM     16  C   UNL     1      -0.394  -0.835   4.828  0.00  0.00    +0.203 C 
BRANCH  16  17
ATOM     17  C   UNL     1      -1.882  -0.615   4.919  0.00  0.00    +0.228 C 
ATOM     18  O   UNL     1      -2.585  -0.817   3.952  0.00  0.00    -0.274 OA
ATOM     19  N   UNL     1      -2.431  -0.194   6.076  0.00  0.00    -0.328 N 
ATOM     20  H   UNL     1      -1.869  -0.033   6.849  0.00  0.00    +0.145 HD
ATOM     21  H   UNL     1      -3.389  -0.053   6.134  0.00  0.00    +0.145 HD
ENDBRANCH  16  17
ENDBRANCH  14  16
ENDBRANCH  10  12
TORSDOF 3
