REMARK  Name = ZINC35455897
REMARK  10 active torsions:
REMARK  status: ('A' for Active; 'I' for Inactive)
REMARK    1  A    between atoms: C_1  and  C_2
REMARK    2  A    between atoms: C_3  and  C_4
REMARK    3  A    between atoms: C_3  and  C_5
REMARK    4  A    between atoms: C_7  and  C_28
REMARK    5  A    between atoms: C_11  and  C_27
REMARK    6  A    between atoms: C_13  and  O_22
REMARK    7  A    between atoms: C_20  and  C_21
REMARK    8  A    between atoms: O_22  and  S_23
REMARK    9  A    between atoms: C_29  and  C_30
REMARK   10  A    between atoms: C_31  and  C_32
REMARK                            x       y       z     vdW  Elec       q    Type
REMARK                         _______ _______ _______ _____ _____    ______ ____
ROOT
ATOM      1  C   UNL     1      -1.103  -2.190   0.001  0.00  0.00    +0.047 C 
ATOM      2  C   UNL     1      -1.771  -2.693   1.270  0.00  0.00    +0.027 C 
ATOM      3  C   UNL     1      -2.454  -4.044   1.115  0.00  0.00    +0.009 C 
ATOM      4  C   UNL     1      -1.511  -5.227   1.073  0.00  0.00    +0.021 C 
ATOM      5  C   UNL     1      -2.298  -6.532   0.887  0.00  0.00    +0.155 C 
ATOM      6  C   UNL     1      -3.127  -6.461  -0.394  0.00  0.00    +0.035 C 
ATOM      7  C   UNL     1      -4.135  -5.320  -0.282  0.00  0.00    +0.010 C 
ATOM      8  C   UNL     1      -3.434  -3.993  -0.046  0.00  0.00    +0.016 C 
ATOM      9  C   UNL     1      -2.791  -3.461  -1.286  0.00  0.00    -0.024 C 
ATOM     10  C   UNL     1      -1.770  -2.663  -1.253  0.00  0.00    -0.069 C 
ATOM     11  C   UNL     1      -1.220  -2.177  -2.571  0.00  0.00    +0.039 C 
ATOM     12  C   UNL     1      -0.444  -5.142  -0.011  0.00  0.00    +0.010 C 
ENDROOT
BRANCH   1  15
ATOM     13  C   UNL     1      -0.018   1.503   0.010  0.00  0.00    +0.035 C 
ATOM     14  C   UNL     1       0.002  -0.004   0.002  0.00  0.00    -0.031 C 
ATOM     15  C   UNL     1      -1.123  -0.674   0.009  0.00  0.00    -0.069 C 
ATOM     16  C   UNL     1      -2.438   0.061   0.026  0.00  0.00    +0.039 C 
ENDBRANCH   1  15
BRANCH   2  17
ATOM     17  C   UNL     1      -0.779  -2.706   2.409  0.00  0.00    -0.022 C 
ATOM     18  C   UNL     1      -1.009  -1.976   3.502  0.00  0.00    -0.004 C 
BRANCH  18  19
ATOM     19  C   UNL     1      -0.049  -1.988   4.605  0.00  0.00    +0.007 C 
ATOM     20  C   UNL     1      -0.282  -1.247   5.715  0.00  0.00    +0.096 C 
BRANCH  20  21
ATOM     21  C   UNL     1       0.646  -1.259   6.781  0.00  0.00    +0.380 C 
ATOM     22  O   UNL     1       1.662  -1.940   6.701  0.00  0.00    -0.241 OA
ATOM     23  O   UNL     1       0.435  -0.589   7.785  0.00  0.00    -0.241 OA
ENDBRANCH  20  21
ENDBRANCH  18  19
ENDBRANCH   2  17
BRANCH   5  24
ATOM     24  O   UNL     1      -1.380  -7.625   0.806  0.00  0.00    -0.210 OA
BRANCH  24  25
ATOM     25  S   UNL     1      -1.891  -8.911   1.439  0.00  0.00    +0.239 S 
ATOM     26  O   UNL     1      -0.742  -9.789   1.598  0.00  0.00    -0.116 OA
ATOM     27  O   UNL     1      -2.478  -8.547   2.720  0.00  0.00    -0.116 OA
ATOM     28  O   UNL     1      -2.878  -9.467   0.527  0.00  0.00    -0.022 OA
ENDBRANCH  24  25
ENDBRANCH   5  24
TORSDOF 6
