REMARK  Name = ZINC44593320
REMARK  1 active torsions:
REMARK  status: ('A' for Active; 'I' for Inactive)
REMARK    1  A    between atoms: C_6  and  C_20
REMARK                            x       y       z     vdW  Elec       q    Type
REMARK                         _______ _______ _______ _____ _____    ______ ____
ROOT
ATOM      1  C   UNL     1      -0.050   0.990  -1.100  0.00  0.00    +0.014 A 
ATOM      2  C   UNL     1       1.016   1.387  -1.833  0.00  0.00    +0.046 A 
ATOM      3  S   UNL     1       2.002  -0.102  -1.883  0.00  0.00    -0.101 S 
ATOM      4  C   UNL     1       0.922  -1.137  -0.930  0.00  0.00    -0.003 A 
ATOM      5  C   UNL     1      -0.118  -0.317  -0.619  0.00  0.00    -0.006 A 
ATOM      6  C   UNL     1      -1.281  -0.839   0.222  0.00  0.00    +0.222 C 
ATOM      7  N   UNL     1      -1.171  -2.303   0.281  0.00  0.00    -0.268 N 
ATOM      8  C   UNL     1       0.134  -2.909   0.588  0.00  0.00    +0.115 C 
ATOM      9  C   UNL     1       1.103  -2.572  -0.556  0.00  0.00    +0.062 C 
ATOM     10  C   UNL     1      -2.250  -3.079   0.059  0.00  0.00    +0.306 C 
ATOM     11  O   UNL     1      -3.208  -2.631  -0.540  0.00  0.00    -0.252 OA
ATOM     12  N   UNL     1      -2.266  -4.353   0.500  0.00  0.00    -0.287 N 
ATOM     13  C   UNL     1      -1.240  -4.783   1.470  0.00  0.00    +0.107 C 
ATOM     14  C   UNL     1      -1.852  -5.676   2.565  0.00  0.00    -0.000 C 
ATOM     15  C   UNL     1      -3.206  -5.132   2.960  0.00  0.00    -0.081 C 
ATOM     16  N   UNL     1      -4.242  -5.798   2.173  0.00  0.00    +0.380 N 
ATOM     17  C   UNL     1      -4.530  -5.189   0.931  0.00  0.00    -0.063 C 
ATOM     18  C   UNL     1      -3.294  -5.248   0.011  0.00  0.00    +0.090 C 
ATOM     19  H   UNL     1      -3.950  -6.748   2.002  0.00  0.00    -0.086 HD
ATOM     20  H   UNL     1      -5.090  -5.822   2.720  0.00  0.00    -0.086 HD
ENDROOT
BRANCH   6  21
ATOM     21  C   UNL     1      -2.589  -0.450  -0.418  0.00  0.00    +0.381 C 
ATOM     22  O   UNL     1      -2.784  -0.687  -1.598  0.00  0.00    -0.244 OA
ATOM     23  O   UNL     1      -3.452   0.100   0.245  0.00  0.00    -0.244 OA
ENDBRANCH   6  21
TORSDOF 1
