REMARK  Name = ZINC37053915
REMARK  5 active torsions:
REMARK  status: ('A' for Active; 'I' for Inactive)
REMARK    1  A    between atoms: C_1  and  C_2
REMARK    2  A    between atoms: N_8  and  S_9
REMARK    3  A    between atoms: S_9  and  C_12
REMARK    4  A    between atoms: C_14  and  C_19
REMARK    5  A    between atoms: C_16  and  N_18
REMARK                            x       y       z     vdW  Elec       q    Type
REMARK                         _______ _______ _______ _____ _____    ______ ____
ROOT
ATOM      1  S   UNL     1       0.051  -0.934   3.791  0.00  0.00    +0.101 S 
ATOM      2  O   UNL     1      -1.185  -1.632   3.868  0.00  0.00    -0.146 OA
ATOM      3  O   UNL     1       1.306  -1.599   3.845  0.00  0.00    -0.146 OA
ENDROOT
BRANCH   1  11
ATOM      4  C   UNL     1      -0.018   1.503   0.010  0.00  0.00    +0.047 C 
ATOM      5  C   UNL     1       0.002  -0.004   0.002  0.00  0.00    -0.007 A 
ATOM      6  C   UNL     1       0.006  -0.684  -1.174  0.00  0.00    +0.008 A 
ATOM      7  C   UNL     1       0.025  -2.090  -1.165  0.00  0.00    +0.018 A 
ATOM      8  C   UNL     1       0.041  -2.765   0.004  0.00  0.00    +0.084 A 
ATOM      9  N   UNL     1       0.037  -2.099   1.193  0.00  0.00    -0.345 N 
ATOM     10  C   UNL     1       0.023  -0.726   1.219  0.00  0.00    +0.155 A 
ATOM     11  N   UNL     1       0.026  -0.085   2.369  0.00  0.00    -0.111 NA
ATOM     12  H   UNL     1       0.047  -2.598   2.025  0.00  0.00    +0.167 HD
ENDBRANCH   1  11
BRANCH   1  13
ATOM     13  C   UNL     1       0.047   0.243   5.101  0.00  0.00    +0.115 A 
ATOM     14  C   UNL     1       1.244   0.725   5.600  0.00  0.00    +0.032 A 
ATOM     15  C   UNL     1       1.245   1.649   6.629  0.00  0.00    -0.047 A 
ATOM     16  C   UNL     1       0.051   2.093   7.162  0.00  0.00    +0.026 A 
ATOM     17  C   UNL     1      -1.152   1.612   6.663  0.00  0.00    +0.027 A 
ATOM     18  C   UNL     1      -1.151   0.688   5.626  0.00  0.00    +0.051 A 
ATOM     19  C   UNL     1       2.552   2.170   7.170  0.00  0.00    +0.044 C 
BRANCH  17  20
ATOM     20  N   UNL     1      -2.362   2.059   7.200  0.00  0.00    -0.358 N 
ATOM     21  H   UNL     1      -2.362   2.707   7.922  0.00  0.00    +0.142 HD
ATOM     22  H   UNL     1      -3.201   1.722   6.851  0.00  0.00    +0.142 HD
ENDBRANCH  17  20
ENDBRANCH   1  13
TORSDOF 3
