REMARK  Name = ZINC08934430
REMARK  7 active torsions:
REMARK  status: ('A' for Active; 'I' for Inactive)
REMARK    1  A    between atoms: C_1  and  C_2
REMARK    2  A    between atoms: C_2  and  C_25
REMARK    3  A    between atoms: N_3  and  N_4
REMARK    4  A    between atoms: C_6  and  C_19
REMARK    5  A    between atoms: C_8  and  N_9
REMARK    6  A    between atoms: C_10  and  C_11
REMARK    7  A    between atoms: C_16  and  O_17
REMARK                            x       y       z     vdW  Elec       q    Type
REMARK                         _______ _______ _______ _____ _____    ______ ____
ROOT
ATOM      1  N   UNL     1       0.099   0.088   2.305  0.00  0.00    -0.205 N 
ATOM      2  C   UNL     1      -0.113   1.429   2.480  0.00  0.00    +0.142 A 
ATOM      3  C   UNL     1      -0.020   1.675   3.816  0.00  0.00    +0.068 A 
ATOM      4  N   UNL     1       0.242   0.512   4.441  0.00  0.00    -0.322 N 
ATOM      5  C   UNL     1       0.311  -0.453   3.547  0.00  0.00    +0.230 A 
ATOM      6  H   UNL     1       0.358   0.402   5.397  0.00  0.00    +0.169 HD
ENDROOT
BRANCH   3   7
ATOM      7  C   UNL     1      -0.180   2.997   4.470  0.00  0.00    -0.000 A 
ATOM      8  C   UNL     1      -0.456   4.128   3.704  0.00  0.00    +0.010 A 
ATOM      9  C   UNL     1      -0.604   5.355   4.318  0.00  0.00    +0.001 A 
ATOM     10  C   UNL     1      -0.477   5.464   5.691  0.00  0.00    +0.000 A 
ATOM     11  C   UNL     1      -0.203   4.345   6.457  0.00  0.00    +0.001 A 
ATOM     12  C   UNL     1      -0.060   3.111   5.854  0.00  0.00    +0.010 A 
ENDBRANCH   3   7
BRANCH   1  15
ATOM     13  C   UNL     1      -2.102   0.354   0.666  0.00  0.00    +0.068 C 
ATOM     14  C   UNL     1      -0.896  -0.455   0.260  0.00  0.00    +0.066 C 
ATOM     15  N   UNL     1       0.094  -0.603   1.086  0.00  0.00    -0.169 NA
BRANCH  14  16
ATOM     16  C   UNL     1      -0.842  -1.077  -1.075  0.00  0.00    -0.002 A 
ATOM     17  C   UNL     1      -1.903  -0.914  -1.969  0.00  0.00    +0.010 A 
ATOM     18  C   UNL     1      -1.845  -1.499  -3.217  0.00  0.00    +0.001 A 
ATOM     19  C   UNL     1      -0.739  -2.245  -3.585  0.00  0.00    +0.000 A 
ATOM     20  C   UNL     1       0.316  -2.411  -2.704  0.00  0.00    +0.001 A 
ATOM     21  C   UNL     1       0.274  -1.827  -1.455  0.00  0.00    +0.010 A 
ENDBRANCH  14  16
ENDBRANCH   1  15
BRANCH   5  22
ATOM     22  N   UNL     1       0.556  -1.763   3.811  0.00  0.00    -0.220 NA
ATOM     23  C   UNL     1       0.743  -2.158   5.043  0.00  0.00    +0.126 C 
BRANCH  23  24
ATOM     24  C   UNL     1       1.007  -3.574   5.329  0.00  0.00    +0.036 A 
ATOM     25  C   UNL     1       1.202  -4.002   6.647  0.00  0.00    +0.028 A 
ATOM     26  C   UNL     1       1.449  -5.333   6.907  0.00  0.00    +0.019 A 
ATOM     27  C   UNL     1       1.505  -6.250   5.868  0.00  0.00    +0.019 A 
ATOM     28  C   UNL     1       1.315  -5.841   4.563  0.00  0.00    +0.047 A 
ATOM     29  C   UNL     1       1.060  -4.508   4.282  0.00  0.00    +0.125 A 
ATOM     30 BR   UNL     1       1.714  -5.911   8.688  0.00  0.00    -0.050 Br
BRANCH  29  31
ATOM     31  O   UNL     1       0.867  -4.106   3.000  0.00  0.00    -0.506 OA
ATOM     32  H   UNL     1       1.678  -3.845   2.543  0.00  0.00    +0.292 HD
ENDBRANCH  29  31
ENDBRANCH  23  24
ENDBRANCH   5  22
TORSDOF 6
