REMARK  Name = ZINC42603293
REMARK  4 active torsions:
REMARK  status: ('A' for Active; 'I' for Inactive)
REMARK    1  A    between atoms: C_1  and  C_2
REMARK    2  A    between atoms: C_8  and  N_10
REMARK    3  A    between atoms: N_10  and  C_11
REMARK    4  A    between atoms: C_13  and  N_19
REMARK                            x       y       z     vdW  Elec       q    Type
REMARK                         _______ _______ _______ _____ _____    ______ ____
ROOT
ATOM      1  N   UNL     1       0.142  -0.023   2.369  0.00  0.00    -0.313 N 
ATOM      2  C   UNL     1      -1.188  -0.572   2.647  0.00  0.00    +0.131 C 
ATOM      3  C   UNL     1       0.779   0.775   3.317  0.00  0.00    +0.142 A 
ATOM      4  C   UNL     1       1.514   0.178   4.344  0.00  0.00    +0.066 A 
ATOM      5  C   UNL     1       2.142   0.988   5.281  0.00  0.00    +0.043 A 
ATOM      6  C   UNL     1       2.013   2.366   5.156  0.00  0.00    +0.038 A 
ATOM      7  C   UNL     1       1.271   2.885   4.114  0.00  0.00    +0.128 A 
ATOM      8  N   UNL     1       0.687   2.092   3.234  0.00  0.00    -0.237 NA
ATOM      9 BR   UNL     1       2.846   3.519   6.402  0.00  0.00    -0.049 Br
ENDROOT
BRANCH   1  16
ATOM     10  C   UNL     1      -0.249   1.719   0.088  0.00  0.00    +0.009 C 
ATOM     11  C   UNL     1      -0.062   0.208  -0.057  0.00  0.00    +0.006 C 
ATOM     12  C   UNL     1       0.626  -0.095  -1.390  0.00  0.00    +0.005 C 
ATOM     13  C   UNL     1       0.813  -1.607  -1.535  0.00  0.00    +0.000 C 
ATOM     14  C   UNL     1       1.677  -2.127  -0.385  0.00  0.00    +0.002 C 
ATOM     15  C   UNL     1       0.988  -1.824   0.948  0.00  0.00    +0.023 C 
ATOM     16  C   UNL     1       0.801  -0.313   1.093  0.00  0.00    +0.077 C 
ENDBRANCH   1  16
BRANCH   4  17
ATOM     17  N   UNL     1       1.614  -1.216   4.429  0.00  0.00    -0.355 N 
ATOM     18  H   UNL     1       1.200  -1.774   3.752  0.00  0.00    +0.142 HD
ATOM     19  H   UNL     1       2.099  -1.624   5.164  0.00  0.00    +0.142 HD
ENDBRANCH   4  17
TORSDOF 2
