REMARK  Name = ZINC62810965
REMARK  5 active torsions:
REMARK  status: ('A' for Active; 'I' for Inactive)
REMARK    1  A    between atoms: C_1  and  N_2
REMARK    2  A    between atoms: N_2  and  C_3
REMARK    3  A    between atoms: C_4  and  C_6
REMARK    4  A    between atoms: C_12  and  C_14
REMARK    5  A    between atoms: C_15  and  N_20
REMARK                            x       y       z     vdW  Elec       q    Type
REMARK                         _______ _______ _______ _____ _____    ______ ____
ROOT
ATOM      1  C   UNL     1       0.021  -2.178  -1.177  0.00  0.00    +0.162 C 
ATOM      2  C   UNL     1      -1.400  -2.724  -0.922  0.00  0.00    +0.033 C 
ATOM      3  C   UNL     1      -1.921  -3.020  -2.354  0.00  0.00    +0.021 C 
ATOM      4  C   UNL     1      -0.630  -3.504  -3.060  0.00  0.00    +0.109 C 
ATOM      5  N   UNL     1       0.448  -2.666  -2.497  0.00  0.00    -0.285 N 
ATOM      6  C   UNL     1       1.626  -2.390  -3.091  0.00  0.00    +0.269 C 
ATOM      7  O   UNL     1       2.440  -1.683  -2.530  0.00  0.00    -0.268 OA
ENDROOT
BRANCH   6   8
ATOM      8  C   UNL     1       1.927  -2.947  -4.423  0.00  0.00    +0.168 A 
ATOM      9  C   UNL     1       3.119  -2.753  -5.169  0.00  0.00    +0.075 A 
ATOM     10  C   UNL     1       2.942  -3.452  -6.321  0.00  0.00    +0.128 A 
ATOM     11  N   UNL     1       1.712  -4.026  -6.255  0.00  0.00    -0.282 N 
ATOM     12  H   UNL     1       1.323  -4.585  -6.945  0.00  0.00    +0.188 HD
ATOM     13  N   UNL     1       1.142  -3.726  -5.144  0.00  0.00    -0.167 NA
BRANCH   9  14
ATOM     14  N   UNL     1       4.241  -1.999  -4.795  0.00  0.00    -0.355 N 
ATOM     15  H   UNL     1       4.255  -1.539  -3.941  0.00  0.00    +0.142 HD
ATOM     16  H   UNL     1       5.004  -1.937  -5.391  0.00  0.00    +0.142 HD
ENDBRANCH   9  14
ENDBRANCH   6   8
BRANCH   1  20
ATOM     17  C   UNL     1      -0.018   1.461   0.010  0.00  0.00    +0.131 C 
ATOM     18  N   UNL     1       0.002  -0.004   0.002  0.00  0.00    -0.306 N 
ATOM     19  C   UNL     1       0.024  -0.743   1.267  0.00  0.00    +0.131 C 
ATOM     20  C   UNL     1       0.000  -0.672  -1.169  0.00  0.00    +0.236 C 
ATOM     21  O   UNL     1      -0.018  -0.060  -2.216  0.00  0.00    -0.274 OA
ENDBRANCH   1  20
TORSDOF 3
