REMARK  Name = ZINC59798682
REMARK  5 active torsions:
REMARK  status: ('A' for Active; 'I' for Inactive)
REMARK    1  A    between atoms: C_1  and  C_2
REMARK    2  A    between atoms: C_2  and  C_4
REMARK    3  A    between atoms: C_2  and  O_11
REMARK    4  A    between atoms: N_9  and  C_10
REMARK    5  A    between atoms: O_11  and  C_12
REMARK                            x       y       z     vdW  Elec       q    Type
REMARK                         _______ _______ _______ _____ _____    ______ ____
ROOT
ATOM      1  C   UNL     1      -0.047   1.273   0.344  0.00  0.00    +0.062 C 
ATOM      2  C   UNL     1      -0.015  -0.229   0.058  0.00  0.00    +0.256 C 
ENDROOT
BRANCH   2   3
ATOM      3  C   UNL     1      -1.425  -0.752  -0.045  0.00  0.00    +0.261 C 
ATOM      4  O   UNL     1      -1.833  -1.191  -1.098  0.00  0.00    -0.271 OA
ATOM      5  N   UNL     1      -2.231  -0.730   1.035  0.00  0.00    -0.237 N 
ATOM      6  C   UNL     1      -3.492  -1.197   0.943  0.00  0.00    +0.306 C 
ATOM      7  O   UNL     1      -3.902  -1.638  -0.113  0.00  0.00    -0.252 OA
ATOM      8  N   UNL     1      -4.299  -1.175   2.023  0.00  0.00    -0.302 N 
ATOM      9  C   UNL     1      -5.670  -1.683   1.923  0.00  0.00    +0.129 C 
ATOM     10  H   UNL     1      -1.905  -0.378   1.878  0.00  0.00    +0.159 HD
ATOM     11  H   UNL     1      -3.972  -0.823   2.865  0.00  0.00    +0.150 HD
ENDBRANCH   2   3
BRANCH   2  12
ATOM     12  O   UNL     1       0.671  -0.465  -1.174  0.00  0.00    -0.480 OA
BRANCH  12  13
ATOM     13  C   UNL     1       2.026  -0.553  -1.118  0.00  0.00    +0.125 A 
ATOM     14  C   UNL     1       2.687  -0.302   0.076  0.00  0.00    +0.046 A 
ATOM     15  C   UNL     1       4.066  -0.390   0.138  0.00  0.00    +0.004 A 
ATOM     16  C   UNL     1       4.791  -0.727  -0.984  0.00  0.00    +0.012 A 
ATOM     17  C   UNL     1       4.134  -0.982  -2.198  0.00  0.00    +0.024 A 
ATOM     18  C   UNL     1       2.743  -0.899  -2.254  0.00  0.00    +0.005 A 
ATOM     19  C   UNL     1       2.272  -1.222  -3.651  0.00  0.00    +0.047 C 
ATOM     20  C   UNL     1       3.533  -1.527  -4.471  0.00  0.00    +0.084 C 
ATOM     21  C   UNL     1       4.685  -1.354  -3.512  0.00  0.00    +0.164 C 
ATOM     22  O   UNL     1       5.859  -1.507  -3.774  0.00  0.00    -0.292 OA
ENDBRANCH  12  13
ENDBRANCH   2  12
TORSDOF 3
