REMARK  Name = ZINC16910008
REMARK  8 active torsions:
REMARK  status: ('A' for Active; 'I' for Inactive)
REMARK    1  A    between atoms: C_1  and  C_2
REMARK    2  A    between atoms: C_2  and  C_4
REMARK    3  A    between atoms: C_8  and  N_10
REMARK    4  A    between atoms: N_10  and  C_11
REMARK    5  A    between atoms: C_16  and  C_17
REMARK    6  A    between atoms: C_22  and  O_23
REMARK    7  A    between atoms: O_23  and  C_24
REMARK    8  A    between atoms: C_24  and  C_25
REMARK                            x       y       z     vdW  Elec       q    Type
REMARK                         _______ _______ _______ _____ _____    ______ ____
ROOT
ATOM      1  C   UNL     1      -1.748   6.115   0.510  0.00  0.00    +0.175 C 
ATOM      2  N   UNL     1      -0.487   5.711   0.509  0.00  0.00    -0.152 NA
ATOM      3  C   UNL     1      -0.155   4.439   0.528  0.00  0.00    +0.276 C 
ATOM      4  O   UNL     1       1.012   4.078   0.528  0.00  0.00    -0.267 OA
ATOM      5  C   UNL     1      -1.273   3.467   0.551  0.00  0.00    +0.080 C 
ATOM      6  C   UNL     1      -1.246   2.110   0.573  0.00  0.00    +0.032 C 
ATOM      7  S   UNL     1      -2.669   4.585   0.533  0.00  0.00    -0.050 S 
ENDROOT
BRANCH   6   8
ATOM      8  C   UNL     1       0.030   1.405   0.744  0.00  0.00    +0.018 A 
ATOM      9  C   UNL     1       1.010   1.918   1.602  0.00  0.00    +0.011 A 
ATOM     10  C   UNL     1       2.206   1.252   1.752  0.00  0.00    +0.001 A 
ATOM     11  C   UNL     1       2.446   0.077   1.058  0.00  0.00    +0.004 A 
ATOM     12  C   UNL     1       1.488  -0.441   0.207  0.00  0.00    +0.046 A 
ATOM     13  C   UNL     1       0.278   0.213   0.042  0.00  0.00    +0.128 A 
BRANCH  13  14
ATOM     14  O   UNL     1      -0.663  -0.294  -0.794  0.00  0.00    -0.480 OA
BRANCH  14  15
ATOM     15  C   UNL     1      -0.340  -1.509  -1.473  0.00  0.00    +0.353 C 
BRANCH  15  16
ATOM     16  C   UNL     1      -1.495  -1.918  -2.349  0.00  0.00    +0.393 C 
ATOM     17  O   UNL     1      -2.494  -1.238  -2.389  0.00  0.00    -0.243 OA
ATOM     18  O   UNL     1      -1.416  -3.037  -3.087  0.00  0.00    -0.243 OA
ENDBRANCH  15  16
ENDBRANCH  14  15
ENDBRANCH  13  14
ENDBRANCH   6   8
BRANCH   1  19
ATOM     19  N   UNL     1      -2.230   7.398   0.492  0.00  0.00    -0.192 NA
BRANCH  19  24
ATOM     20  C   UNL     1       0.818   9.436   0.884  0.00  0.00    +0.019 A 
ATOM     21  C   UNL     1       0.403  10.635   0.293  0.00  0.00    +0.011 A 
ATOM     22  C   UNL     1      -0.872  10.745  -0.221  0.00  0.00    +0.003 A 
ATOM     23  C   UNL     1      -1.744   9.673  -0.156  0.00  0.00    +0.025 A 
ATOM     24  C   UNL     1      -1.343   8.477   0.428  0.00  0.00    +0.056 A 
ATOM     25  C   UNL     1      -0.066   8.356   0.953  0.00  0.00    +0.036 A 
BRANCH  20  27
ATOM     26  C   UNL     1       3.126  10.485   1.363  0.00  0.00    +0.091 C 
ATOM     27  C   UNL     1       2.178   9.316   1.434  0.00  0.00    +0.160 C 
ATOM     28  O   UNL     1       2.535   8.276   1.945  0.00  0.00    -0.292 OA
ENDBRANCH  20  27
ENDBRANCH  19  24
ENDBRANCH   1  19
TORSDOF 7
