REMARK  Name = ZINC39665787
REMARK  9 active torsions:
REMARK  status: ('A' for Active; 'I' for Inactive)
REMARK    1  A    between atoms: C_1  and  C_2
REMARK    2  A    between atoms: C_2  and  C_4
REMARK    3  A    between atoms: C_2  and  O_32
REMARK    4  A    between atoms: C_4  and  N_5
REMARK    5  A    between atoms: C_6  and  C_8
REMARK    6  A    between atoms: C_19  and  C_21
REMARK    7  A    between atoms: O_32  and  C_33
REMARK    8  A    between atoms: C_36  and  O_39
REMARK    9  A    between atoms: O_39  and  C_40
REMARK                            x       y       z     vdW  Elec       q    Type
REMARK                         _______ _______ _______ _____ _____    ______ ____
ROOT
ATOM      1  C   UNL     1      -1.834  -3.726   0.533  0.00  0.00    +0.100 C 
ATOM      2  C   UNL     1      -1.135  -3.965   1.890  0.00  0.00    +0.121 C 
ATOM      3  N   UNL     1      -2.239  -4.271   2.830  0.00  0.00    -0.297 N 
ATOM      4  C   UNL     1      -3.171  -5.114   2.043  0.00  0.00    +0.115 C 
ATOM      5  C   UNL     1      -3.167  -4.484   0.636  0.00  0.00    -0.004 C 
ATOM      6  C   UNL     1      -3.240  -5.573  -0.430  0.00  0.00    -0.010 C 
ATOM      7  C   UNL     1      -4.599  -6.275  -0.345  0.00  0.00    -0.082 C 
ATOM      8  N   UNL     1      -5.671  -5.293  -0.546  0.00  0.00    +0.379 N 
ATOM      9  C   UNL     1      -5.652  -4.302   0.537  0.00  0.00    -0.082 C 
ATOM     10  C   UNL     1      -4.338  -3.517   0.489  0.00  0.00    -0.010 C 
ATOM     11  C   UNL     1      -2.366  -3.874   4.112  0.00  0.00    +0.260 C 
ATOM     12  O   UNL     1      -3.336  -4.210   4.758  0.00  0.00    -0.271 OA
ATOM     13  H   UNL     1      -5.537  -4.826  -1.430  0.00  0.00    -0.086 HD
ATOM     14  H   UNL     1      -6.562  -5.767  -0.550  0.00  0.00    -0.086 HD
ENDROOT
BRANCH  11  15
ATOM     15  C   UNL     1      -1.303  -3.012   4.743  0.00  0.00    +0.296 C 
ATOM     16  C   UNL     1       0.009  -3.800   4.846  0.00  0.00    +0.283 C 
ATOM     17  O   UNL     1       0.991  -2.959   5.461  0.00  0.00    -0.484 OA
ATOM     18  C   UNL     1       0.602  -2.279   6.574  0.00  0.00    +0.162 A 
ATOM     19  C   UNL     1       1.566  -1.745   7.417  0.00  0.00    +0.049 A 
ATOM     20  C   UNL     1       1.187  -1.049   8.549  0.00  0.00    +0.004 A 
ATOM     21  C   UNL     1      -0.153  -0.883   8.845  0.00  0.00    +0.004 A 
ATOM     22  C   UNL     1      -1.119  -1.413   8.010  0.00  0.00    +0.049 A 
ATOM     23  C   UNL     1      -0.745  -2.114   6.873  0.00  0.00    +0.163 A 
ATOM     24  O   UNL     1      -1.707  -2.637   6.064  0.00  0.00    -0.473 OA
ENDBRANCH  11  15
BRANCH   1  26
ATOM     25  N   UNL     1      -2.134  -1.751  -0.926  0.00  0.00    -0.312 N 
ATOM     26  C   UNL     1      -2.082  -2.254   0.323  0.00  0.00    +0.218 C 
ATOM     27  O   UNL     1      -2.234  -1.523   1.278  0.00  0.00    -0.275 OA
ATOM     28  H   UNL     1      -2.012  -2.336  -1.690  0.00  0.00    +0.149 HD
BRANCH  25  29
ATOM     29  C   UNL     1      -2.376  -0.321  -1.130  0.00  0.00    +0.148 C 
BRANCH  29  31
ATOM     30  C   UNL     1      -2.639   1.480  -2.843  0.00  0.00    +0.053 C 
ATOM     31  C   UNL     1      -2.387  -0.014  -2.629  0.00  0.00    +0.187 C 
BRANCH  31  32
ATOM     32  O   UNL     1      -1.126  -0.371  -3.198  0.00  0.00    -0.488 OA
BRANCH  32  33
ATOM     33  C   UNL     1      -1.109  -0.668  -4.525  0.00  0.00    +0.121 A 
ATOM     34  C   UNL     1       0.057  -1.131  -5.117  0.00  0.00    +0.049 A 
ATOM     35  C   UNL     1       0.074  -1.433  -6.465  0.00  0.00    +0.049 A 
ATOM     36  C   UNL     1      -1.074  -1.273  -7.226  0.00  0.00    +0.120 A 
ATOM     37  C   UNL     1      -2.240  -0.810  -6.634  0.00  0.00    +0.049 A 
ATOM     38  C   UNL     1      -2.258  -0.512  -5.285  0.00  0.00    +0.049 A 
BRANCH  36  39
ATOM     39  O   UNL     1      -1.057  -1.569  -8.553  0.00  0.00    -0.495 OA
ATOM     40  C   UNL     1      -2.275  -1.380  -9.276  0.00  0.00    +0.277 C 
ENDBRANCH  36  39
ENDBRANCH  32  33
ENDBRANCH  31  32
ENDBRANCH  29  31
ENDBRANCH  25  29
ENDBRANCH   1  26
TORSDOF 7
