REMARK  Name = ZINC57343091
REMARK  2 active torsions:
REMARK  status: ('A' for Active; 'I' for Inactive)
REMARK    1  A    between atoms: C_6  and  C_7
REMARK    2  A    between atoms: C_7  and  N_8
REMARK                            x       y       z     vdW  Elec       q    Type
REMARK                         _______ _______ _______ _____ _____    ______ ____
ROOT
ATOM      1  N   UNL     1      -1.726  -1.017  -1.368  0.00  0.00    -0.311 N 
ATOM      2  C   UNL     1      -2.884  -1.705  -1.611  0.00  0.00    +0.196 A 
ATOM      3  N   UNL     1      -3.604  -2.138  -0.599  0.00  0.00    -0.221 NA
ATOM      4  C   UNL     1      -4.747  -2.811  -0.781  0.00  0.00    +0.053 A 
ATOM      5  C   UNL     1      -5.188  -3.057  -2.042  0.00  0.00    +0.038 A 
ATOM      6  C   UNL     1      -4.417  -2.602  -3.134  0.00  0.00    +0.256 A 
ATOM      7  N   UNL     1      -3.277  -1.924  -2.895  0.00  0.00    -0.295 N 
ATOM      8  O   UNL     1      -4.781  -2.817  -4.278  0.00  0.00    -0.267 OA
ATOM      9  C   UNL     1      -6.470  -3.787  -2.334  0.00  0.00    +0.042 C 
ATOM     10  C   UNL     1      -6.938  -4.565  -1.106  0.00  0.00    +0.005 C 
ATOM     11  C   UNL     1      -6.941  -3.612   0.096  0.00  0.00    +0.006 C 
ATOM     12  C   UNL     1      -5.493  -3.271   0.444  0.00  0.00    +0.056 C 
ATOM     13  H   UNL     1      -1.191  -0.691  -2.109  0.00  0.00    +0.149 HD
ATOM     14  H   UNL     1      -2.738  -1.599  -3.633  0.00  0.00    +0.172 HD
ENDROOT
BRANCH   1  15
ATOM     15  C   UNL     1      -1.293  -0.775   0.010  0.00  0.00    +0.139 C 
BRANCH  15  21
ATOM     16  C   UNL     1      -0.017   1.378   0.010  0.00  0.00    +0.006 A 
ATOM     17  C   UNL     1       1.171   2.086   0.002  0.00  0.00    +0.015 A 
ATOM     18  C   UNL     1       2.378   1.411  -0.013  0.00  0.00    +0.018 A 
ATOM     19  C   UNL     1       2.396   0.027  -0.021  0.00  0.00    +0.015 A 
ATOM     20  C   UNL     1       1.208  -0.679  -0.013  0.00  0.00    +0.006 A 
ATOM     21  C   UNL     1       0.002  -0.004   0.002  0.00  0.00    -0.030 A 
ATOM     22 BR   UNL     1       4.003   2.378  -0.024  0.00  0.00    -0.050 Br
ENDBRANCH  15  21
ENDBRANCH   1  15
TORSDOF 2
