REMARK  Name = ZINC65816313
REMARK  7 active torsions:
REMARK  status: ('A' for Active; 'I' for Inactive)
REMARK    1  A    between atoms: C_1  and  O_2
REMARK    2  A    between atoms: O_2  and  C_3
REMARK    3  A    between atoms: C_8  and  C_9
REMARK    4  A    between atoms: C_9  and  C_10
REMARK    5  A    between atoms: C_9  and  N_22
REMARK    6  A    between atoms: C_10  and  N_11
REMARK    7  A    between atoms: N_14  and  C_15
REMARK                            x       y       z     vdW  Elec       q    Type
REMARK                         _______ _______ _______ _____ _____    ______ ____
ROOT
ATOM      1  C   UNL     1       0.078  -2.778   0.015  0.00  0.00    -0.017 C 
ENDROOT
BRANCH   1   2
ATOM      2  N   UNL     1      -0.099  -4.129   0.565  0.00  0.00    +0.385 N 
ATOM      3  C   UNL     1      -0.514  -5.041  -0.508  0.00  0.00    -0.078 C 
ATOM      4  C   UNL     1      -0.621  -6.465   0.042  0.00  0.00    -0.019 C 
ATOM      5  C   UNL     1      -1.658  -6.495   1.169  0.00  0.00    -0.004 C 
ATOM      6  C   UNL     1      -1.255  -5.485   2.247  0.00  0.00    -0.019 C 
ATOM      7  C   UNL     1      -1.124  -4.097   1.616  0.00  0.00    -0.078 C 
ATOM      8  H   UNL     1       0.774  -4.449   0.957  0.00  0.00    -0.081 HD
ENDBRANCH   1   2
BRANCH   1  14
ATOM      9  C   UNL     1       0.393  -0.499   1.014  0.00  0.00    +0.122 A 
ATOM     10  C   UNL     1       0.886   0.337   2.005  0.00  0.00    +0.046 A 
ATOM     11  C   UNL     1       1.603  -0.193   3.060  0.00  0.00    +0.004 A 
ATOM     12  C   UNL     1       1.829  -1.555   3.129  0.00  0.00    +0.000 A 
ATOM     13  C   UNL     1       1.339  -2.391   2.142  0.00  0.00    +0.005 A 
ATOM     14  C   UNL     1       0.617  -1.866   1.088  0.00  0.00    -0.018 A 
BRANCH   9  16
ATOM     15  C   UNL     1      -0.505   1.435  -0.037  0.00  0.00    +0.277 C 
ATOM     16  O   UNL     1      -0.313   0.019  -0.025  0.00  0.00    -0.495 OA
ENDBRANCH   9  16
ENDBRANCH   1  14
BRANCH   1  17
ATOM     17  C   UNL     1       1.064  -2.828  -1.154  0.00  0.00    +0.095 C 
BRANCH  17  18
ATOM     18  N   UNL     1       2.308  -3.466  -0.716  0.00  0.00    -0.300 N 
ATOM     19  C   UNL     1       3.363  -3.530  -1.553  0.00  0.00    +0.304 C 
ATOM     20  O   UNL     1       3.281  -3.059  -2.671  0.00  0.00    -0.253 OA
ATOM     21  N   UNL     1       4.508  -4.116  -1.151  0.00  0.00    -0.267 N 
ATOM     22  H   UNL     1       2.373  -3.841   0.175  0.00  0.00    +0.150 HD
ATOM     23  H   UNL     1       4.598  -4.426  -0.236  0.00  0.00    +0.156 HD
BRANCH  21  24
ATOM     24  C   UNL     1       5.567  -4.276  -2.053  0.00  0.00    +0.072 A 
ATOM     25  C   UNL     1       5.796  -3.330  -3.048  0.00  0.00    +0.028 A 
ATOM     26  C   UNL     1       6.857  -3.533  -3.917  0.00  0.00    +0.022 A 
ATOM     27  C   UNL     1       7.646  -4.658  -3.769  0.00  0.00    +0.112 A 
ATOM     28  N   UNL     1       7.402  -5.536  -2.816  0.00  0.00    -0.242 NA
ATOM     29  C   UNL     1       6.408  -5.379  -1.964  0.00  0.00    +0.150 A 
ATOM     30 CL   UNL     1       6.142  -6.566  -0.725  0.00  0.00    -0.060 Cl
ENDBRANCH  21  24
ENDBRANCH  17  18
ENDBRANCH   1  17
TORSDOF 6
