REMARK  Name = ZINC66633095
REMARK  11 active torsions:
REMARK  status: ('A' for Active; 'I' for Inactive)
REMARK    1  A    between atoms: C_1  and  C_2
REMARK    2  A    between atoms: N_6  and  C_7
REMARK    3  A    between atoms: C_7  and  C_8
REMARK    4  A    between atoms: C_8  and  C_10
REMARK    5  A    between atoms: C_8  and  C_11
REMARK    6  A    between atoms: C_11  and  N_12
REMARK    7  A    between atoms: C_13  and  C_15
REMARK    8  A    between atoms: C_15  and  C_16
REMARK    9  A    between atoms: C_16  and  C_18
REMARK   10  A    between atoms: C_16  and  N_26
REMARK   11  A    between atoms: C_27  and  C_29
REMARK                            x       y       z     vdW  Elec       q    Type
REMARK                         _______ _______ _______ _____ _____    ______ ____
ROOT
ATOM      1  N   UNL     1      -3.518  -0.159   4.565  0.00  0.00    -0.315 N 
ATOM      2  C   UNL     1      -3.761   0.416   5.760  0.00  0.00    +0.215 C 
ATOM      3  O   UNL     1      -2.878   1.016   6.334  0.00  0.00    -0.276 OA
ATOM      4  H   UNL     1      -4.225  -0.639   4.105  0.00  0.00    +0.149 HD
ENDROOT
BRANCH   1   5
ATOM      5  C   UNL     1      -2.188  -0.059   3.961  0.00  0.00    +0.109 C 
BRANCH   5   6
ATOM      6  C   UNL     1      -2.181  -0.791   2.617  0.00  0.00    +0.023 C 
ATOM      7  C   UNL     1      -3.122  -0.079   1.643  0.00  0.00    +0.011 C 
BRANCH   6   8
ATOM      8  C   UNL     1      -0.762  -0.793   2.045  0.00  0.00    +0.127 C 
BRANCH   8  14
ATOM      9  C   UNL     1      -0.651  -3.888   1.936  0.00  0.00    +0.084 C 
ATOM     10  C   UNL     1      -0.681  -2.950   0.756  0.00  0.00    +0.084 A 
ATOM     11  N   UNL     1      -0.671  -3.306  -0.499  0.00  0.00    -0.350 N 
ATOM     12  C   UNL     1      -0.706  -2.209  -1.270  0.00  0.00    +0.101 A 
ATOM     13  C   UNL     1      -0.740  -1.133  -0.462  0.00  0.00    +0.104 A 
ATOM     14  N   UNL     1      -0.730  -1.602   0.824  0.00  0.00    -0.336 N 
ATOM     15  H   UNL     1      -0.641  -4.220  -0.823  0.00  0.00    +0.166 HD
ENDBRANCH   8  14
ENDBRANCH   6   8
ENDBRANCH   5   6
ENDBRANCH   1   5
BRANCH   2  16
ATOM     16  C   UNL     1      -5.130   0.312   6.381  0.00  0.00    +0.123 C 
BRANCH  16  17
ATOM     17  C   UNL     1      -5.137   1.045   7.724  0.00  0.00    +0.117 C 
BRANCH  17  18
ATOM     18  C   UNL     1      -6.522   0.997   8.316  0.00  0.00    +0.043 A 
ATOM     19  C   UNL     1      -7.469   0.134   7.792  0.00  0.00    +0.131 A 
ATOM     20  C   UNL     1      -8.742   0.091   8.336  0.00  0.00    +0.039 A 
ATOM     21  C   UNL     1      -9.067   0.909   9.402  0.00  0.00    +0.006 A 
ATOM     22  C   UNL     1      -8.122   1.772   9.925  0.00  0.00    +0.039 A 
ATOM     23  C   UNL     1      -6.847   1.812   9.387  0.00  0.00    +0.131 A 
ATOM     24  F   UNL     1      -5.921   2.650   9.902  0.00  0.00    -0.205 F 
ATOM     25  F   UNL     1      -7.153  -0.665   6.750  0.00  0.00    -0.205 F 
ENDBRANCH  17  18
BRANCH  17  26
ATOM     26  N   UNL     1      -4.740   2.440   7.522  0.00  0.00    -0.308 N 
ATOM     27  C   UNL     1      -5.497   3.252   6.758  0.00  0.00    +0.210 C 
ATOM     28  O   UNL     1      -6.554   2.855   6.314  0.00  0.00    -0.276 OA
ATOM     29  C   UNL     1      -5.032   4.653   6.455  0.00  0.00    +0.109 C 
ATOM     30  H   UNL     1      -3.932   2.780   7.938  0.00  0.00    +0.149 HD
ENDBRANCH  17  26
ENDBRANCH  16  17
ENDBRANCH   2  16
TORSDOF 8
