REMARK  Name = ZINC34651221
REMARK  9 active torsions:
REMARK  status: ('A' for Active; 'I' for Inactive)
REMARK    1  A    between atoms: C_1  and  C_2
REMARK    2  A    between atoms: C_7  and  N_12
REMARK    3  A    between atoms: C_9  and  C_11
REMARK    4  A    between atoms: C_13  and  C_15
REMARK    5  A    between atoms: C_15  and  C_17
REMARK    6  A    between atoms: C_15  and  N_23
REMARK    7  A    between atoms: C_17  and  C_18
REMARK    8  A    between atoms: C_18  and  S_19
REMARK    9  A    between atoms: S_19  and  C_22
REMARK                            x       y       z     vdW  Elec       q    Type
REMARK                         _______ _______ _______ _____ _____    ______ ____
ROOT
ATOM      1  N   UNL     1      -0.612  -2.548   1.244  0.00  0.00    -0.314 N 
ATOM      2  C   UNL     1      -0.873  -3.776   1.733  0.00  0.00    +0.199 C 
ATOM      3  O   UNL     1       0.030  -4.462   2.164  0.00  0.00    -0.278 OA
ATOM      4  H   UNL     1      -1.333  -2.000   0.898  0.00  0.00    +0.149 HD
ENDROOT
BRANCH   1  10
ATOM      5  C   UNL     1      -0.019   1.526   0.010  0.00  0.00    +0.008 C 
ATOM      6  C   UNL     1       0.002  -0.004   0.002  0.00  0.00    -0.009 C 
ATOM      7  C   UNL     1       0.718  -0.497  -1.257  0.00  0.00    +0.003 C 
ATOM      8  C   UNL     1       0.739  -2.027  -1.265  0.00  0.00    +0.002 C 
ATOM      9  C   UNL     1       1.479  -2.534  -0.026  0.00  0.00    +0.022 C 
ATOM     10  C   UNL     1       0.763  -2.041   1.233  0.00  0.00    +0.076 C 
ATOM     11  C   UNL     1       0.742  -0.511   1.242  0.00  0.00    +0.009 C 
ATOM     12  C   UNL     1       0.026  -0.018   2.500  0.00  0.00    +0.009 C 
ENDBRANCH   1  10
BRANCH   2  13
ATOM     13  C   UNL     1      -2.287  -4.298   1.743  0.00  0.00    +0.014 C 
BRANCH  13  14
ATOM     14  N   UNL     1      -2.398  -5.391   2.718  0.00  0.00    +0.386 N 
ATOM     15  H   UNL     1      -2.159  -5.049   3.636  0.00  0.00    -0.089 HD
ATOM     16  H   UNL     1      -3.345  -5.741   2.725  0.00  0.00    -0.089 HD
ATOM     17  H   UNL     1      -1.767  -6.136   2.462  0.00  0.00    -0.089 HD
ENDBRANCH  13  14
BRANCH  13  18
ATOM     18  C   UNL     1      -2.649  -4.817   0.351  0.00  0.00    +0.015 C 
BRANCH  18  19
ATOM     19  C   UNL     1      -4.122  -5.231   0.328  0.00  0.00    +0.164 C 
BRANCH  19  20
ATOM     20  S   UNL     1      -4.552  -5.847  -1.323  0.00  0.00    -0.034 S 
ATOM     21  O   UNL     1      -4.445  -4.771  -2.246  0.00  0.00    -0.175 OA
ATOM     22  O   UNL     1      -3.817  -7.039  -1.563  0.00  0.00    -0.175 OA
ATOM     23  C   UNL     1      -6.305  -6.279  -1.146  0.00  0.00    +0.194 C 
ENDBRANCH  19  20
ENDBRANCH  18  19
ENDBRANCH  13  18
ENDBRANCH   2  13
TORSDOF 6
