REMARK  Name = ZINC06162972
REMARK  9 active torsions:
REMARK  status: ('A' for Active; 'I' for Inactive)
REMARK    1  A    between atoms: C_1  and  C_2
REMARK    2  A    between atoms: C_5  and  C_32
REMARK    3  A    between atoms: C_6  and  O_8
REMARK    4  A    between atoms: O_8  and  C_9
REMARK    5  A    between atoms: C_15  and  O_31
REMARK    6  A    between atoms: C_16  and  C_24
REMARK    7  A    between atoms: C_19  and  C_20
REMARK    8  A    between atoms: C_24  and  N_59
REMARK    9  A    between atoms: C_27  and  C_30
REMARK                            x       y       z     vdW  Elec       q    Type
REMARK                         _______ _______ _______ _____ _____    ______ ____
ROOT
ATOM      1  C   UNL     1       2.900   6.090  -5.987  0.00  0.00    +0.222 A 
ATOM      2  C   UNL     1       1.531   6.379  -6.255  0.00  0.00    +0.235 A 
ATOM      3  O   UNL     1       1.154   6.687  -7.373  0.00  0.00    -0.283 OA
ATOM      4  C   UNL     1       0.593   6.306  -5.121  0.00  0.00    +0.068 A 
ATOM      5  C   UNL     1      -0.765   6.587  -5.282  0.00  0.00    +0.019 A 
ATOM      6  C   UNL     1      -1.604   6.508  -4.208  0.00  0.00    +0.046 A 
ATOM      7  C   UNL     1      -1.113   6.150  -2.954  0.00  0.00    +0.122 A 
ATOM      8  C   UNL     1       0.232   5.868  -2.778  0.00  0.00    +0.020 A 
ATOM      9  C   UNL     1       1.099   5.948  -3.859  0.00  0.00    +0.144 A 
ATOM     10  O   UNL     1       2.413   5.684  -3.715  0.00  0.00    -0.447 OA
ATOM     11  C   UNL     1       3.276   5.752  -4.737  0.00  0.00    +0.254 A 
ENDROOT
BRANCH  11  12
ATOM     12  C   UNL     1       4.727   5.439  -4.480  0.00  0.00    +0.454 C 
ATOM     13  F   UNL     1       5.401   6.612  -4.125  0.00  0.00    -0.163 F 
ATOM     14  F   UNL     1       4.826   4.511  -3.438  0.00  0.00    -0.163 F 
ATOM     15  F   UNL     1       5.301   4.903  -5.637  0.00  0.00    -0.163 F 
ENDBRANCH  11  12
BRANCH   7  16
ATOM     16  O   UNL     1      -1.959   6.077  -1.895  0.00  0.00    -0.506 OA
ATOM     17  H   UNL     1      -2.050   6.906  -1.406  0.00  0.00    +0.292 HD
ENDBRANCH   7  16
BRANCH   1  18
ATOM     18  O   UNL     1       3.820   6.144  -6.988  0.00  0.00    -0.448 OA
BRANCH  18  24
ATOM     19  C   UNL     1       2.826   1.440  -7.828  0.00  0.00    +0.044 C 
ATOM     20  C   UNL     1       3.582   2.704  -8.147  0.00  0.00    -0.047 A 
ATOM     21  C   UNL     1       4.509   2.714  -9.173  0.00  0.00    +0.004 A 
ATOM     22  C   UNL     1       5.205   3.871  -9.469  0.00  0.00    +0.007 A 
ATOM     23  C   UNL     1       4.976   5.022  -8.739  0.00  0.00    -0.008 A 
ATOM     24  C   UNL     1       4.047   5.014  -7.708  0.00  0.00    +0.132 A 
ATOM     25  C   UNL     1       3.353   3.850  -7.410  0.00  0.00    +0.050 A 
ATOM     26  C   UNL     1       5.735   6.283  -9.061  0.00  0.00    +0.047 C 
ENDBRANCH  18  24
ENDBRANCH   1  18
BRANCH   8  27
ATOM     27  C   UNL     1       0.752   5.481  -1.418  0.00  0.00    -0.036 C 
BRANCH  27  34
ATOM     28  C   UNL     1       1.390   3.586  -0.053  0.00  0.00    -0.078 C 
ATOM     29  C   UNL     1       1.417   2.057  -0.000  0.00  0.00    -0.016 C 
ATOM     30  C   UNL     1      -0.019   1.526   0.010  0.00  0.00    -0.018 C 
ATOM     31  C   UNL     1      -0.752   2.034  -1.234  0.00  0.00    -0.016 C 
ATOM     32  C   UNL     1      -0.717   3.564  -1.251  0.00  0.00    -0.078 C 
ATOM     33  C   UNL     1       0.002  -0.004   0.002  0.00  0.00    +0.007 C 
ATOM     34  N   UNL     1       0.692   4.011  -1.286  0.00  0.00    +0.383 N 
ATOM     35  H   UNL     1       1.157   3.584  -2.095  0.00  0.00    -0.081 HD
ENDBRANCH  27  34
ENDBRANCH   8  27
TORSDOF 6
