REMARK  Name = ZINC38043177
REMARK  5 active torsions:
REMARK  status: ('A' for Active; 'I' for Inactive)
REMARK    1  A    between atoms: C_1  and  C_2
REMARK    2  A    between atoms: C_3  and  N_9
REMARK    3  A    between atoms: C_4  and  C_8
REMARK    4  A    between atoms: C_10  and  C_12
REMARK    5  A    between atoms: N_17  and  C_18
REMARK                            x       y       z     vdW  Elec       q    Type
REMARK                         _______ _______ _______ _____ _____    ______ ____
ROOT
ATOM      1  C   UNL     1       0.181   0.010  -5.051  0.00  0.00    +0.144 C 
ATOM      2  C   UNL     1      -1.253   0.283  -5.544  0.00  0.00    +0.029 C 
ATOM      3  C   UNL     1      -1.503  -0.761  -6.656  0.00  0.00    +0.017 C 
ATOM      4  C   UNL     1      -0.069  -1.147  -7.098  0.00  0.00    +0.085 C 
ATOM      5  N   UNL     1       0.697  -1.141  -5.822  0.00  0.00    -0.289 NA
ENDROOT
BRANCH   5   6
ATOM      6  C   UNL     1       2.139  -1.006  -6.069  0.00  0.00    +0.054 C 
ATOM      7  C   UNL     1       2.600  -2.109  -7.025  0.00  0.00    -0.000 C 
ATOM      8  C   UNL     1       4.116  -2.011  -7.215  0.00  0.00    -0.081 C 
ATOM      9  N   UNL     1       4.787  -2.171  -5.920  0.00  0.00    +0.379 N 
ATOM     10  C   UNL     1       4.404  -1.075  -5.022  0.00  0.00    -0.081 C 
ATOM     11  C   UNL     1       2.900  -1.138  -4.747  0.00  0.00    -0.000 C 
ATOM     12  H   UNL     1       4.516  -3.051  -5.509  0.00  0.00    -0.086 HD
ATOM     13  H   UNL     1       5.786  -2.159  -6.056  0.00  0.00    -0.086 HD
ENDBRANCH   5   6
BRANCH   1  15
ATOM     14  N   UNL     1      -0.280   0.587  -2.690  0.00  0.00    -0.281 N 
ATOM     15  C   UNL     1       0.164  -0.322  -3.581  0.00  0.00    +0.235 C 
ATOM     16  O   UNL     1       0.549  -1.407  -3.200  0.00  0.00    -0.274 OA
ATOM     17  H   UNL     1      -0.633   1.436  -2.998  0.00  0.00    +0.155 HD
BRANCH  14  20
ATOM     18  C   UNL     1       1.124   2.345  -0.590  0.00  0.00    +0.067 C 
ATOM     19  C   UNL     1       0.377   1.056  -0.361  0.00  0.00    +0.054 A 
ATOM     20  C   UNL     1      -0.232   0.302  -1.312  0.00  0.00    +0.077 A 
ATOM     21  C   UNL     1      -0.806  -0.809  -0.678  0.00  0.00    +0.081 A 
ATOM     22  N   UNL     1      -0.552  -0.728   0.603  0.00  0.00    -0.177 NA
ATOM     23  N   UNL     1       0.197   0.433   0.832  0.00  0.00    -0.280 N 
ATOM     24  H   UNL     1       0.526   0.740   1.692  0.00  0.00    +0.189 HD
ATOM     25  C   UNL     1      -1.582  -1.909  -1.355  0.00  0.00    +0.069 C 
ENDBRANCH  14  20
ENDBRANCH   1  15
TORSDOF 3
