REMARK  Name = ZINC37929101
REMARK  6 active torsions:
REMARK  status: ('A' for Active; 'I' for Inactive)
REMARK    1  A    between atoms: C_6  and  C_7
REMARK    2  A    between atoms: C_7  and  C_8
REMARK    3  A    between atoms: C_8  and  N_9
REMARK    4  A    between atoms: N_9  and  S_10
REMARK    5  A    between atoms: S_10  and  C_13
REMARK    6  A    between atoms: C_18  and  N_19
REMARK                            x       y       z     vdW  Elec       q    Type
REMARK                         _______ _______ _______ _____ _____    ______ ____
ROOT
ATOM      1  S   UNL     1      -4.031  -1.780  -2.788  0.00  0.00    +0.060 S 
ATOM      2  O   UNL     1      -5.257  -2.456  -2.547  0.00  0.00    -0.153 OA
ATOM      3  O   UNL     1      -3.978  -0.419  -3.195  0.00  0.00    -0.153 OA
ENDROOT
BRANCH   1   4
ATOM      4  C   UNL     1      -3.178  -2.707  -4.021  0.00  0.00    +0.127 A 
ATOM      5  C   UNL     1      -2.661  -2.069  -5.131  0.00  0.00    +0.045 A 
ATOM      6  C   UNL     1      -1.992  -2.796  -6.099  0.00  0.00    +0.020 A 
ATOM      7  C   UNL     1      -1.839  -4.164  -5.958  0.00  0.00    +0.017 A 
ATOM      8  C   UNL     1      -2.354  -4.807  -4.850  0.00  0.00    +0.026 A 
ATOM      9  C   UNL     1      -3.021  -4.079  -3.874  0.00  0.00    +0.051 A 
ATOM     10 BR   UNL     1      -1.287  -1.919  -7.619  0.00  0.00    -0.050 Br
BRANCH   9  11
ATOM     11  N   UNL     1      -3.538  -4.726  -2.748  0.00  0.00    -0.356 N 
ATOM     12  H   UNL     1      -3.926  -4.208  -2.026  0.00  0.00    +0.142 HD
ATOM     13  H   UNL     1      -3.508  -5.694  -2.689  0.00  0.00    +0.142 HD
ENDBRANCH   9  11
ENDBRANCH   1   4
BRANCH   1  14
ATOM     14  N   UNL     1      -3.146  -1.891  -1.393  0.00  0.00    -0.190 NA
ATOM     15  H   UNL     1      -3.517  -2.340  -0.617  0.00  0.00    +0.148 HD
BRANCH  14  16
ATOM     16  C   UNL     1      -1.802  -1.311  -1.329  0.00  0.00    +0.110 C 
BRANCH  16  17
ATOM     17  C   UNL     1      -1.361  -1.205   0.132  0.00  0.00    +0.052 C 
BRANCH  17  23
ATOM     18  C   UNL     1       0.178   0.762   0.291  0.00  0.00    +0.006 A 
ATOM     19  C   UNL     1       1.445   1.310   0.351  0.00  0.00    +0.038 A 
ATOM     20  C   UNL     1       2.558   0.487   0.318  0.00  0.00    +0.123 A 
ATOM     21  C   UNL     1       2.399  -0.885   0.223  0.00  0.00    +0.038 A 
ATOM     22  C   UNL     1       1.131  -1.431   0.164  0.00  0.00    +0.006 A 
ATOM     23  C   UNL     1       0.021  -0.608   0.198  0.00  0.00    -0.046 A 
ATOM     24  F   UNL     1       3.797   1.022   0.376  0.00  0.00    -0.205 F 
ENDBRANCH  17  23
ENDBRANCH  16  17
ENDBRANCH  14  16
ENDBRANCH   1  14
TORSDOF 6
