REMARK  Name = ZINC55330048
REMARK  6 active torsions:
REMARK  status: ('A' for Active; 'I' for Inactive)
REMARK    1  A    between atoms: C_1  and  C_2
REMARK    2  A    between atoms: C_5  and  C_9
REMARK    3  A    between atoms: C_6  and  C_8
REMARK    4  A    between atoms: N_11  and  C_12
REMARK    5  A    between atoms: N_11  and  C_13
REMARK    6  A    between atoms: C_17  and  N_19
REMARK                            x       y       z     vdW  Elec       q    Type
REMARK                         _______ _______ _______ _____ _____    ______ ____
ROOT
ATOM      1  C   UNL     1       0.139  -4.184   0.067  0.00  0.00    +0.252 C 
ATOM      2  O   UNL     1       0.326  -4.742   1.131  0.00  0.00    -0.270 OA
ATOM      3  N   UNL     1      -0.025  -4.912  -1.056  0.00  0.00    -0.270 N 
ATOM      4  C   UNL     1      -0.121  -4.243  -2.355  0.00  0.00    +0.138 C 
ENDROOT
BRANCH   1   9
ATOM      5  C   UNL     1      -0.163   1.515  -0.090  0.00  0.00    +0.065 C 
ATOM      6  C   UNL     1      -0.063   0.011  -0.064  0.00  0.00    +0.039 A 
ATOM      7  C   UNL     1       0.949  -0.616  -0.769  0.00  0.00    +0.024 A 
ATOM      8  C   UNL     1       1.038  -1.996  -0.743  0.00  0.00    +0.016 A 
ATOM      9  C   UNL     1       0.091  -2.708   0.004  0.00  0.00    +0.058 A 
ATOM     10  C   UNL     1      -0.898  -2.001   0.687  0.00  0.00    +0.051 A 
ATOM     11  N   UNL     1      -0.938  -0.685   0.635  0.00  0.00    -0.256 NA
ATOM     12  C   UNL     1      -1.927  -2.748   1.496  0.00  0.00    +0.066 C 
ENDBRANCH   1   9
BRANCH   3  13
ATOM     13  C   UNL     1      -0.102  -6.306  -0.980  0.00  0.00    +0.038 A 
ATOM     14  C   UNL     1      -0.197  -6.931   0.258  0.00  0.00    +0.023 A 
ATOM     15  C   UNL     1      -0.274  -8.309   0.333  0.00  0.00    +0.004 A 
ATOM     16  C   UNL     1      -0.256  -9.069  -0.820  0.00  0.00    +0.023 A 
ATOM     17  C   UNL     1      -0.162  -8.450  -2.061  0.00  0.00    +0.026 A 
ATOM     18  C   UNL     1      -0.089  -7.067  -2.140  0.00  0.00    +0.046 A 
BRANCH  17  19
ATOM     19  N   UNL     1      -0.144  -9.220  -3.226  0.00  0.00    -0.358 N 
ATOM     20  H   UNL     1      -0.198 -10.187  -3.170  0.00  0.00    +0.142 HD
ATOM     21  H   UNL     1      -0.078  -8.787  -4.092  0.00  0.00    +0.142 HD
ENDBRANCH  17  19
ENDBRANCH   3  13
TORSDOF 3
