REMARK  Name = ZINC42431227
REMARK  5 active torsions:
REMARK  status: ('A' for Active; 'I' for Inactive)
REMARK    1  A    between atoms: C_1  and  N_2
REMARK    2  A    between atoms: N_2  and  C_3
REMARK    3  A    between atoms: C_3  and  C_4
REMARK    4  A    between atoms: N_9  and  C_10
REMARK    5  A    between atoms: C_16  and  N_18
REMARK                            x       y       z     vdW  Elec       q    Type
REMARK                         _______ _______ _______ _____ _____    ______ ____
ROOT
ATOM      1  C   UNL     1      -0.018   1.461   0.010  0.00  0.00    +0.134 C 
ATOM      2  N   UNL     1       0.002  -0.004   0.002  0.00  0.00    -0.278 N 
ATOM      3  C   UNL     1       0.000  -0.672  -1.169  0.00  0.00    +0.303 C 
ATOM      4  O   UNL     1       0.017  -1.887  -1.175  0.00  0.00    -0.253 OA
ATOM      5  N   UNL     1      -0.020   0.009  -2.332  0.00  0.00    -0.298 N 
ATOM      6  H   UNL     1      -0.033   0.978  -2.327  0.00  0.00    +0.150 HD
ENDROOT
BRANCH   5   7
ATOM      7  C   UNL     1      -0.022  -0.717  -3.605  0.00  0.00    +0.060 C 
ATOM      8  C   UNL     1      -1.458  -1.099  -3.972  0.00  0.00    +0.021 C 
ATOM      9  C   UNL     1      -2.304   0.169  -4.106  0.00  0.00    +0.002 C 
ATOM     10  C   UNL     1      -1.717   1.060  -5.203  0.00  0.00    -0.001 C 
ATOM     11  C   UNL     1      -0.281   1.442  -4.835  0.00  0.00    -0.014 C 
ATOM     12  C   UNL     1       0.565   0.174  -4.701  0.00  0.00    -0.054 C 
BRANCH  12  13
ATOM     13  N   UNL     1       1.943   0.540  -4.349  0.00  0.00    +0.381 N 
ATOM     14  H   UNL     1       2.501  -0.296  -4.260  0.00  0.00    -0.090 HD
ATOM     15  H   UNL     1       2.330   1.128  -5.072  0.00  0.00    -0.090 HD
ATOM     16  H   UNL     1       1.945   1.040  -3.472  0.00  0.00    -0.090 HD
ENDBRANCH  12  13
ENDBRANCH   5   7
BRANCH   2  17
ATOM     17  C   UNL     1       0.024  -0.743   1.267  0.00  0.00    +0.233 C 
BRANCH  17  18
ATOM     18  C   UNL     1      -1.389  -1.016   1.714  0.00  0.00    +0.373 C 
ATOM     19  O   UNL     1      -2.327  -0.629   1.039  0.00  0.00    -0.245 OA
ATOM     20  O   UNL     1      -1.594  -1.624   2.751  0.00  0.00    -0.245 OA
ENDBRANCH  17  18
ENDBRANCH   2  17
TORSDOF 4
