REMARK  Name = ZINC39505211
REMARK  5 active torsions:
REMARK  status: ('A' for Active; 'I' for Inactive)
REMARK    1  A    between atoms: C_4  and  O_7
REMARK    2  A    between atoms: O_7  and  S_8
REMARK    3  A    between atoms: S_8  and  C_11
REMARK    4  A    between atoms: C_17  and  O_20
REMARK    5  A    between atoms: N_21  and  O_23
REMARK                            x       y       z     vdW  Elec       q    Type
REMARK                         _______ _______ _______ _____ _____    ______ ____
ROOT
ATOM      1  C   UNL     1       3.008  -2.422   1.830  0.00  0.00    +0.189 C 
ATOM      2  C   UNL     1       3.115  -2.716   3.351  0.00  0.00    +0.056 C 
ATOM      3  C   UNL     1       1.770  -3.392   3.666  0.00  0.00    +0.051 C 
ATOM      4  C   UNL     1       1.269  -2.963   5.050  0.00  0.00    +0.027 C 
ATOM      5  C   UNL     1       1.153  -4.253   5.890  0.00  0.00    +0.033 C 
ATOM      6  C   UNL     1       0.998  -5.380   4.838  0.00  0.00    +0.116 C 
ATOM      7  C   UNL     1       1.942  -4.919   3.698  0.00  0.00    +0.056 C 
ATOM      8  N   UNL     1       0.816  -3.002   2.620  0.00  0.00    -0.183 NA
ATOM      9  C   UNL     1       1.502  -2.087   1.679  0.00  0.00    +0.145 C 
ENDROOT
BRANCH   1  10
ATOM     10  S   UNL     1       4.038  -1.003   1.368  0.00  0.00    +0.125 S 
ATOM     11  O   UNL     1       5.406  -1.385   1.325  0.00  0.00    -0.136 OA
ATOM     12  O   UNL     1       3.631   0.152   2.088  0.00  0.00    -0.136 OA
BRANCH  10  13
ATOM     13  O   UNL     1       3.671  -0.708  -0.079  0.00  0.00    -0.346 OA
BRANCH  13  17
ATOM     14  C   UNL     1       5.248  -3.387  -2.791  0.00  0.00    +0.000 A 
ATOM     15  C   UNL     1       4.003  -3.619  -2.236  0.00  0.00    +0.004 A 
ATOM     16  C   UNL     1       3.473  -2.724  -1.328  0.00  0.00    +0.048 A 
ATOM     17  C   UNL     1       4.191  -1.591  -0.972  0.00  0.00    +0.156 A 
ATOM     18  C   UNL     1       5.440  -1.361  -1.530  0.00  0.00    +0.048 A 
ATOM     19  C   UNL     1       5.966  -2.259  -2.439  0.00  0.00    +0.004 A 
ENDBRANCH  13  17
ENDBRANCH  10  13
ENDBRANCH   1  10
BRANCH   6  20
ATOM     20  O   UNL     1       1.420  -6.635   5.374  0.00  0.00    -0.392 OA
ATOM     21  H   UNL     1       0.908  -6.928   6.140  0.00  0.00    +0.210 HD
ENDBRANCH   6  20
BRANCH   8  22
ATOM     22  O   UNL     1      -0.367  -2.365   3.201  0.00  0.00    -0.312 OA
ATOM     23  H   UNL     1      -1.026  -2.090   2.549  0.00  0.00    +0.237 HD
ENDBRANCH   8  22
TORSDOF 5
