REMARK  Name = ZINC12378063
REMARK  5 active torsions:
REMARK  status: ('A' for Active; 'I' for Inactive)
REMARK    1  A    between atoms: C_6  and  C_7
REMARK    2  A    between atoms: C_7  and  C_9
REMARK    3  A    between atoms: C_9  and  N_10
REMARK    4  A    between atoms: C_14  and  N_17
REMARK    5  A    between atoms: C_15  and  N_16
REMARK                            x       y       z     vdW  Elec       q    Type
REMARK                         _______ _______ _______ _____ _____    ______ ____
ROOT
ATOM      1  N   UNL     1      -0.721   1.571  -1.179  0.00  0.00    -0.311 N 
ATOM      2  C   UNL     1      -1.646   0.787  -1.792  0.00  0.00    +0.205 A 
ATOM      3  N   UNL     1      -2.291   1.192  -2.848  0.00  0.00    -0.198 NA
ATOM      4  C   UNL     1      -2.080   2.402  -3.389  0.00  0.00    +0.296 A 
ATOM      5  C   UNL     1      -1.165   3.255  -2.833  0.00  0.00    +0.130 A 
ATOM      6  C   UNL     1      -0.458   2.830  -1.679  0.00  0.00    +0.124 A 
ATOM      7  O   UNL     1      -2.775   2.781  -4.490  0.00  0.00    -0.264 OA
ENDROOT
BRANCH   6   8
ATOM      8  N   UNL     1       0.429   3.615  -1.102  0.00  0.00    -0.343 N 
ATOM      9  H   UNL     1       0.627   4.616  -1.512  0.00  0.00    +0.144 HD
ATOM     10  H   UNL     1       0.972   3.270  -0.209  0.00  0.00    +0.144 HD
ENDBRANCH   6   8
BRANCH   5  11
ATOM     11  N   UNL     1      -0.935   4.525  -3.390  0.00  0.00    -0.351 N 
ATOM     12  H   UNL     1      -0.197   5.200  -2.933  0.00  0.00    +0.143 HD
ATOM     13  H   UNL     1      -1.494   4.843  -4.283  0.00  0.00    +0.143 HD
ENDBRANCH   5  11
BRANCH   1  14
ATOM     14  C   UNL     1      -0.013   1.086   0.008  0.00  0.00    +0.204 C 
BRANCH  14  15
ATOM     15  C   UNL     1      -0.718   1.572   1.248  0.00  0.00    +0.183 C 
ATOM     16  O   UNL     1      -1.714   2.256   1.150  0.00  0.00    -0.290 OA
BRANCH  15  22
ATOM     17  C   UNL     1       0.948   0.422   2.695  0.00  0.00    +0.012 A 
ATOM     18  C   UNL     1       1.432   0.097   3.944  0.00  0.00    +0.015 A 
ATOM     19  C   UNL     1       0.781   0.545   5.081  0.00  0.00    +0.013 A 
ATOM     20  C   UNL     1      -0.357   1.327   4.973  0.00  0.00    +0.015 A 
ATOM     21  C   UNL     1      -0.850   1.665   3.731  0.00  0.00    +0.012 A 
ATOM     22  C   UNL     1      -0.198   1.216   2.577  0.00  0.00    +0.019 A 
ATOM     23  I   UNL     1       1.522   0.039   6.974  0.00  0.00    -0.044 I 
ENDBRANCH  15  22
ENDBRANCH  14  15
ENDBRANCH   1  14
TORSDOF 5
