REMARK  Name = ZINC19232024
REMARK  6 active torsions:
REMARK  status: ('A' for Active; 'I' for Inactive)
REMARK    1  A    between atoms: C_1  and  O_2
REMARK    2  A    between atoms: O_2  and  C_3
REMARK    3  A    between atoms: C_6  and  N_10
REMARK    4  A    between atoms: N_10  and  S_11
REMARK    5  A    between atoms: S_11  and  C_14
REMARK    6  A    between atoms: C_18  and  N_20
REMARK                            x       y       z     vdW  Elec       q    Type
REMARK                         _______ _______ _______ _____ _____    ______ ____
ROOT
ATOM      1  S   UNL     1      -0.116   5.741   0.060  0.00  0.00    +0.072 S 
ATOM      2  O   UNL     1      -1.307   6.380   0.499  0.00  0.00    -0.150 OA
ATOM      3  O   UNL     1       1.146   5.983   0.666  0.00  0.00    -0.150 OA
ENDROOT
BRANCH   1   4
ATOM      4  C   UNL     1      -0.404   4.006   0.174  0.00  0.00    +0.110 A 
ATOM      5  C   UNL     1       0.664   3.128   0.189  0.00  0.00    +0.029 A 
ATOM      6  C   UNL     1       0.442   1.766   0.277  0.00  0.00    +0.004 A 
ATOM      7  C   UNL     1      -0.848   1.278   0.352  0.00  0.00    +0.023 A 
ATOM      8  C   UNL     1      -1.923   2.157   0.333  0.00  0.00    +0.026 A 
ATOM      9  C   UNL     1      -1.697   3.525   0.249  0.00  0.00    +0.051 A 
BRANCH   8  10
ATOM     10  N   UNL     1      -3.229   1.667   0.403  0.00  0.00    -0.358 N 
ATOM     11  H   UNL     1      -4.080   2.364   0.387  0.00  0.00    +0.142 HD
ATOM     12  H   UNL     1      -3.407   0.583   0.473  0.00  0.00    +0.142 HD
ENDBRANCH   8  10
ENDBRANCH   1   4
BRANCH   1  13
ATOM     13  N   UNL     1       0.052   6.104  -1.547  0.00  0.00    -0.216 N 
ATOM     14  H   UNL     1       1.007   6.500  -1.924  0.00  0.00    +0.174 HD
BRANCH  13  18
ATOM     15  C   UNL     1      -3.141   5.520  -4.163  0.00  0.00    +0.138 A 
ATOM     16  C   UNL     1      -2.061   4.650  -4.182  0.00  0.00    +0.049 A 
ATOM     17  C   UNL     1      -1.000   4.846  -3.319  0.00  0.00    +0.028 A 
ATOM     18  C   UNL     1      -1.020   5.908  -2.424  0.00  0.00    +0.050 A 
ATOM     19  C   UNL     1      -2.101   6.779  -2.405  0.00  0.00    +0.048 A 
ATOM     20  C   UNL     1      -3.159   6.585  -3.273  0.00  0.00    +0.084 A 
ATOM     21 CL   UNL     1      -4.512   7.673  -3.250  0.00  0.00    -0.080 Cl
BRANCH  15  23
ATOM     22  C   UNL     1      -4.097   4.213  -5.905  0.00  0.00    +0.277 C 
ATOM     23  O   UNL     1      -4.182   5.329  -5.017  0.00  0.00    -0.494 OA
ENDBRANCH  15  23
ENDBRANCH  13  18
ENDBRANCH   1  13
TORSDOF 5
