REMARK  Name = ZINC44886889
REMARK  7 active torsions:
REMARK  status: ('A' for Active; 'I' for Inactive)
REMARK    1  A    between atoms: C_1  and  C_2
REMARK    2  A    between atoms: C_5  and  N_21
REMARK    3  A    between atoms: C_6  and  C_20
REMARK    4  A    between atoms: C_7  and  S_8
REMARK    5  A    between atoms: S_8  and  N_11
REMARK    6  A    between atoms: N_11  and  C_12
REMARK    7  A    between atoms: C_12  and  C_19
REMARK                            x       y       z     vdW  Elec       q    Type
REMARK                         _______ _______ _______ _____ _____    ______ ____
ROOT
ATOM      1  S   UNL     1       0.738   0.099   2.297  0.00  0.00    +0.059 S 
ATOM      2  O   UNL     1       1.519  -0.956   2.841  0.00  0.00    -0.153 OA
ATOM      3  O   UNL     1       1.294   1.360   1.951  0.00  0.00    -0.153 OA
ENDROOT
BRANCH   1  10
ATOM      4  C   UNL     1      -0.884   1.764   0.365  0.00  0.00    +0.046 C 
ATOM      5  C   UNL     1      -0.743   0.305   0.014  0.00  0.00    -0.024 A 
ATOM      6  C   UNL     1      -1.333  -0.188  -1.136  0.00  0.00    +0.007 A 
ATOM      7  C   UNL     1      -1.206  -1.524  -1.461  0.00  0.00    +0.023 A 
ATOM      8  C   UNL     1      -0.484  -2.373  -0.632  0.00  0.00    +0.029 A 
ATOM      9  C   UNL     1       0.108  -1.875   0.522  0.00  0.00    -0.003 A 
ATOM     10  C   UNL     1      -0.019  -0.536   0.838  0.00  0.00    +0.113 A 
ATOM     11  C   UNL     1       0.892  -2.792   1.425  0.00  0.00    +0.048 C 
BRANCH   8  12
ATOM     12  N   UNL     1      -0.353  -3.725  -0.957  0.00  0.00    -0.358 N 
ATOM     13  H   UNL     1      -0.767  -4.072  -1.763  0.00  0.00    +0.142 HD
ATOM     14  H   UNL     1       0.151  -4.317  -0.377  0.00  0.00    +0.142 HD
ENDBRANCH   8  12
ENDBRANCH   1  10
BRANCH   1  15
ATOM     15  N   UNL     1      -0.474   0.400   3.385  0.00  0.00    -0.182 NA
ATOM     16  H   UNL     1      -0.636   1.305   3.693  0.00  0.00    +0.149 HD
BRANCH  15  17
ATOM     17  C   UNL     1      -1.301  -0.702   3.884  0.00  0.00    +0.058 C 
ATOM     18  C   UNL     1      -0.412  -1.668   4.665  0.00  0.00    +0.047 C 
ATOM     19  C   UNL     1      -0.364  -1.263   6.165  0.00  0.00    +0.168 C 
ATOM     20  S   UNL     1      -2.128  -0.775   6.408  0.00  0.00    -0.029 S 
ATOM     21  O   UNL     1      -2.912  -1.943   6.612  0.00  0.00    -0.174 OA
ATOM     22  O   UNL     1      -2.194   0.288   7.349  0.00  0.00    -0.174 OA
ATOM     23  C   UNL     1      -2.454  -0.114   4.721  0.00  0.00    +0.189 C 
ATOM     24  C   UNL     1      -1.895  -1.447   2.687  0.00  0.00    +0.031 C 
ENDBRANCH  15  17
ENDBRANCH   1  15
TORSDOF 4
