REMARK  Name = ZINC33703758
REMARK  12 active torsions:
REMARK  status: ('A' for Active; 'I' for Inactive)
REMARK    1  A    between atoms: C_1  and  C_2
REMARK    2  A    between atoms: C_5  and  C_35
REMARK    3  A    between atoms: C_6  and  C_8
REMARK    4  A    between atoms: N_16  and  C_19
REMARK    5  A    between atoms: C_19  and  C_20
REMARK    6  A    between atoms: C_19  and  C_21
REMARK    7  A    between atoms: C_19  and  C_22
REMARK    8  A    between atoms: C_23  and  C_25
REMARK    9  A    between atoms: C_23  and  C_32
REMARK   10  A    between atoms: C_25  and  C_26
REMARK   11  A    between atoms: C_26  and  C_27
REMARK   12  A    between atoms: C_27  and  N_28
REMARK                            x       y       z     vdW  Elec       q    Type
REMARK                         _______ _______ _______ _____ _____    ______ ____
ROOT
ATOM      1  C   UNL     1       4.483  -3.453  -1.613  0.00  0.00    -0.026 C 
ATOM      2  C   UNL     1       4.381  -4.743  -0.819  0.00  0.00    +0.077 C 
ATOM      3  C   UNL     1       2.868  -4.635  -0.390  0.00  0.00    +0.086 C 
ATOM      4  C   UNL     1       2.585  -5.995   0.014  0.00  0.00    +0.225 C 
ATOM      5  O   UNL     1       1.833  -6.354   0.894  0.00  0.00    -0.275 OA
ATOM      6  N   UNL     1       3.356  -6.787  -0.801  0.00  0.00    -0.236 N 
ATOM      7  C   UNL     1       4.295  -6.075  -1.494  0.00  0.00    +0.225 C 
ATOM      8  O   UNL     1       4.928  -6.447  -2.459  0.00  0.00    -0.275 OA
ATOM      9  C   UNL     1       2.790  -3.250   0.107  0.00  0.00    +0.048 C 
ATOM     10  N   UNL     1       3.562  -2.490  -0.936  0.00  0.00    +0.395 N 
ATOM     11  H   UNL     1       4.151  -1.689  -0.465  0.00  0.00    -0.083 HD
ATOM     12  H   UNL     1       2.877  -2.055  -1.677  0.00  0.00    -0.083 HD
ENDROOT
BRANCH   1  18
ATOM     13  C   UNL     1       0.855  -3.591  -5.058  0.00  0.00    +0.044 C 
ATOM     14  C   UNL     1       2.307  -3.747  -4.684  0.00  0.00    -0.050 A 
ATOM     15  C   UNL     1       3.234  -4.099  -5.647  0.00  0.00    +0.003 A 
ATOM     16  C   UNL     1       4.565  -4.242  -5.304  0.00  0.00    +0.004 A 
ATOM     17  C   UNL     1       4.970  -4.028  -4.000  0.00  0.00    -0.049 A 
ATOM     18  C   UNL     1       4.042  -3.681  -3.036  0.00  0.00    -0.057 A 
ATOM     19  C   UNL     1       2.711  -3.538  -3.379  0.00  0.00    +0.005 A 
ATOM     20  C   UNL     1       6.423  -4.178  -3.628  0.00  0.00    +0.044 C 
ENDBRANCH   1  18
BRANCH   6  21
ATOM     21  C   UNL     1       3.191  -8.239  -0.914  0.00  0.00    +0.036 C 
ATOM     22  C   UNL     1       4.215  -8.792  -1.907  0.00  0.00    +0.031 C 
ATOM     23  C   UNL     1       3.408  -8.885   0.456  0.00  0.00    +0.031 C 
ATOM     24  C   UNL     1       1.778  -8.554  -1.409  0.00  0.00    +0.031 C 
ENDBRANCH   6  21
BRANCH   9  25
ATOM     25  C   UNL     1       3.445  -3.123   1.458  0.00  0.00    +0.346 C 
ATOM     26  O   UNL     1       3.488  -4.075   2.200  0.00  0.00    -0.248 OA
ATOM     27  O   UNL     1       3.980  -1.952   1.837  0.00  0.00    -0.248 OA
ENDBRANCH   9  25
BRANCH   9  28
ATOM     28  C   UNL     1       1.337  -2.773   0.162  0.00  0.00    +0.001 C 
BRANCH  28  29
ATOM     29  C   UNL     1       1.305  -1.266   0.424  0.00  0.00    +0.018 C 
BRANCH  29  30
ATOM     30  C   UNL     1      -0.148  -0.789   0.479  0.00  0.00    +0.105 C 
BRANCH  30  31
ATOM     31  N   UNL     1      -0.179   0.654   0.730  0.00  0.00    -0.300 N 
ATOM     32  C   UNL     1      -1.360   1.298   0.814  0.00  0.00    +0.297 C 
ATOM     33  O   UNL     1      -2.399   0.682   0.681  0.00  0.00    -0.253 OA
ATOM     34  N   UNL     1      -1.388   2.626   1.044  0.00  0.00    -0.313 N 
ATOM     35  H   UNL     1       0.761   1.212   0.849  0.00  0.00    +0.150 HD
ATOM     36  H   UNL     1      -2.352   3.151   1.113  0.00  0.00    +0.146 HD
ATOM     37  H   UNL     1      -0.448   3.183   1.163  0.00  0.00    +0.146 HD
ENDBRANCH  30  31
ENDBRANCH  29  30
ENDBRANCH  28  29
ENDBRANCH   9  28
TORSDOF 7
