REMARK  Name = ZINC63772491
REMARK  6 active torsions:
REMARK  status: ('A' for Active; 'I' for Inactive)
REMARK    1  A    between atoms: N_9  and  C_10
REMARK    2  A    between atoms: C_12  and  O_25
REMARK    3  A    between atoms: C_14  and  O_24
REMARK    4  A    between atoms: C_16  and  O_23
REMARK    5  A    between atoms: C_18  and  C_21
REMARK    6  A    between atoms: C_21  and  O_22
REMARK                            x       y       z     vdW  Elec       q    Type
REMARK                         _______ _______ _______ _____ _____    ______ ____
ROOT
ATOM      1  C   UNL     1       4.903  -0.424  -0.048  0.00  0.00    +0.238 C 
ATOM      2  C   UNL     1       5.235   0.203  -1.405  0.00  0.00    +0.192 C 
ATOM      3  C   UNL     1       4.370   1.451  -1.607  0.00  0.00    +0.178 C 
ATOM      4  C   UNL     1       4.610   2.419  -0.444  0.00  0.00    +0.177 C 
ATOM      5  C   UNL     1       4.302   1.706   0.875  0.00  0.00    +0.177 C 
ATOM      6  O   UNL     1       5.119   0.538   0.986  0.00  0.00    -0.348 OA
ENDROOT
BRANCH   1  15
ATOM      7  C   UNL     1       0.733  -1.010   3.070  0.00  0.00    +0.000 A 
ATOM      8  C   UNL     1       2.002  -0.556   3.381  0.00  0.00    +0.002 A 
ATOM      9  C   UNL     1       2.970  -0.476   2.403  0.00  0.00    +0.023 A 
ATOM     10  C   UNL     1       2.677  -0.852   1.090  0.00  0.00    +0.035 A 
ATOM     11  C   UNL     1       1.402  -1.306   0.789  0.00  0.00    -0.025 A 
ATOM     12  C   UNL     1       0.435  -1.384   1.773  0.00  0.00    +0.005 A 
ATOM     13  C   UNL     1       1.348  -1.646  -0.684  0.00  0.00    +0.056 C 
ATOM     14  C   UNL     1       2.760  -1.331  -1.204  0.00  0.00    +0.112 C 
ATOM     15  N   UNL     1       3.501  -0.849  -0.036  0.00  0.00    -0.302 N 
ENDBRANCH   1  15
BRANCH   4  16
ATOM     16  O   UNL     1       5.974   2.845  -0.452  0.00  0.00    -0.386 OA
ATOM     17  H   UNL     1       6.239   3.302  -1.262  0.00  0.00    +0.210 HD
ENDBRANCH   4  16
BRANCH   3  18
ATOM     18  O   UNL     1       4.723   2.084  -2.838  0.00  0.00    -0.386 OA
ATOM     19  H   UNL     1       4.213   2.882  -3.031  0.00  0.00    +0.210 HD
ENDBRANCH   3  18
BRANCH   2  20
ATOM     20  O   UNL     1       6.616   0.568  -1.437  0.00  0.00    -0.385 OA
ATOM     21  H   UNL     1       6.897   0.973  -2.269  0.00  0.00    +0.210 HD
ENDBRANCH   2  20
BRANCH   5  22
ATOM     22  C   UNL     1       4.597   2.648   2.045  0.00  0.00    +0.190 C 
BRANCH  22  23
ATOM     23  O   UNL     1       4.201   2.025   3.269  0.00  0.00    -0.392 OA
ATOM     24  H   UNL     1       4.359   2.567   4.054  0.00  0.00    +0.210 HD
ENDBRANCH  22  23
ENDBRANCH   5  22
TORSDOF 6
