REMARK  Name = ZINC55021070
REMARK  7 active torsions:
REMARK  status: ('A' for Active; 'I' for Inactive)
REMARK    1  A    between atoms: C_4  and  C_7
REMARK    2  A    between atoms: C_7  and  C_9
REMARK    3  A    between atoms: C_7  and  N_14
REMARK    4  A    between atoms: C_9  and  C_10
REMARK    5  A    between atoms: N_11  and  O_12
REMARK    6  A    between atoms: C_18  and  C_21
REMARK    7  A    between atoms: C_21  and  O_22
REMARK                            x       y       z     vdW  Elec       q    Type
REMARK                         _______ _______ _______ _____ _____    ______ ____
ROOT
ATOM      1  C   UNL     1       3.675  -0.699  -0.028  0.00  0.00    -0.030 C 
ENDROOT
BRANCH   1   2
ATOM      2  N   UNL     1       3.766  -1.875   0.847  0.00  0.00    +0.385 N 
ATOM      3  C   UNL     1       3.313  -1.515   2.196  0.00  0.00    -0.078 C 
ATOM      4  C   UNL     1       3.330  -2.756   3.091  0.00  0.00    -0.018 C 
ATOM      5  C   UNL     1       4.756  -3.311   3.160  0.00  0.00    +0.002 C 
ATOM      6  C   UNL     1       5.245  -3.612   1.741  0.00  0.00    -0.002 C 
ATOM      7  C   UNL     1       5.157  -2.340   0.896  0.00  0.00    -0.072 C 
ATOM      8  H   UNL     1       3.179  -2.610   0.483  0.00  0.00    -0.081 HD
BRANCH   6   9
ATOM      9  C   UNL     1       6.696  -4.094   1.792  0.00  0.00    +0.157 C 
BRANCH   9  10
ATOM     10  O   UNL     1       6.759  -5.342   2.486  0.00  0.00    -0.395 OA
ATOM     11  H   UNL     1       7.652  -5.707   2.557  0.00  0.00    +0.209 HD
ENDBRANCH   9  10
ENDBRANCH   6   9
ENDBRANCH   1   2
BRANCH   1  15
ATOM     12  C   UNL     1      -0.339   0.763  -0.037  0.00  0.00    +0.000 A 
ATOM     13  C   UNL     1       0.720   1.651  -0.017  0.00  0.00    +0.000 A 
ATOM     14  C   UNL     1       2.018   1.178  -0.014  0.00  0.00    +0.002 A 
ATOM     15  C   UNL     1       2.259  -0.183  -0.031  0.00  0.00    -0.061 A 
ATOM     16  C   UNL     1       1.200  -1.071  -0.050  0.00  0.00    +0.002 A 
ATOM     17  C   UNL     1      -0.099  -0.598  -0.055  0.00  0.00    +0.000 A 
ENDBRANCH   1  15
BRANCH   1  18
ATOM     18  C   UNL     1       4.077  -1.089  -1.451  0.00  0.00    +0.064 C 
BRANCH  18  19
ATOM     19  C   UNL     1       4.146   0.146  -2.311  0.00  0.00    +0.130 C 
ATOM     20  N   UNL     1       4.001   1.314  -1.777  0.00  0.00    -0.077 NA
ATOM     21  N   UNL     1       4.364   0.031  -3.666  0.00  0.00    -0.344 N 
ATOM     22  H   UNL     1       4.473  -0.845  -4.067  0.00  0.00    +0.143 HD
ATOM     23  H   UNL     1       4.409   0.827  -4.220  0.00  0.00    +0.143 HD
BRANCH  20  24
ATOM     24  O   UNL     1       4.066   2.475  -2.585  0.00  0.00    -0.408 OA
ATOM     25  H   UNL     1       3.946   3.301  -2.097  0.00  0.00    +0.328 HD
ENDBRANCH  20  24
ENDBRANCH  18  19
ENDBRANCH   1  18
TORSDOF 7
