REMARK  Name = ZINC35370315
REMARK  7 active torsions:
REMARK  status: ('A' for Active; 'I' for Inactive)
REMARK    1  A    between atoms: C_1  and  C_2
REMARK    2  A    between atoms: C_2  and  O_3
REMARK    3  A    between atoms: O_3  and  C_4
REMARK    4  A    between atoms: C_7  and  N_10
REMARK    5  A    between atoms: C_20  and  C_24
REMARK    6  A    between atoms: N_26  and  C_27
REMARK    7  A    between atoms: C_27  and  C_28
REMARK                            x       y       z     vdW  Elec       q    Type
REMARK                         _______ _______ _______ _____ _____    ______ ____
ROOT
ATOM      1  N   UNL     1       1.160  -5.942  -1.808  0.00  0.00    -0.269 N 
ATOM      2  C   UNL     1       1.635  -6.441  -2.966  0.00  0.00    +0.306 C 
ATOM      3  O   UNL     1       2.051  -5.689  -3.826  0.00  0.00    -0.252 OA
ATOM      4  N   UNL     1       1.648  -7.773  -3.171  0.00  0.00    -0.285 N 
ATOM      5  C   UNL     1       0.984  -8.681  -2.226  0.00  0.00    +0.109 C 
ATOM      6  C   UNL     1      -0.005  -9.560  -3.003  0.00  0.00    +0.017 C 
ATOM      7  C   UNL     1       0.717 -10.237  -4.158  0.00  0.00    -0.016 C 
ATOM      8  C   UNL     1       1.332  -9.222  -5.108  0.00  0.00    +0.017 C 
ATOM      9  C   UNL     1       2.323  -8.341  -4.346  0.00  0.00    +0.109 C 
ATOM     10  N   UNL     1       1.736 -11.186  -3.663  0.00  0.00    +0.397 N 
ATOM     11  C   UNL     1       1.174 -12.534  -3.444  0.00  0.00    +0.028 C 
ATOM     12  C   UNL     1       0.346 -12.942  -4.700  0.00  0.00    +0.061 C 
ATOM     13  S   UNL     1      -0.451 -11.319  -5.072  0.00  0.00    -0.174 S 
ATOM     14  H   UNL     1       0.948  -6.539  -1.073  0.00  0.00    +0.156 HD
ATOM     15  H   UNL     1       2.482 -11.248  -4.339  0.00  0.00    -0.083 HD
ATOM     16  H   UNL     1       2.111 -10.841  -2.792  0.00  0.00    -0.083 HD
ENDROOT
BRANCH   1  20
ATOM     17  C   UNL     1       0.603  -1.831  -1.379  0.00  0.00    +0.121 A 
ATOM     18  C   UNL     1      -0.118  -2.715  -0.589  0.00  0.00    +0.047 A 
ATOM     19  C   UNL     1       0.066  -4.076  -0.730  0.00  0.00    +0.027 A 
ATOM     20  C   UNL     1       0.972  -4.561  -1.664  0.00  0.00    +0.035 A 
ATOM     21  C   UNL     1       1.693  -3.676  -2.455  0.00  0.00    +0.027 A 
ATOM     22  C   UNL     1       1.504  -2.315  -2.316  0.00  0.00    +0.047 A 
BRANCH  17  23
ATOM     23  O   UNL     1       0.421  -0.491  -1.239  0.00  0.00    -0.492 OA
BRANCH  23  25
ATOM     24  C   UNL     1      -0.591   1.465  -0.244  0.00  0.00    +0.048 C 
ATOM     25  C   UNL     1      -0.523  -0.063  -0.256  0.00  0.00    +0.225 C 
ENDBRANCH  23  25
ENDBRANCH  17  23
ENDBRANCH   1  20
BRANCH  11  26
ATOM     26  C   UNL     1       2.293 -13.521  -3.235  0.00  0.00    +0.200 C 
ATOM     27  O   UNL     1       3.446 -13.146  -3.265  0.00  0.00    -0.278 OA
ATOM     28  N   UNL     1       2.013 -14.821  -3.015  0.00  0.00    -0.313 N 
ATOM     29  H   UNL     1       1.091 -15.121  -2.991  0.00  0.00    +0.149 HD
BRANCH  28  30
ATOM     30  C   UNL     1       3.101 -15.781  -2.813  0.00  0.00    +0.139 C 
BRANCH  30  31
ATOM     31  C   UNL     1       2.524 -17.155  -2.589  0.00  0.00    -0.027 A 
ATOM     32  C   UNL     1       2.217 -17.574  -1.308  0.00  0.00    +0.009 A 
ATOM     33  C   UNL     1       1.687 -18.834  -1.098  0.00  0.00    +0.050 A 
ATOM     34  C   UNL     1       1.462 -19.679  -2.172  0.00  0.00    +0.166 A 
ATOM     35  C   UNL     1       1.770 -19.256  -3.463  0.00  0.00    +0.167 A 
ATOM     36  C   UNL     1       2.296 -17.991  -3.666  0.00  0.00    +0.054 A 
ATOM     37  O   UNL     1       1.460 -20.259  -4.336  0.00  0.00    -0.453 OA
ATOM     38  C   UNL     1       1.342 -21.447  -3.531  0.00  0.00    +0.466 C 
ATOM     39  O   UNL     1       0.958 -20.946  -2.236  0.00  0.00    -0.453 OA
ENDBRANCH  30  31
ENDBRANCH  28  30
ENDBRANCH  11  26
TORSDOF 6
