REMARK  Name = ZINC66139113
REMARK  7 active torsions:
REMARK  status: ('A' for Active; 'I' for Inactive)
REMARK    1  A    between atoms: C_1  and  C_2
REMARK    2  A    between atoms: C_3  and  C_19
REMARK    3  A    between atoms: C_4  and  C_9
REMARK    4  A    between atoms: C_9  and  O_10
REMARK    5  A    between atoms: O_10  and  C_11
REMARK    6  A    between atoms: N_21  and  C_22
REMARK    7  A    between atoms: N_21  and  C_23
REMARK                            x       y       z     vdW  Elec       q    Type
REMARK                         _______ _______ _______ _____ _____    ______ ____
ROOT
ATOM      1  C   UNL     1      -0.018   1.503   0.010  0.00  0.00    +0.066 C 
ATOM      2  C   UNL     1       0.002  -0.004   0.002  0.00  0.00    +0.056 A 
ATOM      3  C   UNL     1       0.006  -0.709  -1.209  0.00  0.00    +0.083 A 
ATOM      4  C   UNL     1       0.026  -2.108  -1.163  0.00  0.00    +0.096 A 
ATOM      5  N   UNL     1       0.040  -2.709   0.012  0.00  0.00    -0.215 NA
ATOM      6  C   UNL     1       0.035  -2.006   1.137  0.00  0.00    +0.213 A 
ATOM      7  N   UNL     1       0.022  -0.680   1.135  0.00  0.00    -0.219 NA
ATOM      8  N   UNL     1       0.051  -2.674   2.344  0.00  0.00    -0.327 N 
ATOM      9  H   UNL     1       0.064  -3.644   2.362  0.00  0.00    +0.145 HD
ATOM     10  H   UNL     1       0.048  -2.174   3.175  0.00  0.00    +0.145 HD
ENDROOT
BRANCH   3  11
ATOM     11  C   UNL     1      -0.011   0.006  -2.500  0.00  0.00    +0.250 C 
ATOM     12  O   UNL     1       1.036   0.315  -3.038  0.00  0.00    -0.270 OA
ATOM     13  N   UNL     1      -1.185   0.315  -3.084  0.00  0.00    -0.304 N 
ATOM     14  C   UNL     1      -1.202   1.024  -4.366  0.00  0.00    +0.132 C 
ATOM     15  C   UNL     1      -2.446  -0.058  -2.437  0.00  0.00    +0.132 C 
ENDBRANCH   3  11
BRANCH   4  16
ATOM     16  C   UNL     1       0.030  -2.916  -2.435  0.00  0.00    +0.285 C 
BRANCH  16  17
ATOM     17  O   UNL     1       1.379  -3.153  -2.844  0.00  0.00    -0.485 OA
BRANCH  17  18
ATOM     18  C   UNL     1       1.561  -3.873  -3.983  0.00  0.00    +0.135 A 
ATOM     19  C   UNL     1       0.465  -4.336  -4.694  0.00  0.00    +0.048 A 
ATOM     20  C   UNL     1       0.652  -5.067  -5.851  0.00  0.00    +0.019 A 
ATOM     21  C   UNL     1       1.932  -5.337  -6.301  0.00  0.00    +0.019 A 
ATOM     22  C   UNL     1       3.027  -4.876  -5.593  0.00  0.00    +0.034 A 
ATOM     23  C   UNL     1       2.845  -4.139  -4.438  0.00  0.00    +0.061 A 
ATOM     24 BR   UNL     1       4.342  -3.502  -3.475  0.00  0.00    -0.046 Br
ATOM     25 BR   UNL     1       2.185  -6.338  -7.886  0.00  0.00    -0.050 Br
ENDBRANCH  17  18
ENDBRANCH  16  17
ENDBRANCH   4  16
TORSDOF 4
