REMARK  Name = ZINC64870565
REMARK  6 active torsions:
REMARK  status: ('A' for Active; 'I' for Inactive)
REMARK    1  A    between atoms: C_1  and  C_2
REMARK    2  A    between atoms: C_2  and  C_3
REMARK    3  A    between atoms: C_3  and  C_4
REMARK    4  A    between atoms: C_4  and  N_5
REMARK    5  A    between atoms: C_11  and  C_18
REMARK    6  A    between atoms: C_21  and  C_25
REMARK                            x       y       z     vdW  Elec       q    Type
REMARK                         _______ _______ _______ _____ _____    ______ ____
ROOT
ATOM      1  N   UNL     1       1.197  -2.359   2.836  0.00  0.00    -0.261 N 
ATOM      2  C   UNL     1       2.513  -2.619   2.680  0.00  0.00    +0.264 A 
ATOM      3  O   UNL     1       3.059  -2.451   1.607  0.00  0.00    -0.267 OA
ATOM      4  C   UNL     1       3.269  -3.113   3.845  0.00  0.00    +0.063 A 
ATOM      5  C   UNL     1       4.629  -3.405   3.765  0.00  0.00    +0.016 A 
ATOM      6  C   UNL     1       5.292  -3.864   4.883  0.00  0.00    +0.008 A 
ATOM      7  C   UNL     1       4.614  -4.036   6.080  0.00  0.00    -0.000 A 
ATOM      8  C   UNL     1       3.266  -3.751   6.173  0.00  0.00    +0.034 A 
ATOM      9  C   UNL     1       2.583  -3.288   5.059  0.00  0.00    +0.056 A 
ATOM     10  N   UNL     1       1.229  -2.989   5.109  0.00  0.00    -0.307 N 
ATOM     11  H   UNL     1       0.742  -3.104   5.940  0.00  0.00    +0.170 HD
ATOM     12  C   UNL     1       0.586  -2.537   4.018  0.00  0.00    +0.330 A 
ATOM     13  O   UNL     1      -0.599  -2.282   4.105  0.00  0.00    -0.246 OA
ENDROOT
BRANCH   7  14
ATOM     14  C   UNL     1       5.355  -4.540   7.292  0.00  0.00    +0.242 C 
ATOM     15  N   UNL     1       6.494  -5.392   6.883  0.00  0.00    -0.265 NA
ATOM     16  C   UNL     1       7.591  -5.099   7.830  0.00  0.00    +0.182 C 
ATOM     17  N   UNL     1       7.057  -4.079   8.763  0.00  0.00    -0.177 NA
ATOM     18  O   UNL     1       5.955  -3.438   8.009  0.00  0.00    -0.274 OA
ATOM     19  H   UNL     1       6.243  -6.369   6.910  0.00  0.00    +0.127 HD
ATOM     20  H   UNL     1       7.768  -3.406   9.008  0.00  0.00    +0.156 HD
BRANCH  16  21
ATOM     21  C   UNL     1       7.973  -6.347   8.584  0.00  0.00    +0.004 A 
ATOM     22  C   UNL     1       7.417  -6.603   9.824  0.00  0.00    +0.008 A 
ATOM     23  C   UNL     1       7.767  -7.747  10.516  0.00  0.00    +0.000 A 
ATOM     24  C   UNL     1       8.674  -8.636   9.969  0.00  0.00    +0.001 A 
ATOM     25  C   UNL     1       9.230  -8.381   8.730  0.00  0.00    +0.020 A 
ATOM     26  C   UNL     1       8.876  -7.239   8.034  0.00  0.00    +0.047 A 
ATOM     27 CL   UNL     1       9.570  -6.921   6.475  0.00  0.00    -0.083 Cl
ENDBRANCH  16  21
ENDBRANCH   7  14
BRANCH   1  28
ATOM     28  C   UNL     1       0.422  -1.866   1.694  0.00  0.00    +0.130 C 
BRANCH  28  29
ATOM     29  C   UNL     1       0.471  -0.337   1.666  0.00  0.00    +0.022 C 
BRANCH  29  31
ATOM     30  C   UNL     1      -0.289   1.706   0.445  0.00  0.00    +0.004 C 
ATOM     31  C   UNL     1      -0.339   0.177   0.474  0.00  0.00    -0.002 C 
ENDBRANCH  29  31
ENDBRANCH  28  29
ENDBRANCH   1  28
TORSDOF 5
