REMARK  Name = ZINC57830280
REMARK  5 active torsions:
REMARK  status: ('A' for Active; 'I' for Inactive)
REMARK    1  A    between atoms: C_1  and  N_2
REMARK    2  A    between atoms: N_4  and  N_5
REMARK    3  A    between atoms: C_6  and  C_7
REMARK    4  A    between atoms: C_10  and  O_15
REMARK    5  A    between atoms: C_12  and  O_13
REMARK                            x       y       z     vdW  Elec       q    Type
REMARK                         _______ _______ _______ _____ _____    ______ ____
ROOT
ATOM      1  C   UNL     1      -1.056  -4.802   0.084  0.00  0.00    +0.039 A 
ATOM      2  C   UNL     1      -1.022  -6.181  -0.139  0.00  0.00    +0.032 A 
ATOM      3  C   UNL     1       0.185  -6.846  -0.153  0.00  0.00    +0.061 A 
ATOM      4  C   UNL     1       1.371  -6.149   0.054  0.00  0.00    +0.148 A 
ATOM      5  C   UNL     1       1.347  -4.780   0.277  0.00  0.00    +0.102 A 
ATOM      6  C   UNL     1       0.141  -4.100   0.287  0.00  0.00    +0.143 A 
ATOM      7 BR   UNL     1       2.963  -3.841   0.559  0.00  0.00    -0.043 Br
ATOM      8 BR   UNL     1       0.229  -8.712  -0.455  0.00  0.00    -0.046 Br
ENDROOT
BRANCH   1  10
ATOM      9  N   UNL     1      -3.434  -4.720   0.408  0.00  0.00    -0.180 NA
ATOM     10  C   UNL     1      -2.344  -4.087   0.100  0.00  0.00    +0.144 C 
BRANCH   9  14
ATOM     11  C   UNL     1      -5.672  -8.738   1.949  0.00  0.00    +0.127 C 
ATOM     12  N   UNL     1      -4.444  -7.975   1.714  0.00  0.00    -0.327 N 
ATOM     13  C   UNL     1      -4.511  -6.719   1.177  0.00  0.00    +0.159 C 
ATOM     14  N   UNL     1      -3.365  -6.007   0.958  0.00  0.00    -0.258 N 
ATOM     15  S   UNL     1      -5.985  -6.059   0.792  0.00  0.00    -0.015 SA
ATOM     16  H   UNL     1      -3.583  -8.361   1.939  0.00  0.00    +0.148 HD
ATOM     17  H   UNL     1      -2.504  -6.393   1.183  0.00  0.00    +0.191 HD
ENDBRANCH   9  14
ENDBRANCH   1  10
BRANCH   6  18
ATOM     18  O   UNL     1       0.116  -2.759   0.499  0.00  0.00    -0.505 OA
ATOM     19  H   UNL     1      -0.033  -2.509   1.421  0.00  0.00    +0.292 HD
ENDBRANCH   6  18
BRANCH   4  20
ATOM     20  O   UNL     1       2.557  -6.812   0.039  0.00  0.00    -0.504 OA
ATOM     21  H   UNL     1       2.968  -6.862  -0.834  0.00  0.00    +0.292 HD
ENDBRANCH   4  20
TORSDOF 4
