REMARK  Name = ZINC36266645
REMARK  6 active torsions:
REMARK  status: ('A' for Active; 'I' for Inactive)
REMARK    1  A    between atoms: C_1  and  C_2
REMARK    2  A    between atoms: C_5  and  S_9
REMARK    3  A    between atoms: S_9  and  N_12
REMARK    4  A    between atoms: N_12  and  C_13
REMARK    5  A    between atoms: C_13  and  C_14
REMARK    6  A    between atoms: C_14  and  N_20
REMARK                            x       y       z     vdW  Elec       q    Type
REMARK                         _______ _______ _______ _____ _____    ______ ____
ROOT
ATOM      1  N   UNL     1       1.558  -5.005   0.505  0.00  0.00    -0.191 NA
ATOM      2  H   UNL     1       2.214  -5.328  -0.132  0.00  0.00    +0.148 HD
ENDROOT
BRANCH   1   3
ATOM      3  S   UNL     1       0.014  -4.671   0.007  0.00  0.00    +0.059 S 
ATOM      4  O   UNL     1      -0.857  -5.342   0.908  0.00  0.00    -0.153 OA
ATOM      5  O   UNL     1      -0.018  -4.899  -1.395  0.00  0.00    -0.153 OA
BRANCH   3  10
ATOM      6  C   UNL     1      -0.884   1.240   0.820  0.00  0.00    +0.044 C 
ATOM      7  C   UNL     1      -0.660  -0.236   0.616  0.00  0.00    -0.049 A 
ATOM      8  C   UNL     1      -1.405  -1.154   1.333  0.00  0.00    +0.005 A 
ATOM      9  C   UNL     1      -1.199  -2.508   1.147  0.00  0.00    +0.030 A 
ATOM     10  C   UNL     1      -0.249  -2.945   0.244  0.00  0.00    +0.119 A 
ATOM     11  C   UNL     1       0.497  -2.027  -0.474  0.00  0.00    +0.044 A 
ATOM     12  C   UNL     1       0.287  -0.672  -0.291  0.00  0.00    +0.020 A 
ATOM     13 BR   UNL     1       1.798  -2.625  -1.709  0.00  0.00    -0.048 Br
ENDBRANCH   3  10
ENDBRANCH   1   3
BRANCH   1  14
ATOM     14  C   UNL     1       1.933  -4.810   1.908  0.00  0.00    +0.093 C 
BRANCH  14  15
ATOM     15  C   UNL     1       3.243  -5.547   2.193  0.00  0.00    -0.057 C 
ATOM     16  C   UNL     1       3.059  -7.040   1.916  0.00  0.00    -0.012 C 
ATOM     17  C   UNL     1       1.956  -7.594   2.820  0.00  0.00    -0.001 C 
ATOM     18  C   UNL     1       2.348  -7.391   4.285  0.00  0.00    -0.000 C 
ATOM     19  C   UNL     1       2.532  -5.898   4.562  0.00  0.00    -0.001 C 
ATOM     20  C   UNL     1       3.635  -5.344   3.658  0.00  0.00    -0.012 C 
BRANCH  15  21
ATOM     21  N   UNL     1       4.302  -5.015   1.325  0.00  0.00    +0.383 N 
ATOM     22  H   UNL     1       4.424  -4.030   1.507  0.00  0.00    -0.089 HD
ATOM     23  H   UNL     1       5.167  -5.501   1.512  0.00  0.00    -0.089 HD
ATOM     24  H   UNL     1       4.044  -5.149   0.358  0.00  0.00    -0.089 HD
ENDBRANCH  15  21
ENDBRANCH  14  15
ENDBRANCH   1  14
TORSDOF 5
