REMARK  Name = ZINC06576419
REMARK  7 active torsions:
REMARK  status: ('A' for Active; 'I' for Inactive)
REMARK    1  A    between atoms: C_9  and  O_26
REMARK    2  A    between atoms: C_10  and  C_11
REMARK    3  A    between atoms: C_11  and  C_13
REMARK    4  A    between atoms: C_11  and  N_15
REMARK    5  A    between atoms: N_15  and  N_16
REMARK    6  A    between atoms: C_17  and  C_19
REMARK    7  A    between atoms: C_24  and  O_25
REMARK                            x       y       z     vdW  Elec       q    Type
REMARK                         _______ _______ _______ _____ _____    ______ ____
ROOT
ATOM      1  C   UNL     1      -1.424   5.995   0.044  0.00  0.00    +0.208 C 
ENDROOT
BRANCH   1  11
ATOM      2  C   UNL     1      -0.013   1.076   0.008  0.00  0.00    +0.001 A 
ATOM      3  C   UNL     1      -1.235   1.746   0.017  0.00  0.00    +0.001 A 
ATOM      4  C   UNL     1      -1.288   3.105   0.030  0.00  0.00    +0.009 A 
ATOM      5  C   UNL     1      -0.095   3.849   0.023  0.00  0.00    -0.009 A 
ATOM      6  C   UNL     1       1.148   3.167   0.008  0.00  0.00    -0.017 A 
ATOM      7  C   UNL     1       1.163   1.762   0.000  0.00  0.00    +0.008 A 
ATOM      8  C   UNL     1       2.342   3.909  -0.000  0.00  0.00    +0.012 A 
ATOM      9  C   UNL     1       2.292   5.268   0.006  0.00  0.00    +0.046 A 
ATOM     10  C   UNL     1       1.067   5.942   0.021  0.00  0.00    +0.123 A 
ATOM     11  C   UNL     1      -0.112   5.253   0.029  0.00  0.00    +0.034 A 
BRANCH  10  12
ATOM     12  O   UNL     1       1.050   7.301   0.028  0.00  0.00    -0.506 OA
ATOM     13  H   UNL     1       1.036   7.698  -0.853  0.00  0.00    +0.292 HD
ENDBRANCH  10  12
ENDBRANCH   1  11
BRANCH   1  14
ATOM     14  C   UNL     1      -1.661   6.543   1.389  0.00  0.00    +0.088 C 
ATOM     15  N   UNL     1      -1.845   6.966   2.428  0.00  0.00    -0.195 NA
ENDBRANCH   1  14
BRANCH   1  16
ATOM     16  N   UNL     1      -1.376   7.093  -0.931  0.00  0.00    -0.219 NA
ATOM     17  H   UNL     1      -0.721   6.891  -1.671  0.00  0.00    +0.146 HD
BRANCH  16  18
ATOM     18  N   UNL     1      -2.619   7.353  -1.435  0.00  0.00    -0.245 N 
ATOM     19  C   UNL     1      -2.784   8.331  -2.348  0.00  0.00    +0.261 C 
ATOM     20  O   UNL     1      -1.827   8.980  -2.723  0.00  0.00    -0.269 OA
ATOM     21  H   UNL     1      -3.382   6.835  -1.136  0.00  0.00    +0.169 HD
BRANCH  19  22
ATOM     22  C   UNL     1      -4.126   8.612  -2.893  0.00  0.00    +0.079 A 
ATOM     23  C   UNL     1      -5.227   7.864  -2.470  0.00  0.00    +0.017 A 
ATOM     24  C   UNL     1      -6.478   8.134  -2.979  0.00  0.00    +0.001 A 
ATOM     25  C   UNL     1      -6.648   9.139  -3.918  0.00  0.00    +0.004 A 
ATOM     26  C   UNL     1      -5.568   9.883  -4.349  0.00  0.00    +0.046 A 
ATOM     27  C   UNL     1      -4.302   9.627  -3.843  0.00  0.00    +0.129 A 
BRANCH  27  28
ATOM     28  O   UNL     1      -3.239  10.357  -4.266  0.00  0.00    -0.506 OA
ATOM     29  H   UNL     1      -2.790   9.986  -5.037  0.00  0.00    +0.292 HD
ENDBRANCH  27  28
ENDBRANCH  19  22
ENDBRANCH  16  18
ENDBRANCH   1  16
TORSDOF 7
