REMARK  Name = ZINC52390973
REMARK  5 active torsions:
REMARK  status: ('A' for Active; 'I' for Inactive)
REMARK    1  A    between atoms: C_1  and  C_2
REMARK    2  A    between atoms: C_5  and  C_8
REMARK    3  A    between atoms: C_13  and  N_17
REMARK    4  A    between atoms: C_20  and  C_23
REMARK    5  A    between atoms: C_23  and  C_24
REMARK                            x       y       z     vdW  Elec       q    Type
REMARK                         _______ _______ _______ _____ _____    ______ ____
ROOT
ATOM      1  C   UNL     1       0.353  -4.256  -0.375  0.00  0.00    +0.002 A 
ATOM      2  C   UNL     1      -0.476  -4.955  -1.185  0.00  0.00    +0.056 A 
ATOM      3  S   UNL     1      -0.118  -6.654  -0.781  0.00  0.00    -0.076 S 
ATOM      4  C   UNL     1       1.127  -6.393   0.455  0.00  0.00    +0.114 A 
ATOM      5  C   UNL     1       1.240  -4.989   0.523  0.00  0.00    +0.055 A 
ATOM      6  C   UNL     1       2.194  -4.498   1.454  0.00  0.00    +0.133 A 
ATOM      7  N   UNL     1       2.897  -5.359   2.173  0.00  0.00    -0.220 NA
ATOM      8  C   UNL     1       2.742  -6.665   2.054  0.00  0.00    +0.224 A 
ATOM      9  N   UNL     1       1.865  -7.179   1.213  0.00  0.00    -0.228 NA
ENDROOT
BRANCH   1  14
ATOM     10  C   UNL     1       0.396   1.500  -0.489  0.00  0.00    +0.044 C 
ATOM     11  C   UNL     1       0.385  -0.006  -0.459  0.00  0.00    -0.050 A 
ATOM     12  C   UNL     1       0.684  -0.720  -1.605  0.00  0.00    +0.004 A 
ATOM     13  C   UNL     1       0.675  -2.100  -1.584  0.00  0.00    +0.009 A 
ATOM     14  C   UNL     1       0.365  -2.774  -0.404  0.00  0.00    -0.017 A 
ATOM     15  C   UNL     1       0.065  -2.049   0.749  0.00  0.00    +0.009 A 
ATOM     16  C   UNL     1       0.081  -0.670   0.716  0.00  0.00    +0.004 A 
ENDBRANCH   1  14
BRANCH   6  17
ATOM     17  N   UNL     1       2.386  -3.137   1.607  0.00  0.00    -0.315 N 
ATOM     18  C   UNL     1       3.114  -2.364   0.590  0.00  0.00    +0.107 C 
ATOM     19  C   UNL     1       4.247  -1.593   1.274  0.00  0.00    +0.023 C 
ATOM     20  C   UNL     1       3.670  -0.748   2.412  0.00  0.00    +0.001 C 
ATOM     21  C   UNL     1       3.014  -1.664   3.448  0.00  0.00    +0.023 C 
ATOM     22  C   UNL     1       1.862  -2.435   2.787  0.00  0.00    +0.107 C 
BRANCH  20  23
ATOM     23  C   UNL     1       4.794   0.050   3.075  0.00  0.00    +0.099 C 
BRANCH  23  24
ATOM     24  C   UNL     1       4.210   0.974   4.113  0.00  0.00    +0.211 C 
ATOM     25  O   UNL     1       3.012   0.992   4.303  0.00  0.00    -0.276 OA
ATOM     26  N   UNL     1       5.018   1.780   4.830  0.00  0.00    -0.329 N 
ATOM     27  H   UNL     1       5.976   1.765   4.677  0.00  0.00    +0.145 HD
ATOM     28  H   UNL     1       4.642   2.374   5.497  0.00  0.00    +0.145 HD
ENDBRANCH  23  24
ENDBRANCH  20  23
ENDBRANCH   6  17
TORSDOF 4
