REMARK  Name = ZINC36532538
REMARK  8 active torsions:
REMARK  status: ('A' for Active; 'I' for Inactive)
REMARK    1  A    between atoms: C_4  and  S_10
REMARK    2  A    between atoms: C_5  and  N_7
REMARK    3  A    between atoms: S_10  and  C_11
REMARK    4  A    between atoms: C_13  and  O_26
REMARK    5  A    between atoms: C_15  and  O_25
REMARK    6  A    between atoms: C_17  and  O_24
REMARK    7  A    between atoms: C_19  and  C_22
REMARK    8  A    between atoms: C_22  and  O_23
REMARK                            x       y       z     vdW  Elec       q    Type
REMARK                         _______ _______ _______ _____ _____    ______ ____
ROOT
ATOM      1  C   UNL     1       5.179   0.497  -0.047  0.00  0.00    +0.212 C 
ATOM      2  C   UNL     1       6.563  -0.101  -0.315  0.00  0.00    +0.185 C 
ATOM      3  C   UNL     1       7.612   1.014  -0.258  0.00  0.00    +0.177 C 
ATOM      4  C   UNL     1       7.532   1.706   1.105  0.00  0.00    +0.176 C 
ATOM      5  C   UNL     1       6.111   2.235   1.318  0.00  0.00    +0.176 C 
ATOM      6  O   UNL     1       5.182   1.153   1.222  0.00  0.00    -0.355 OA
ENDROOT
BRANCH   4   7
ATOM      7  O   UNL     1       8.458   2.794   1.143  0.00  0.00    -0.386 OA
ATOM      8  H   UNL     1       9.379   2.532   1.011  0.00  0.00    +0.210 HD
ENDBRANCH   4   7
BRANCH   3   9
ATOM      9  O   UNL     1       8.915   0.454  -0.436  0.00  0.00    -0.386 OA
ATOM     10  H   UNL     1       9.033  -0.007  -1.278  0.00  0.00    +0.210 HD
ENDBRANCH   3   9
BRANCH   2  11
ATOM     11  O   UNL     1       6.579  -0.709  -1.608  0.00  0.00    -0.386 OA
ATOM     12  H   UNL     1       5.935  -1.422  -1.716  0.00  0.00    +0.210 HD
ENDBRANCH   2  11
BRANCH   1  13
ATOM     13  S   UNL     1       3.939  -0.827  -0.042  0.00  0.00    -0.089 S 
BRANCH  13  17
ATOM     14  C   UNL     1      -0.017   1.379   0.010  0.00  0.00    +0.002 A 
ATOM     15  C   UNL     1       1.170   2.090   0.002  0.00  0.00    +0.001 A 
ATOM     16  C   UNL     1       2.377   1.421  -0.013  0.00  0.00    +0.017 A 
ATOM     17  C   UNL     1       2.400   0.031  -0.021  0.00  0.00    +0.041 A 
ATOM     18  C   UNL     1       1.206  -0.680  -0.013  0.00  0.00    +0.140 A 
ATOM     19  C   UNL     1       0.002  -0.004   0.002  0.00  0.00    +0.034 A 
BRANCH  18  20
ATOM     20  N   UNL     1       1.225  -2.160  -0.022  0.00  0.00    +0.058 N 
ATOM     21  O   UNL     1       0.186  -2.778  -0.015  0.00  0.00    -0.126 OA
ATOM     22  O   UNL     1       2.280  -2.751  -0.036  0.00  0.00    -0.126 OA
ENDBRANCH  18  20
ENDBRANCH  13  17
ENDBRANCH   1  13
BRANCH   5  23
ATOM     23  C   UNL     1       6.007   2.876   2.704  0.00  0.00    +0.190 C 
BRANCH  23  24
ATOM     24  O   UNL     1       4.717   3.471   2.857  0.00  0.00    -0.392 OA
ATOM     25  H   UNL     1       4.580   3.897   3.714  0.00  0.00    +0.210 HD
ENDBRANCH  23  24
ENDBRANCH   5  23
TORSDOF 8
