REMARK  Name = ZINC48664229
REMARK  8 active torsions:
REMARK  status: ('A' for Active; 'I' for Inactive)
REMARK    1  A    between atoms: C_1  and  C_2
REMARK    2  A    between atoms: C_5  and  C_19
REMARK    3  A    between atoms: C_7  and  N_8
REMARK    4  A    between atoms: C_9  and  C_11
REMARK    5  A    between atoms: N_13  and  C_14
REMARK    6  A    between atoms: C_14  and  C_15
REMARK    7  A    between atoms: C_15  and  C_17
REMARK    8  A    between atoms: C_15  and  O_18
REMARK                            x       y       z     vdW  Elec       q    Type
REMARK                         _______ _______ _______ _____ _____    ______ ____
ROOT
ATOM      1  C   UNL     1      -0.092   1.478   0.119  0.00  0.00    +0.045 C 
ATOM      2  C   UNL     1       0.011  -0.018  -0.027  0.00  0.00    -0.029 A 
ATOM      3  C   UNL     1       0.047  -0.586  -1.287  0.00  0.00    +0.006 A 
ATOM      4  C   UNL     1       0.142  -1.956  -1.428  0.00  0.00    +0.012 A 
ATOM      5  C   UNL     1       0.201  -2.772  -0.298  0.00  0.00    +0.021 A 
ATOM      6  C   UNL     1       0.164  -2.200   0.972  0.00  0.00    +0.035 A 
ATOM      7  C   UNL     1       0.074  -0.822   1.105  0.00  0.00    +0.037 A 
ENDROOT
BRANCH   5   8
ATOM      8  C   UNL     1       0.301  -4.241  -0.448  0.00  0.00    +0.164 A 
ATOM      9  N   UNL     1       0.711  -5.096   0.465  0.00  0.00    -0.129 NA
ATOM     10  N   UNL     1       0.662  -6.293  -0.008  0.00  0.00    -0.134 NA
ATOM     11  C   UNL     1       0.220  -6.269  -1.234  0.00  0.00    +0.134 A 
ATOM     12  N   UNL     1      -0.018  -4.970  -1.556  0.00  0.00    -0.311 N 
ATOM     13  C   UNL     1      -0.501  -4.465  -2.841  0.00  0.00    +0.125 C 
ATOM     14  C   UNL     1      -1.350  -5.542  -3.522  0.00  0.00    +0.022 C 
ATOM     15  C   UNL     1      -0.456  -6.435  -4.382  0.00  0.00    +0.002 C 
ATOM     16  C   UNL     1       0.582  -7.144  -3.518  0.00  0.00    +0.008 C 
ATOM     17  C   UNL     1      -0.007  -7.448  -2.144  0.00  0.00    +0.076 C 
ENDBRANCH   5   8
BRANCH   7  18
ATOM     18  N   UNL     1       0.043  -0.243   2.376  0.00  0.00    -0.277 N 
ATOM     19  C   UNL     1      -0.413  -0.952   3.429  0.00  0.00    +0.303 C 
ATOM     20  O   UNL     1      -0.729  -2.115   3.286  0.00  0.00    -0.265 OA
ATOM     21  H   UNL     1       0.348   0.669   2.502  0.00  0.00    +0.155 HD
BRANCH  19  22
ATOM     22  C   UNL     1      -0.528  -0.305   4.770  0.00  0.00    +0.299 C 
ATOM     23  O   UNL     1      -0.211   0.857   4.913  0.00  0.00    -0.265 OA
ATOM     24  N   UNL     1      -0.983  -1.014   5.822  0.00  0.00    -0.305 N 
ATOM     25  H   UNL     1      -1.236  -1.944   5.708  0.00  0.00    +0.149 HD
BRANCH  24  26
ATOM     26  C   UNL     1      -1.096  -0.381   7.138  0.00  0.00    +0.135 C 
BRANCH  26  27
ATOM     27  C   UNL     1      -1.634  -1.396   8.149  0.00  0.00    +0.128 C 
ATOM     28  C   UNL     1      -1.752  -0.734   9.523  0.00  0.00    +0.039 C 
BRANCH  27  29
ATOM     29  O   UNL     1      -2.921  -1.851   7.728  0.00  0.00    -0.391 OA
ATOM     30  H   UNL     1      -3.581  -1.149   7.650  0.00  0.00    +0.210 HD
ENDBRANCH  27  29
ENDBRANCH  26  27
ENDBRANCH  24  26
ENDBRANCH  19  22
ENDBRANCH   7  18
TORSDOF 6
