REMARK  Name = ZINC03648038
REMARK  5 active torsions:
REMARK  status: ('A' for Active; 'I' for Inactive)
REMARK    1  A    between atoms: C_4  and  O_7
REMARK    2  A    between atoms: O_7  and  C_8
REMARK    3  A    between atoms: N_10  and  C_11
REMARK    4  A    between atoms: C_11  and  C_12
REMARK    5  A    between atoms: C_18  and  C_20
REMARK                            x       y       z     vdW  Elec       q    Type
REMARK                         _______ _______ _______ _____ _____    ______ ____
ROOT
ATOM      1  C   UNL     1       3.474  -1.604  -2.355  0.00  0.00    +0.401 C 
ATOM      2  O   UNL     1       3.474  -2.221  -1.308  0.00  0.00    -0.226 OA
ATOM      3  N   UNL     1       4.125  -2.095  -3.428  0.00  0.00    -0.273 N 
ATOM      4  H   UNL     1       4.125  -1.603  -4.263  0.00  0.00    +0.153 HD
ENDROOT
BRANCH   1   5
ATOM      5  O   UNL     1       2.822  -0.429  -2.443  0.00  0.00    -0.447 OA
BRANCH   5   9
ATOM      6  C   UNL     1      -0.019   1.526   0.010  0.00  0.00    +0.000 C 
ATOM      7  C   UNL     1       1.417   2.055  -0.000  0.00  0.00    +0.004 C 
ATOM      8  C   UNL     1       2.133   1.562  -1.259  0.00  0.00    +0.045 C 
ATOM      9  C   UNL     1       2.154   0.032  -1.268  0.00  0.00    +0.178 C 
ATOM     10  C   UNL     1       0.718  -0.497  -1.257  0.00  0.00    +0.045 C 
ATOM     11  C   UNL     1       0.002  -0.004   0.002  0.00  0.00    +0.004 C 
ENDBRANCH   5   9
ENDBRANCH   1   5
BRANCH   3  12
ATOM     12  C   UNL     1       4.834  -3.374  -3.332  0.00  0.00    +0.203 C 
BRANCH  12  13
ATOM     13  C   UNL     1       5.473  -3.695  -4.658  0.00  0.00    +0.234 C 
ATOM     14  O   UNL     1       5.349  -2.931  -5.592  0.00  0.00    -0.274 OA
ATOM     15  N   UNL     1       6.183  -4.831  -4.807  0.00  0.00    -0.287 N 
ATOM     16  C   UNL     1       6.407  -5.847  -3.763  0.00  0.00    +0.109 C 
ATOM     17  C   UNL     1       6.696  -7.156  -4.538  0.00  0.00    +0.021 C 
ATOM     18  C   UNL     1       7.516  -6.629  -5.745  0.00  0.00    +0.035 C 
ATOM     19  C   UNL     1       6.856  -5.265  -6.040  0.00  0.00    +0.189 C 
BRANCH  19  20
ATOM     20  C   UNL     1       7.911  -4.262  -6.429  0.00  0.00    +0.376 C 
ATOM     21  O   UNL     1       8.480  -3.611  -5.569  0.00  0.00    -0.244 OA
ATOM     22  O   UNL     1       8.195  -4.100  -7.604  0.00  0.00    -0.244 OA
ENDBRANCH  19  20
ENDBRANCH  12  13
ENDBRANCH   3  12
TORSDOF 5
