REMARK  Name = ZINC12581157
REMARK  7 active torsions:
REMARK  status: ('A' for Active; 'I' for Inactive)
REMARK    1  A    between atoms: C_5  and  C_6
REMARK    2  A    between atoms: C_6  and  N_58
REMARK    3  A    between atoms: C_7  and  C_8
REMARK    4  A    between atoms: C_7  and  N_58
REMARK    5  A    between atoms: C_13  and  N_60
REMARK    6  A    between atoms: C_18  and  C_19
REMARK    7  A    between atoms: C_18  and  N_58
REMARK                            x       y       z     vdW  Elec       q    Type
REMARK                         _______ _______ _______ _____ _____    ______ ____
ROOT
ATOM      1  N   UNL     1      -0.742   3.452   1.284  0.00  0.00    +0.385 N 
ATOM      2  H   UNL     1       0.195   3.743   0.982  0.00  0.00    -0.081 HD
ENDROOT
BRANCH   1   3
ATOM      3  C   UNL     1      -1.738   3.966   0.321  0.00  0.00    -0.035 C 
BRANCH   3   8
ATOM      4  C   UNL     1      -0.709   6.078  -0.754  0.00  0.00    +0.011 A 
ATOM      5  C   UNL     1      -0.665   7.460  -0.751  0.00  0.00    +0.028 A 
ATOM      6  C   UNL     1      -1.422   8.139   0.147  0.00  0.00    +0.078 A 
ATOM      7  S   UNL     1      -2.237   6.813   1.021  0.00  0.00    -0.084 S 
ATOM      8  C   UNL     1      -1.515   5.444   0.131  0.00  0.00    -0.025 A 
ATOM      9 CL   UNL     1      -1.561   9.853   0.386  0.00  0.00    -0.076 Cl
ENDBRANCH   3   8
ENDBRANCH   1   3
BRANCH   1  10
ATOM     10  C   UNL     1      -0.796   1.976   1.328  0.00  0.00    -0.075 C 
BRANCH  10  11
ATOM     11  C   UNL     1      -0.082   1.422   0.093  0.00  0.00    -0.031 C 
ATOM     12  C   UNL     1       1.403   1.794   0.150  0.00  0.00    -0.017 C 
ATOM     13  C   UNL     1       2.123   1.187  -1.056  0.00  0.00    -0.078 C 
ATOM     14  C   UNL     1       0.550  -0.655  -1.139  0.00  0.00    -0.078 C 
ATOM     15  C   UNL     1      -0.217  -0.102   0.064  0.00  0.00    -0.017 C 
ATOM     16  N   UNL     1       1.975  -0.284  -1.012  0.00  0.00    +0.382 N 
ATOM     17  H   UNL     1       2.329  -0.627  -0.111  0.00  0.00    -0.081 HD
BRANCH  16  18
ATOM     18  C   UNL     1       2.757  -0.902  -2.102  0.00  0.00    -0.069 C 
ATOM     19  C   UNL     1       2.717  -2.437  -1.955  0.00  0.00    -0.015 C 
ATOM     20  C   UNL     1       4.141  -2.895  -2.355  0.00  0.00    -0.002 C 
ATOM     21  C   UNL     1       5.038  -1.785  -1.754  0.00  0.00    -0.002 C 
ATOM     22  C   UNL     1       4.234  -0.487  -1.974  0.00  0.00    -0.015 C 
ENDBRANCH  16  18
ENDBRANCH  10  11
ENDBRANCH   1  10
BRANCH   1  23
ATOM     23  C   UNL     1      -1.006   4.007   2.628  0.00  0.00    -0.046 C 
BRANCH  23  24
ATOM     24  C   UNL     1       0.256   3.854   3.479  0.00  0.00    +0.102 C 
ATOM     25  C   UNL     1       0.023   4.427   4.895  0.00  0.00    +0.032 C 
ATOM     26  C   UNL     1       1.372   5.086   5.259  0.00  0.00    +0.030 C 
ATOM     27  C   UNL     1       2.261   4.833   4.021  0.00  0.00    +0.160 C 
ATOM     28  O   UNL     1       1.332   4.646   2.930  0.00  0.00    -0.378 OA
ENDBRANCH  23  24
ENDBRANCH   1  23
TORSDOF 7
