REMARK  Name = ZINC08964928
REMARK  7 active torsions:
REMARK  status: ('A' for Active; 'I' for Inactive)
REMARK    1  A    between atoms: C_1  and  C_2
REMARK    2  A    between atoms: C_7  and  N_8
REMARK    3  A    between atoms: C_13  and  C_14
REMARK    4  A    between atoms: C_13  and  N_67
REMARK    5  A    between atoms: C_25  and  C_32
REMARK    6  A    between atoms: C_27  and  C_31
REMARK    7  A    between atoms: C_28  and  O_30
REMARK                            x       y       z     vdW  Elec       q    Type
REMARK                         _______ _______ _______ _____ _____    ______ ____
ROOT
ATOM      1  C   UNL     1       3.728  -3.014  -1.439  0.00  0.00    +0.090 C 
ATOM      2  C   UNL     1       3.400  -1.913  -0.419  0.00  0.00    +0.071 C 
ATOM      3  C   UNL     1       2.067  -2.386   0.171  0.00  0.00    +0.187 C 
ATOM      4  C   UNL     1       0.887  -1.930  -0.701  0.00  0.00    +0.076 C 
ATOM      5  C   UNL     1       1.012  -0.428  -0.864  0.00  0.00    -0.061 C 
ATOM      6  C   UNL     1       0.071   0.320  -0.374  0.00  0.00    -0.027 C 
ATOM      7  C   UNL     1       0.117   1.822  -0.441  0.00  0.00    +0.027 C 
ATOM      8  C   UNL     1       1.598   2.232  -0.431  0.00  0.00    +0.008 C 
ATOM      9  C   UNL     1       2.254   1.591  -1.655  0.00  0.00    -0.001 C 
ATOM     10  C   UNL     1       2.236   0.074  -1.580  0.00  0.00    +0.018 C 
ATOM     11  C   UNL     1       3.482  -0.509  -0.941  0.00  0.00    +0.132 C 
ATOM     12  C   UNL     1       2.157  -0.423  -3.035  0.00  0.00    +0.018 C 
ATOM     13  C   UNL     1       3.661   2.149  -1.821  0.00  0.00    +0.008 C 
ATOM     14  O   UNL     1       2.120  -3.847   0.052  0.00  0.00    -0.460 OA
ATOM     15  C   UNL     1       2.995  -4.229  -0.888  0.00  0.00    +0.309 C 
ATOM     16  O   UNL     1       3.182  -5.370  -1.252  0.00  0.00    -0.251 OA
ENDROOT
BRANCH  11  17
ATOM     17  O   UNL     1       4.556  -0.476  -1.900  0.00  0.00    -0.391 OA
ATOM     18  H   UNL     1       5.418  -0.718  -1.534  0.00  0.00    +0.210 HD
ENDBRANCH  11  17
BRANCH   1  19
ATOM     19  C   UNL     1       5.236  -3.298  -1.468  0.00  0.00    -0.064 C 
BRANCH  19  25
ATOM     20  N   UNL     1       7.008  -5.393  -4.681  0.00  0.00    -0.333 N 
ATOM     21  C   UNL     1       5.707  -4.750  -4.912  0.00  0.00    +0.086 C 
ATOM     22  C   UNL     1       5.477  -3.673  -3.849  0.00  0.00    -0.060 C 
ATOM     23  C   UNL     1       6.829  -4.930  -2.283  0.00  0.00    -0.060 C 
ATOM     24  C   UNL     1       7.059  -6.007  -3.347  0.00  0.00    +0.086 C 
ATOM     25  N   UNL     1       5.508  -4.307  -2.514  0.00  0.00    +0.382 N 
ATOM     26  H   UNL     1       4.785  -5.034  -2.473  0.00  0.00    -0.082 HD
BRANCH  20  33
ATOM     27  C   UNL     1       9.218  -4.909  -6.404  0.00  0.00    +0.045 C 
ATOM     28  C   UNL     1       8.355  -6.137  -6.540  0.00  0.00    -0.029 A 
ATOM     29  C   UNL     1       8.630  -7.071  -7.520  0.00  0.00    +0.006 A 
ATOM     30  C   UNL     1       7.835  -8.195  -7.648  0.00  0.00    +0.020 A 
ATOM     31  C   UNL     1       6.765  -8.391  -6.792  0.00  0.00    +0.043 A 
ATOM     32  C   UNL     1       6.488  -7.463  -5.807  0.00  0.00    +0.043 A 
ATOM     33  C   UNL     1       7.285  -6.333  -5.676  0.00  0.00    +0.034 A 
ATOM     34 CL   UNL     1       5.771  -9.804  -6.958  0.00  0.00    -0.083 Cl
ENDBRANCH  20  33
ENDBRANCH  19  25
ENDBRANCH   1  19
TORSDOF 4
