REMARK  Name = ZINC09376283
REMARK  9 active torsions:
REMARK  status: ('A' for Active; 'I' for Inactive)
REMARK    1  A    between atoms: C_1  and  C_2
REMARK    2  A    between atoms: C_3  and  C_31
REMARK    3  A    between atoms: C_4  and  C_30
REMARK    4  A    between atoms: C_7  and  C_8
REMARK    5  A    between atoms: C_15  and  C_16
REMARK    6  A    between atoms: C_15  and  N_57
REMARK    7  A    between atoms: N_18  and  C_19
REMARK    8  A    between atoms: C_23  and  C_25
REMARK    9  A    between atoms: C_31  and  C_33
REMARK                            x       y       z     vdW  Elec       q    Type
REMARK                         _______ _______ _______ _____ _____    ______ ____
ROOT
ATOM      1  C   UNL     1       6.291  -0.874   2.351  0.00  0.00    +0.263 C 
ATOM      2  O   UNL     1       6.291  -1.203   3.522  0.00  0.00    -0.268 OA
ATOM      3  N   UNL     1       5.513  -1.529   1.467  0.00  0.00    -0.300 N 
ATOM      4  C   UNL     1       5.571  -1.215   0.031  0.00  0.00    +0.089 C 
ATOM      5  C   UNL     1       4.145  -0.967  -0.471  0.00  0.00    -0.059 C 
ATOM      6  C   UNL     1       3.196  -2.277   1.335  0.00  0.00    -0.059 C 
ATOM      7  C   UNL     1       4.584  -2.579   1.912  0.00  0.00    +0.089 C 
ATOM      8  N   UNL     1       3.312  -2.141  -0.133  0.00  0.00    +0.387 N 
ATOM      9  H   UNL     1       3.756  -2.985  -0.511  0.00  0.00    -0.081 HD
ENDROOT
BRANCH   1  16
ATOM     10  C   UNL     1       9.006  -0.035   3.634  0.00  0.00    +0.047 C 
ATOM     11  C   UNL     1       8.325   0.611   2.455  0.00  0.00    -0.010 A 
ATOM     12  C   UNL     1       8.798   1.720   1.712  0.00  0.00    +0.041 A 
ATOM     13  C   UNL     1       7.857   1.979   0.728  0.00  0.00    +0.024 A 
ATOM     14  N   UNL     1       6.864   1.086   0.848  0.00  0.00    -0.354 N 
ATOM     15  H   UNL     1       6.076   1.042   0.283  0.00  0.00    +0.166 HD
ATOM     16  C   UNL     1       7.138   0.238   1.900  0.00  0.00    +0.106 A 
ATOM     17  C   UNL     1       7.935   3.078  -0.300  0.00  0.00    +0.064 C 
BRANCH  12  18
ATOM     18  C   UNL     1      10.044   2.457   1.943  0.00  0.00    +0.162 C 
ATOM     19  O   UNL     1      10.033   3.478   2.599  0.00  0.00    -0.292 OA
ATOM     20  C   UNL     1      11.339   1.947   1.366  0.00  0.00    +0.091 C 
ENDBRANCH  12  18
ENDBRANCH   1  16
BRANCH   8  21
ATOM     21  C   UNL     1       1.969  -1.996  -0.733  0.00  0.00    +0.019 C 
BRANCH  21  22
ATOM     22  C   UNL     1       1.218  -3.291  -0.560  0.00  0.00    +0.201 C 
ATOM     23  O   UNL     1       1.740  -4.222   0.015  0.00  0.00    -0.278 OA
ATOM     24  N   UNL     1      -0.031  -3.416  -1.051  0.00  0.00    -0.287 N 
ATOM     25  H   UNL     1      -0.477  -2.650  -1.443  0.00  0.00    +0.155 HD
BRANCH  24  26
ATOM     26  C   UNL     1      -0.684  -4.653  -0.994  0.00  0.00    +0.034 A 
ATOM     27  C   UNL     1       0.044  -5.830  -1.113  0.00  0.00    +0.025 A 
ATOM     28  C   UNL     1      -0.603  -7.049  -1.053  0.00  0.00    +0.022 A 
ATOM     29  C   UNL     1      -1.975  -7.098  -0.883  0.00  0.00    +0.053 A 
ATOM     30  C   UNL     1      -2.703  -5.927  -0.770  0.00  0.00    +0.075 A 
ATOM     31  C   UNL     1      -2.061  -4.705  -0.825  0.00  0.00    +0.037 A 
ATOM     32 CL   UNL     1      -2.785  -8.632  -0.813  0.00  0.00    -0.083 Cl
BRANCH  30  33
ATOM     33  C   UNL     1      -4.198  -5.984  -0.585  0.00  0.00    +0.419 C 
ATOM     34  F   UNL     1      -4.707  -4.684  -0.495  0.00  0.00    -0.166 F 
ATOM     35  F   UNL     1      -4.778  -6.638  -1.678  0.00  0.00    -0.166 F 
ATOM     36  F   UNL     1      -4.496  -6.684   0.589  0.00  0.00    -0.166 F 
ENDBRANCH  30  33
ENDBRANCH  24  26
ENDBRANCH  21  22
ENDBRANCH   8  21
TORSDOF 6
