REMARK  Name = ZINC00807681
REMARK  5 active torsions:
REMARK  status: ('A' for Active; 'I' for Inactive)
REMARK    1  A    between atoms: C_1  and  C_2
REMARK    2  A    between atoms: C_11  and  C_13
REMARK    3  A    between atoms: C_15  and  N_28
REMARK    4  A    between atoms: C_16  and  C_26
REMARK    5  A    between atoms: C_17  and  C_19
REMARK                            x       y       z     vdW  Elec       q    Type
REMARK                         _______ _______ _______ _____ _____    ______ ____
ROOT
ATOM      1  C   UNL     1      -2.766  -0.236   0.023  0.00  0.00    +0.087 C 
ATOM      2  C   UNL     1      -2.538   1.254   0.032  0.00  0.00    +0.114 A 
ATOM      3  C   UNL     1      -1.333   1.869   0.019  0.00  0.00    +0.073 A 
ATOM      4  C   UNL     1      -0.015   1.216   0.009  0.00  0.00    +0.190 A 
ATOM      5  O   UNL     1       0.002  -0.004   0.002  0.00  0.00    -0.287 OA
ATOM      6  C   UNL     1       1.234   1.878   0.000  0.00  0.00    +0.052 A 
ATOM      7  C   UNL     1       1.510   3.203   0.006  0.00  0.00    +0.012 A 
ATOM      8  C   UNL     1       0.710   4.352   0.022  0.00  0.00    +0.008 A 
ATOM      9  C   UNL     1      -0.664   4.437   0.039  0.00  0.00    +0.145 A 
ATOM     10  C   UNL     1      -1.617   3.317   0.038  0.00  0.00    +0.069 A 
ATOM     11  C   UNL     1      -2.971   3.426   0.051  0.00  0.00    +0.114 A 
ATOM     12  O   UNL     1      -3.495   2.192   0.046  0.00  0.00    -0.464 OA
ATOM     13  C   UNL     1      -3.751   4.715   0.066  0.00  0.00    +0.087 C 
ATOM     14  O   UNL     1      -1.253   5.646   0.062  0.00  0.00    -0.440 OA
ATOM     15  C   UNL     1      -0.655   6.732  -0.453  0.00  0.00    +0.199 C 
ATOM     16  C   UNL     1       0.702   6.784  -0.501  0.00  0.00    +0.098 C 
ATOM     17  C   UNL     1       1.506   5.628   0.018  0.00  0.00    +0.101 C 
ENDROOT
BRANCH  17  18
ATOM     18  C   UNL     1       1.953   5.933   1.425  0.00  0.00    +0.000 A 
ATOM     19  C   UNL     1       1.016   6.126   2.422  0.00  0.00    +0.007 A 
ATOM     20  C   UNL     1       1.425   6.399   3.713  0.00  0.00    +0.000 A 
ATOM     21  C   UNL     1       2.773   6.491   4.007  0.00  0.00    +0.003 A 
ATOM     22  C   UNL     1       3.712   6.305   3.011  0.00  0.00    +0.038 A 
ATOM     23  C   UNL     1       3.303   6.025   1.718  0.00  0.00    +0.127 A 
ATOM     24  F   UNL     1       4.221   5.842   0.743  0.00  0.00    -0.205 F 
ENDBRANCH  17  18
BRANCH  15  25
ATOM     25  N   UNL     1      -1.406   7.779  -0.926  0.00  0.00    -0.328 N 
ATOM     26  H   UNL     1      -2.374   7.737  -0.890  0.00  0.00    +0.145 HD
ATOM     27  H   UNL     1      -0.968   8.561  -1.297  0.00  0.00    +0.145 HD
ENDBRANCH  15  25
BRANCH  16  28
ATOM     28  C   UNL     1       1.361   7.934  -1.042  0.00  0.00    +0.101 C 
ATOM     29  N   UNL     1       1.883   8.847  -1.472  0.00  0.00    -0.191 NA
ENDBRANCH  16  28
TORSDOF 3
