REMARK  Name = ZINC16129094
REMARK  6 active torsions:
REMARK  status: ('A' for Active; 'I' for Inactive)
REMARK    1  A    between atoms: C_4  and  N_10
REMARK    2  A    between atoms: C_5  and  C_7
REMARK    3  A    between atoms: N_10  and  S_11
REMARK    4  A    between atoms: S_11  and  C_14
REMARK    5  A    between atoms: C_16  and  C_24
REMARK    6  A    between atoms: C_18  and  C_20
REMARK                            x       y       z     vdW  Elec       q    Type
REMARK                         _______ _______ _______ _____ _____    ______ ____
ROOT
ATOM      1  S   UNL     1      -1.254  -2.213   0.719  0.00  0.00    +0.072 S 
ATOM      2  O   UNL     1      -2.561  -2.718   0.485  0.00  0.00    -0.150 OA
ATOM      3  O   UNL     1      -0.084  -2.909   0.308  0.00  0.00    -0.150 OA
ENDROOT
BRANCH   1   4
ATOM      4  C   UNL     1      -1.111  -1.971   2.458  0.00  0.00    +0.110 A 
ATOM      5  C   UNL     1       0.135  -1.973   3.057  0.00  0.00    +0.041 A 
ATOM      6  C   UNL     1       0.247  -1.778   4.420  0.00  0.00    +0.057 A 
ATOM      7  C   UNL     1      -0.887  -1.591   5.188  0.00  0.00    +0.024 A 
ATOM      8  C   UNL     1      -2.134  -1.594   4.590  0.00  0.00    +0.057 A 
ATOM      9  C   UNL     1      -2.246  -1.784   3.225  0.00  0.00    +0.041 A 
BRANCH   8  10
ATOM     10  C   UNL     1      -3.371  -1.389   5.426  0.00  0.00    +0.417 C 
ATOM     11  F   UNL     1      -3.842  -2.628   5.873  0.00  0.00    -0.166 F 
ATOM     12  F   UNL     1      -3.062  -0.582   6.527  0.00  0.00    -0.166 F 
ATOM     13  F   UNL     1      -4.358  -0.766   4.654  0.00  0.00    -0.166 F 
ENDBRANCH   8  10
BRANCH   6  14
ATOM     14  C   UNL     1       1.606  -1.775   5.072  0.00  0.00    +0.417 C 
ATOM     15  F   UNL     1       1.463  -1.565   6.448  0.00  0.00    -0.166 F 
ATOM     16  F   UNL     1       2.233  -3.006   4.851  0.00  0.00    -0.166 F 
ATOM     17  F   UNL     1       2.384  -0.750   4.522  0.00  0.00    -0.166 F 
ENDBRANCH   6  14
ENDBRANCH   1   4
BRANCH   1  18
ATOM     18  N   UNL     1      -1.189  -0.718   0.009  0.00  0.00    -0.216 N 
ATOM     19  H   UNL     1      -1.937  -0.400  -0.520  0.00  0.00    +0.174 HD
BRANCH  18  23
ATOM     20  C   UNL     1       2.189   1.672   0.493  0.00  0.00    +0.001 A 
ATOM     21  C   UNL     1       2.316   0.296   0.386  0.00  0.00    +0.002 A 
ATOM     22  C   UNL     1       1.200  -0.498   0.226  0.00  0.00    +0.025 A 
ATOM     23  C   UNL     1      -0.063   0.079   0.171  0.00  0.00    +0.060 A 
ATOM     24  C   UNL     1      -0.195   1.472   0.279  0.00  0.00    +0.059 A 
ATOM     25  C   UNL     1       0.946   2.263   0.441  0.00  0.00    +0.015 A 
BRANCH  24  26
ATOM     26  C   UNL     1      -1.529   2.098   0.216  0.00  0.00    +0.243 C 
ATOM     27  O   UNL     1      -2.518   1.407   0.070  0.00  0.00    -0.270 OA
ATOM     28  N   UNL     1      -1.650   3.436   0.320  0.00  0.00    -0.325 N 
ATOM     29  H   UNL     1      -0.861   3.987   0.436  0.00  0.00    +0.145 HD
ATOM     30  H   UNL     1      -2.528   3.848   0.278  0.00  0.00    +0.145 HD
ENDBRANCH  24  26
ENDBRANCH  18  23
ENDBRANCH   1  18
TORSDOF 6
