REMARK  Name = ZINC61824772
REMARK  6 active torsions:
REMARK  status: ('A' for Active; 'I' for Inactive)
REMARK    1  A    between atoms: C_1  and  C_2
REMARK    2  A    between atoms: C_2  and  C_21
REMARK    3  A    between atoms: N_6  and  C_10
REMARK    4  A    between atoms: C_10  and  C_12
REMARK    5  A    between atoms: C_10  and  C_18
REMARK    6  A    between atoms: C_18  and  N_20
REMARK                            x       y       z     vdW  Elec       q    Type
REMARK                         _______ _______ _______ _____ _____    ______ ____
ROOT
ATOM      1  C   UNL     1       0.883  -4.007   0.758  0.00  0.00    +0.138 C 
ENDROOT
BRANCH   1   7
ATOM      2  C   UNL     1       0.760   1.448  -1.003  0.00  0.00    +0.012 C 
ATOM      3  C   UNL     1       1.046   0.037  -0.484  0.00  0.00    -0.018 C 
ATOM      4  C   UNL     1       0.154  -0.256   0.727  0.00  0.00    +0.103 C 
ATOM      5  C   UNL     1       0.359  -1.684   1.159  0.00  0.00    +0.223 C 
ATOM      6  O   UNL     1       0.206  -1.980   2.324  0.00  0.00    -0.275 OA
ATOM      7  N   UNL     1       0.709  -2.634   0.279  0.00  0.00    -0.233 N 
ATOM      8  C   UNL     1       0.906  -2.375  -1.023  0.00  0.00    +0.223 C 
ATOM      9  O   UNL     1       1.231  -3.277  -1.765  0.00  0.00    -0.275 OA
ATOM     10  C   UNL     1       0.732  -0.987  -1.580  0.00  0.00    +0.103 C 
ATOM     11  C   UNL     1       2.518  -0.074  -0.082  0.00  0.00    +0.012 C 
ENDBRANCH   1   7
BRANCH   1  12
ATOM     12  C   UNL     1      -0.378  -4.451   1.501  0.00  0.00    +0.016 C 
ATOM     13  C   UNL     1      -1.597  -4.258   0.598  0.00  0.00    +0.006 C 
ATOM     14  C   UNL     1      -2.859  -4.702   1.341  0.00  0.00    +0.000 C 
ATOM     15  C   UNL     1      -2.734  -6.179   1.720  0.00  0.00    +0.000 C 
ATOM     16  C   UNL     1      -1.514  -6.373   2.623  0.00  0.00    +0.000 C 
ATOM     17  C   UNL     1      -0.253  -5.929   1.880  0.00  0.00    +0.006 C 
ENDBRANCH   1  12
BRANCH   1  18
ATOM     18  C   UNL     1       2.064  -4.067   1.692  0.00  0.00    +0.068 C 
ATOM     19  S   UNL     1       2.752  -2.716   2.199  0.00  0.00    -0.039 S 
BRANCH  18  20
ATOM     20  N   UNL     1       2.541  -5.260   2.100  0.00  0.00    -0.354 N 
ATOM     21  H   UNL     1       2.124  -6.080   1.792  0.00  0.00    +0.143 HD
ATOM     22  H   UNL     1       3.301  -5.299   2.701  0.00  0.00    +0.143 HD
ENDBRANCH  18  20
ENDBRANCH   1  18
TORSDOF 4
