REMARK  Name = ZINC32960172
REMARK  6 active torsions:
REMARK  status: ('A' for Active; 'I' for Inactive)
REMARK    1  A    between atoms: C_1  and  C_2
REMARK    2  A    between atoms: C_3  and  C_31
REMARK    3  A    between atoms: C_7  and  N_12
REMARK    4  A    between atoms: C_9  and  C_11
REMARK    5  A    between atoms: C_15  and  C_18
REMARK    6  A    between atoms: N_20  and  C_21
REMARK                            x       y       z     vdW  Elec       q    Type
REMARK                         _______ _______ _______ _____ _____    ______ ____
ROOT
ATOM      1  N   UNL     1      -1.217  -2.087  -0.015  0.00  0.00    -0.314 N 
ATOM      2  C   UNL     1      -0.548  -2.634   1.172  0.00  0.00    +0.107 C 
ATOM      3  C   UNL     1      -0.482  -4.159   1.065  0.00  0.00    +0.032 C 
ATOM      4  C   UNL     1      -1.903  -4.719   0.954  0.00  0.00    +0.078 C 
ATOM      5  C   UNL     1      -2.595  -4.097  -0.263  0.00  0.00    +0.032 C 
ATOM      6  C   UNL     1      -2.599  -2.574  -0.118  0.00  0.00    +0.107 C 
ENDROOT
BRANCH   1  13
ATOM      7  C   UNL     1       1.557  -1.792  -1.669  0.00  0.00    +0.048 C 
ATOM      8  C   UNL     1       1.086  -0.394  -1.361  0.00  0.00    +0.003 A 
ATOM      9  C   UNL     1       1.689   0.754  -1.701  0.00  0.00    +0.108 A 
ATOM     10  O   UNL     1       0.974   1.802  -1.254  0.00  0.00    -0.442 OA
ATOM     11  C   UNL     1      -0.127   1.391  -0.603  0.00  0.00    +0.233 A 
ATOM     12  C   UNL     1      -0.125  -0.014  -0.630  0.00  0.00    +0.083 A 
ATOM     13  C   UNL     1      -1.178  -0.704  -0.014  0.00  0.00    +0.136 A 
ATOM     14  N   UNL     1      -2.138   0.005   0.574  0.00  0.00    -0.217 NA
ATOM     15  C   UNL     1      -2.102   1.325   0.576  0.00  0.00    +0.132 A 
ATOM     16  N   UNL     1      -1.129   2.011   0.013  0.00  0.00    -0.197 NA
ATOM     17  C   UNL     1      -3.216   2.077   1.257  0.00  0.00    +0.088 C 
ATOM     18  C   UNL     1       2.981   0.856  -2.471  0.00  0.00    +0.086 C 
ENDBRANCH   1  13
BRANCH   4  19
ATOM     19  C   UNL     1      -1.843  -6.216   0.788  0.00  0.00    +0.220 C 
ATOM     20  O   UNL     1      -2.306  -6.735  -0.205  0.00  0.00    -0.275 OA
ATOM     21  N   UNL     1      -1.273  -6.977   1.743  0.00  0.00    -0.285 N 
ATOM     22  H   UNL     1      -0.935  -6.518   2.683  0.00  0.00    +0.155 HD
BRANCH  21  23
ATOM     23  C   UNL     1      -1.112  -8.352   1.539  0.00  0.00    +0.037 A 
ATOM     24  C   UNL     1      -1.038  -8.852   0.248  0.00  0.00    +0.023 A 
ATOM     25  C   UNL     1      -0.874 -10.209   0.049  0.00  0.00    +0.002 A 
ATOM     26  C   UNL     1      -0.799 -11.059   1.134  0.00  0.00    +0.004 A 
ATOM     27  C   UNL     1      -0.881 -10.563   2.430  0.00  0.00    -0.042 A 
ATOM     28  C   UNL     1      -1.034  -9.211   2.635  0.00  0.00    -0.023 A 
ATOM     29  C   UNL     1      -1.113  -8.603   4.010  0.00  0.00    +0.037 C 
ATOM     30  C   UNL     1      -1.442  -9.671   5.052  0.00  0.00    +0.005 C 
ATOM     31  C   UNL     1      -0.464 -10.839   4.873  0.00  0.00    +0.005 C 
ATOM     32  C   UNL     1      -0.799 -11.551   3.564  0.00  0.00    +0.035 C 
ENDBRANCH  21  23
ENDBRANCH   4  19
TORSDOF 3
