REMARK  Name = ZINC49209493
REMARK  4 active torsions:
REMARK  status: ('A' for Active; 'I' for Inactive)
REMARK    1  A    between atoms: C_4  and  C_18
REMARK    2  A    between atoms: C_6  and  N_7
REMARK    3  A    between atoms: N_10  and  C_11
REMARK    4  A    between atoms: C_11  and  C_12
REMARK                            x       y       z     vdW  Elec       q    Type
REMARK                         _______ _______ _______ _____ _____    ______ ____
ROOT
ATOM      1  N   UNL     1      -1.201  -0.720   0.010  0.00  0.00    -0.269 N 
ATOM      2  C   UNL     1      -2.374  -0.066   0.126  0.00  0.00    +0.304 C 
ATOM      3  O   UNL     1      -2.394   1.149   0.133  0.00  0.00    -0.252 OA
ATOM      4  N   UNL     1      -3.524  -0.760   0.235  0.00  0.00    -0.295 N 
ATOM      5  H   UNL     1      -1.190  -1.687  -0.063  0.00  0.00    +0.156 HD
ATOM      6  H   UNL     1      -3.508  -1.730   0.229  0.00  0.00    +0.151 HD
ENDROOT
BRANCH   1  12
ATOM      7  C   UNL     1       1.139  -0.542   0.583  0.00  0.00    +0.025 A 
ATOM      8  C   UNL     1       2.329   0.160   0.571  0.00  0.00    +0.023 A 
ATOM      9  C   UNL     1       2.396   1.403  -0.027  0.00  0.00    +0.058 A 
ATOM     10  C   UNL     1       1.258   1.954  -0.623  0.00  0.00    +0.072 A 
ATOM     11  C   UNL     1       0.057   1.243  -0.610  0.00  0.00    +0.043 A 
ATOM     12  C   UNL     1       0.002  -0.003  -0.006  0.00  0.00    +0.036 A 
ATOM     13 CL   UNL     1       3.894   2.282  -0.038  0.00  0.00    -0.082 Cl
BRANCH  10  14
ATOM     14  C   UNL     1       1.323   3.243  -1.244  0.00  0.00    +0.101 C 
ATOM     15  N   UNL     1       1.375   4.265  -1.736  0.00  0.00    -0.191 NA
ENDBRANCH  10  14
ENDBRANCH   1  12
BRANCH   4  16
ATOM     16  C   UNL     1      -4.799  -0.049   0.361  0.00  0.00    +0.148 C 
BRANCH  16  17
ATOM     17  C   UNL     1      -5.923  -1.047   0.466  0.00  0.00    +0.008 A 
ATOM     18  C   UNL     1      -6.461  -1.613   1.574  0.00  0.00    +0.014 A 
ATOM     19  C   UNL     1      -7.499  -2.515   1.430  0.00  0.00    +0.023 A 
ATOM     20  C   UNL     1      -7.947  -2.807   0.183  0.00  0.00    +0.055 A 
ATOM     21  S   UNL     1      -6.895  -1.786  -0.836  0.00  0.00    -0.085 S 
ATOM     22 BR   UNL     1      -9.332  -3.985  -0.339  0.00  0.00    -0.043 Br
ENDBRANCH  16  17
ENDBRANCH   4  16
TORSDOF 4
