REMARK  Name = ZINC47962255
REMARK  6 active torsions:
REMARK  status: ('A' for Active; 'I' for Inactive)
REMARK    1  A    between atoms: C_1  and  C_2
REMARK    2  A    between atoms: C_2  and  C_3
REMARK    3  A    between atoms: C_2  and  N_4
REMARK    4  A    between atoms: C_5  and  C_7
REMARK    5  A    between atoms: N_9  and  C_10
REMARK    6  A    between atoms: C_11  and  C_19
REMARK                            x       y       z     vdW  Elec       q    Type
REMARK                         _______ _______ _______ _____ _____    ______ ____
ROOT
ATOM      1  C   UNL     1      -3.044  -2.251  -0.474  0.00  0.00    +0.304 C 
ATOM      2  O   UNL     1      -3.938  -1.569  -0.018  0.00  0.00    -0.265 OA
ATOM      3  N   UNL     1      -3.314  -3.474  -0.972  0.00  0.00    -0.271 N 
ATOM      4  H   UNL     1      -2.599  -4.018  -1.336  0.00  0.00    +0.156 HD
ENDROOT
BRANCH   3   5
ATOM      5  C   UNL     1      -4.614  -3.953  -0.962  0.00  0.00    +0.090 A 
ATOM      6  C   UNL     1      -5.096  -5.175  -1.416  0.00  0.00    +0.084 A 
ATOM      7  C   UNL     1      -6.519  -5.432  -1.288  0.00  0.00    -0.018 A 
ATOM      8  C   UNL     1      -7.258  -4.446  -0.730  0.00  0.00    -0.004 A 
ATOM      9  S   UNL     1      -6.094  -3.163  -0.356  0.00  0.00    -0.077 S 
ATOM     10  C   UNL     1      -8.735  -4.448  -0.483  0.00  0.00    +0.043 C 
ATOM     11  C   UNL     1      -9.360  -5.591  -1.294  0.00  0.00    +0.005 C 
ATOM     12  C   UNL     1      -8.538  -6.863  -1.065  0.00  0.00    +0.005 C 
ATOM     13  C   UNL     1      -7.176  -6.731  -1.746  0.00  0.00    +0.037 C 
BRANCH   6  14
ATOM     14  C   UNL     1      -4.218  -6.148  -1.992  0.00  0.00    +0.102 C 
ATOM     15  N   UNL     1      -3.521  -6.920  -2.449  0.00  0.00    -0.191 NA
ENDBRANCH   6  14
ENDBRANCH   3   5
BRANCH   1  17
ATOM     16  N   UNL     1      -1.372  -0.511   0.012  0.00  0.00    -0.305 N 
ATOM     17  C   UNL     1      -1.643  -1.734  -0.485  0.00  0.00    +0.300 C 
ATOM     18  O   UNL     1      -0.748  -2.416  -0.941  0.00  0.00    -0.265 OA
ATOM     19  H   UNL     1      -2.087   0.033   0.377  0.00  0.00    +0.149 HD
BRANCH  16  21
ATOM     20  C   UNL     1      -0.019   1.526   0.010  0.00  0.00    +0.027 C 
ATOM     21  C   UNL     1       0.002  -0.004   0.002  0.00  0.00    +0.067 C 
ATOM     22  C   UNL     1       0.742  -0.511   1.242  0.00  0.00    +0.027 C 
ENDBRANCH  16  21
ENDBRANCH   1  17
TORSDOF 4
