REMARK  Name = ZINC38051270
REMARK  5 active torsions:
REMARK  status: ('A' for Active; 'I' for Inactive)
REMARK    1  A    between atoms: C_1  and  C_2
REMARK    2  A    between atoms: C_3  and  C_9
REMARK    3  A    between atoms: C_4  and  C_8
REMARK    4  A    between atoms: N_5  and  C_7
REMARK    5  A    between atoms: C_18  and  N_21
REMARK                            x       y       z     vdW  Elec       q    Type
REMARK                         _______ _______ _______ _____ _____    ______ ____
ROOT
ATOM      1  C   UNL     1      -0.005  -0.375  -2.549  0.00  0.00    +0.254 C 
ATOM      2  O   UNL     1       1.043  -0.201  -3.141  0.00  0.00    -0.270 OA
ATOM      3  N   UNL     1      -1.178  -0.183  -3.184  0.00  0.00    -0.265 N 
ATOM      4  C   UNL     1      -2.412  -0.535  -2.487  0.00  0.00    +0.125 C 
ATOM      5  C   UNL     1      -3.221  -1.497  -3.371  0.00  0.00    +0.094 C 
ATOM      6  S   UNL     1      -3.718  -0.587  -4.864  0.00  0.00    -0.122 S 
ATOM      7  C   UNL     1      -2.232   0.230  -5.354  0.00  0.00    +0.029 A 
ATOM      8  C   UNL     1      -1.157   0.347  -4.476  0.00  0.00    +0.052 A 
ATOM      9  C   UNL     1      -0.005   1.009  -4.891  0.00  0.00    +0.047 A 
ATOM     10  C   UNL     1       0.073   1.548  -6.166  0.00  0.00    +0.026 A 
ATOM     11  C   UNL     1      -1.002   1.430  -7.038  0.00  0.00    +0.024 A 
ATOM     12  C   UNL     1      -2.148   0.764  -6.633  0.00  0.00    +0.018 A 
ENDROOT
BRANCH   1  15
ATOM     13  C   UNL     1       0.016   1.563  -0.035  0.00  0.00    +0.068 C 
ATOM     14  C   UNL     1       0.017   0.056  -0.008  0.00  0.00    +0.072 A 
ATOM     15  C   UNL     1       0.008  -0.795  -1.135  0.00  0.00    +0.080 A 
ATOM     16  C   UNL     1       0.013  -2.093  -0.666  0.00  0.00    +0.048 A 
ATOM     17  N   UNL     1       0.024  -2.036   0.675  0.00  0.00    -0.271 N 
ATOM     18  N   UNL     1       0.032  -0.691   1.062  0.00  0.00    -0.176 NA
ATOM     19  C   UNL     1       0.032  -3.187   1.581  0.00  0.00    +0.172 C 
ATOM     20  C   UNL     1       0.006  -3.345  -1.506  0.00  0.00    +0.066 C 
ENDBRANCH   1  15
BRANCH  10  21
ATOM     21  N   UNL     1       1.235   2.212  -6.575  0.00  0.00    -0.358 N 
ATOM     22  H   UNL     1       1.986   2.295  -5.966  0.00  0.00    +0.142 HD
ATOM     23  H   UNL     1       1.290   2.589  -7.467  0.00  0.00    +0.142 HD
ENDBRANCH  10  21
TORSDOF 2
