REMARK  Name = ZINC21317821
REMARK  7 active torsions:
REMARK  status: ('A' for Active; 'I' for Inactive)
REMARK    1  A    between atoms: C_3  and  C_6
REMARK    2  A    between atoms: N_7  and  N_8
REMARK    3  A    between atoms: C_12  and  S_15
REMARK    4  A    between atoms: N_13  and  N_14
REMARK    5  A    between atoms: S_15  and  C_16
REMARK    6  A    between atoms: C_16  and  C_17
REMARK    7  A    between atoms: C_17  and  C_19
REMARK                            x       y       z     vdW  Elec       q    Type
REMARK                         _______ _______ _______ _____ _____    ______ ____
ROOT
ATOM      1  N   UNL     1      -1.109  -0.835   0.009  0.00  0.00    -0.204 N 
ATOM      2  C   UNL     1       0.002  -0.004   0.002  0.00  0.00    +0.254 A 
ATOM      3  N   UNL     1       1.254  -0.392  -0.012  0.00  0.00    -0.109 NA
ATOM      4  N   UNL     1       2.062   0.753  -0.014  0.00  0.00    -0.119 NA
ATOM      5  C   UNL     1       1.277   1.803  -0.001  0.00  0.00    +0.210 A 
ATOM      6  N   UNL     1      -0.017   1.363   0.009  0.00  0.00    -0.211 N 
ATOM      7  H   UNL     1      -2.119  -0.401   0.021  0.00  0.00    +0.177 HD
ENDROOT
BRANCH   6   8
ATOM      8  N   UNL     1      -1.132   2.151   0.019  0.00  0.00    -0.294 N 
ATOM      9  H   UNL     1      -1.032   3.246   0.025  0.00  0.00    +0.163 HD
ATOM     10  H   UNL     1      -2.131   1.690   0.022  0.00  0.00    +0.163 HD
ENDBRANCH   6   8
BRANCH   1  12
ATOM     11  C   UNL     1      -1.985  -3.005   0.006  0.00  0.00    +0.145 C 
ATOM     12  N   UNL     1      -0.943  -2.226  -0.001  0.00  0.00    -0.187 NA
BRANCH  11  15
ATOM     13  C   UNL     1      -2.361  -6.767  -0.012  0.00  0.00    +0.008 A 
ATOM     14  C   UNL     1      -2.776  -5.455   0.000  0.00  0.00    +0.017 A 
ATOM     15  C   UNL     1      -1.812  -4.461  -0.004  0.00  0.00    +0.032 A 
ATOM     16  S   UNL     1      -0.303  -5.415  -0.032  0.00  0.00    -0.096 S 
ATOM     17  C   UNL     1      -1.032  -7.045  -0.027  0.00  0.00    +0.046 A 
ENDBRANCH  11  15
ENDBRANCH   1  12
BRANCH   5  18
ATOM     18  S   UNL     1       1.798   3.486   0.004  0.00  0.00    -0.076 S 
BRANCH  18  19
ATOM     19  C   UNL     1       3.610   3.384  -0.014  0.00  0.00    +0.157 C 
BRANCH  19  20
ATOM     20  C   UNL     1       4.191   4.775  -0.012  0.00  0.00    +0.173 C 
ATOM     21  O   UNL     1       3.456   5.739  -0.000  0.00  0.00    -0.291 OA
BRANCH  20  22
ATOM     22  C   UNL     1       5.650   4.962  -0.025  0.00  0.00    +0.018 A 
ATOM     23  C   UNL     1       6.501   3.852  -0.034  0.00  0.00    +0.012 A 
ATOM     24  C   UNL     1       7.867   4.035  -0.052  0.00  0.00    +0.016 A 
ATOM     25  C   UNL     1       8.398   5.314  -0.050  0.00  0.00    +0.018 A 
ATOM     26  C   UNL     1       7.561   6.419  -0.036  0.00  0.00    +0.016 A 
ATOM     27  C   UNL     1       6.193   6.251  -0.024  0.00  0.00    +0.012 A 
ATOM     28 BR   UNL     1      10.273   5.555  -0.067  0.00  0.00    -0.050 Br
ENDBRANCH  20  22
ENDBRANCH  19  20
ENDBRANCH  18  19
ENDBRANCH   5  18
TORSDOF 7
