REMARK  Name = ZINC32819459
REMARK  9 active torsions:
REMARK  status: ('A' for Active; 'I' for Inactive)
REMARK    1  A    between atoms: C_1  and  C_2
REMARK    2  A    between atoms: C_4  and  C_33
REMARK    3  A    between atoms: C_5  and  N_9
REMARK    4  A    between atoms: C_6  and  C_8
REMARK    5  A    between atoms: C_10  and  C_12
REMARK    6  A    between atoms: C_12  and  N_13
REMARK    7  A    between atoms: C_14  and  C_16
REMARK    8  A    between atoms: C_16  and  N_17
REMARK    9  A    between atoms: C_19  and  O_32
REMARK                            x       y       z     vdW  Elec       q    Type
REMARK                         _______ _______ _______ _____ _____    ______ ____
ROOT
ATOM      1  N   UNL     1       3.259   2.011  -1.089  0.00  0.00    -0.305 N 
ATOM      2  C   UNL     1       4.582   1.751  -1.119  0.00  0.00    +0.231 C 
ATOM      3  O   UNL     1       5.029   0.811  -0.497  0.00  0.00    -0.274 OA
ATOM      4  H   UNL     1       2.853   2.864  -1.653  0.00  0.00    +0.149 HD
ENDROOT
BRANCH   1   5
ATOM      5  C   UNL     1       2.363   1.158  -0.305  0.00  0.00    +0.200 C 
BRANCH   5   7
ATOM      6  N   UNL     1      -0.055   1.025   0.201  0.00  0.00    -0.284 N 
ATOM      7  C   UNL     1       0.948   1.659  -0.439  0.00  0.00    +0.234 C 
ATOM      8  O   UNL     1       0.712   2.634  -1.121  0.00  0.00    -0.274 OA
ATOM      9  H   UNL     1       0.147   0.098   0.757  0.00  0.00    +0.155 HD
BRANCH   6  14
ATOM     10  C   UNL     1      -5.317   3.137   0.021  0.00  0.00    +0.044 C 
ATOM     11  C   UNL     1      -3.919   2.576   0.069  0.00  0.00    -0.050 A 
ATOM     12  C   UNL     1      -3.696   1.252  -0.262  0.00  0.00    +0.008 A 
ATOM     13  C   UNL     1      -2.416   0.735  -0.219  0.00  0.00    -0.029 A 
ATOM     14  C   UNL     1      -1.353   1.546   0.156  0.00  0.00    +0.039 A 
ATOM     15  C   UNL     1      -1.582   2.874   0.493  0.00  0.00    -0.029 A 
ATOM     16  C   UNL     1      -2.863   3.386   0.443  0.00  0.00    +0.008 A 
ATOM     17  C   UNL     1      -0.432   3.756   0.908  0.00  0.00    +0.045 C 
ATOM     18  C   UNL     1      -2.173  -0.708  -0.579  0.00  0.00    +0.045 C 
ENDBRANCH   6  14
ENDBRANCH   5   7
ENDBRANCH   1   5
BRANCH   2  19
ATOM     19  C   UNL     1       5.504   2.629  -1.925  0.00  0.00    +0.200 C 
BRANCH  19  20
ATOM     20  N   UNL     1       6.876   2.081  -1.873  0.00  0.00    -0.318 N 
ATOM     21  C   UNL     1       7.372   2.176  -0.504  0.00  0.00    +0.137 C 
ATOM     22  C   UNL     1       8.420   1.103  -0.208  0.00  0.00    +0.136 C 
ATOM     23  C   UNL     1       7.743  -0.264  -0.377  0.00  0.00    +0.070 C 
ATOM     24  C   UNL     1       7.215  -0.327  -1.792  0.00  0.00    -0.023 A 
ATOM     25  C   UNL     1       6.917   0.833  -2.471  0.00  0.00    +0.041 A 
ATOM     26  C   UNL     1       6.684   0.739  -3.869  0.00  0.00    +0.003 A 
ATOM     27  C   UNL     1       6.649   1.878  -4.687  0.00  0.00    +0.010 A 
ATOM     28  C   UNL     1       6.311   1.761  -6.001  0.00  0.00    +0.001 A 
ATOM     29  C   UNL     1       6.037   0.516  -6.562  0.00  0.00    +0.001 A 
ATOM     30  C   UNL     1       6.128  -0.619  -5.817  0.00  0.00    +0.008 A 
ATOM     31  C   UNL     1       6.493  -0.533  -4.462  0.00  0.00    -0.016 A 
ATOM     32  C   UNL     1       6.695  -1.692  -3.694  0.00  0.00    +0.009 A 
ATOM     33  C   UNL     1       7.090  -1.575  -2.398  0.00  0.00    +0.006 A 
BRANCH  22  34
ATOM     34  O   UNL     1       8.893   1.237   1.135  0.00  0.00    -0.390 OA
ATOM     35  H   UNL     1       9.655   0.545   1.521  0.00  0.00    +0.210 HD
ENDBRANCH  22  34
ENDBRANCH  19  20
ENDBRANCH   2  19
TORSDOF 6
