REMARK  Name = ZINC20154572
REMARK  5 active torsions:
REMARK  status: ('A' for Active; 'I' for Inactive)
REMARK    1  A    between atoms: C_8  and  C_10
REMARK    2  A    between atoms: C_12  and  N_17
REMARK    3  A    between atoms: C_15  and  O_16
REMARK    4  A    between atoms: N_17  and  C_18
REMARK    5  A    between atoms: C_18  and  N_20
REMARK                            x       y       z     vdW  Elec       q    Type
REMARK                         _______ _______ _______ _____ _____    ______ ____
ROOT
ATOM      1  C   UNL     1       1.613   3.225  -0.250  0.00  0.00    +0.080 A 
ATOM      2  C   UNL     1       2.962   3.586  -0.262  0.00  0.00    +0.040 A 
ATOM      3  C   UNL     1       3.326   4.896   0.001  0.00  0.00    +0.034 A 
ATOM      4  C   UNL     1       2.353   5.847   0.289  0.00  0.00    +0.027 A 
ATOM      5  C   UNL     1       1.018   5.494   0.308  0.00  0.00    +0.048 A 
ATOM      6  C   UNL     1       0.639   4.188   0.040  0.00  0.00    +0.129 A 
ENDROOT
BRANCH   1  14
ATOM      7  C   UNL     1      -0.655  -2.196  -1.313  0.00  0.00    +0.002 A 
ATOM      8  C   UNL     1       0.676  -2.545  -1.492  0.00  0.00    +0.004 A 
ATOM      9  C   UNL     1       1.672  -1.601  -1.351  0.00  0.00    +0.048 A 
ATOM     10  C   UNL     1       1.344  -0.293  -1.029  0.00  0.00    +0.156 A 
ATOM     11  C   UNL     1      -0.001   0.065  -0.847  0.00  0.00    +0.110 A 
ATOM     12  C   UNL     1      -0.999  -0.902  -0.993  0.00  0.00    +0.031 A 
ATOM     13  N   UNL     1      -0.016   1.389  -0.545  0.00  0.00    -0.209 NA
ATOM     14  C   UNL     1       1.217   1.832  -0.536  0.00  0.00    +0.232 A 
ATOM     15  O   UNL     1       2.069   0.830  -0.827  0.00  0.00    -0.435 OA
ENDBRANCH   1  14
BRANCH   6  16
ATOM     16  O   UNL     1      -0.674   3.843   0.060  0.00  0.00    -0.506 OA
ATOM     17  H   UNL     1      -1.438   4.601   0.289  0.00  0.00    +0.292 HD
ENDBRANCH   6  16
BRANCH   3  18
ATOM     18  N   UNL     1       4.678   5.262  -0.017  0.00  0.00    -0.297 N 
ATOM     19  H   UNL     1       5.077   5.934   0.757  0.00  0.00    +0.154 HD
BRANCH  18  20
ATOM     20  C   UNL     1       5.492   4.792  -0.983  0.00  0.00    +0.132 C 
ATOM     21  S   UNL     1       4.846   3.862  -2.268  0.00  0.00    -0.019 S 
BRANCH  20  22
ATOM     22  N   UNL     1       6.813   5.052  -0.938  0.00  0.00    -0.340 N 
ATOM     23  H   UNL     1       7.477   4.668  -1.727  0.00  0.00    +0.144 HD
ATOM     24  H   UNL     1       7.228   5.649  -0.113  0.00  0.00    +0.144 HD
ENDBRANCH  20  22
ENDBRANCH  18  20
ENDBRANCH   3  18
TORSDOF 5
