REMARK  Name = ZINC13783649
REMARK  6 active torsions:
REMARK  status: ('A' for Active; 'I' for Inactive)
REMARK    1  A    between atoms: C_1  and  C_2
REMARK    2  A    between atoms: C_2  and  C_4
REMARK    3  A    between atoms: C_10  and  C_31
REMARK    4  A    between atoms: C_11  and  O_30
REMARK    5  A    between atoms: C_22  and  C_29
REMARK    6  A    between atoms: C_25  and  O_28
REMARK                            x       y       z     vdW  Elec       q    Type
REMARK                         _______ _______ _______ _____ _____    ______ ____
ROOT
ATOM      1  C   UNL     1       3.895   4.266  -3.594  0.00  0.00    +0.064 C 
ATOM      2  C   UNL     1       2.577   4.730  -2.931  0.00  0.00    +0.012 C 
ATOM      3  C   UNL     1       1.606   3.551  -3.158  0.00  0.00    +0.005 C 
ATOM      4  C   UNL     1       2.481   2.334  -3.455  0.00  0.00    +0.001 C 
ATOM      5  C   UNL     1       3.949   2.748  -3.256  0.00  0.00    +0.006 C 
ATOM      6  C   UNL     1       4.387   2.578  -1.809  0.00  0.00    +0.122 C 
ATOM      7  C   UNL     1       4.068   1.200  -1.254  0.00  0.00    +0.036 C 
ATOM      8  C   UNL     1       2.621   0.773  -1.415  0.00  0.00    +0.001 C 
ATOM      9  C   UNL     1       2.065   1.062  -2.780  0.00  0.00    -0.004 C 
ATOM     10  C   UNL     1       0.569   0.806  -2.925  0.00  0.00    +0.004 C 
ATOM     11  C   UNL     1      -0.234   1.294  -1.725  0.00  0.00    +0.004 C 
ATOM     12  C   UNL     1       0.330   0.684  -0.446  0.00  0.00    -0.002 C 
ATOM     13  C   UNL     1       1.761   1.173  -0.226  0.00  0.00    -0.026 C 
ATOM     14  C   UNL     1       2.310   0.479   1.033  0.00  0.00    +0.010 C 
ATOM     15  C   UNL     1       1.439   0.789   2.246  0.00  0.00    +0.032 C 
ATOM     16  C   UNL     1      -0.007   0.363   2.008  0.00  0.00    +0.115 C 
ATOM     17  C   UNL     1      -0.556   1.030   0.747  0.00  0.00    +0.035 C 
ATOM     18  C   UNL     1       1.788   2.680   0.009  0.00  0.00    +0.012 C 
ATOM     19  C   UNL     1       4.881   1.997  -4.222  0.00  0.00    +0.015 C 
ENDROOT
BRANCH   1  21
ATOM     20  C   UNL     1       6.317   5.167  -3.905  0.00  0.00    +0.086 C 
ATOM     21  C   UNL     1       5.066   5.044  -3.074  0.00  0.00    +0.134 C 
ATOM     22  O   UNL     1       5.007   5.572  -1.990  0.00  0.00    -0.297 OA
ENDBRANCH   1  21
BRANCH  16  23
ATOM     23  O   UNL     1      -0.079  -1.057   1.871  0.00  0.00    -0.392 OA
ATOM     24  H   UNL     1       0.234  -1.543   2.646  0.00  0.00    +0.210 HD
ENDBRANCH  16  23
BRANCH   6  25
ATOM     25  O   UNL     1       5.821   2.716  -1.737  0.00  0.00    -0.391 OA
ATOM     26  H   UNL     1       6.179   2.647  -0.841  0.00  0.00    +0.210 HD
ENDBRANCH   6  25
TORSDOF 3
