REMARK  Name = ZINC04856591
REMARK  10 active torsions:
REMARK  status: ('A' for Active; 'I' for Inactive)
REMARK    1  A    between atoms: C_1  and  C_2
REMARK    2  A    between atoms: C_2  and  C_8
REMARK    3  A    between atoms: N_3  and  N_4
REMARK    4  A    between atoms: C_8  and  C_9
REMARK    5  A    between atoms: C_9  and  C_10
REMARK    6  A    between atoms: C_12  and  C_26
REMARK    7  A    between atoms: C_16  and  C_24
REMARK    8  A    between atoms: C_16  and  C_25
REMARK    9  A    between atoms: C_21  and  C_22
REMARK   10  A    between atoms: C_21  and  O_23
REMARK                            x       y       z     vdW  Elec       q    Type
REMARK                         _______ _______ _______ _____ _____    ______ ____
ROOT
ATOM      1  C   UNL     1      -2.350   5.334   1.744  0.00  0.00    +0.027 C 
ATOM      2  C   UNL     1      -2.624   3.947   2.317  0.00  0.00    -0.023 C 
ATOM      3  C   UNL     1      -4.102   3.585   2.116  0.00  0.00    +0.007 C 
ATOM      4  C   UNL     1      -4.373   2.214   2.740  0.00  0.00    +0.001 C 
ATOM      5  C   UNL     1      -3.557   1.156   2.009  0.00  0.00    +0.007 C 
ATOM      6  C   UNL     1      -2.062   1.464   2.015  0.00  0.00    -0.032 C 
ATOM      7  C   UNL     1      -1.758   2.900   1.637  0.00  0.00    +0.001 C 
ATOM      8  C   UNL     1      -0.283   3.245   1.838  0.00  0.00    +0.007 C 
ATOM      9  C   UNL     1       0.009   4.572   1.140  0.00  0.00    +0.035 C 
ATOM     10  C   UNL     1      -0.881   5.702   1.627  0.00  0.00    +0.067 C 
ATOM     11  C   UNL     1      -0.341   6.272   2.943  0.00  0.00    +0.041 C 
ATOM     12  C   UNL     1      -1.426   0.549   0.937  0.00  0.00    +0.011 C 
ATOM     13  C   UNL     1      -1.450   1.058   3.355  0.00  0.00    +0.011 C 
ATOM     14  C   UNL     1      -2.371   4.004   3.832  0.00  0.00    +0.012 C 
ENDROOT
BRANCH  10  15
ATOM     15  O   UNL     1      -0.787   6.769   0.649  0.00  0.00    -0.389 OA
ATOM     16  H   UNL     1       0.108   7.113   0.527  0.00  0.00    +0.210 HD
ENDBRANCH  10  15
BRANCH   1  17
ATOM     17  C   UNL     1      -3.011   5.504   0.371  0.00  0.00    +0.013 C 
BRANCH  17  18
ATOM     18  C   UNL     1      -3.260   6.990   0.104  0.00  0.00    +0.052 C 
BRANCH  18  20
ATOM     19  C   UNL     1      -3.307   7.428  -2.469  0.00  0.00    +0.062 C 
ATOM     20  C   UNL     1      -4.034   7.147  -1.179  0.00  0.00    +0.034 C 
ATOM     21  N   UNL     1      -5.310   7.044  -1.173  0.00  0.00    -0.188 NA
BRANCH  21  22
ATOM     22  N   UNL     1      -5.992   6.855   0.036  0.00  0.00    -0.191 N 
ATOM     23  C   UNL     1      -7.324   6.646   0.033  0.00  0.00    +0.317 C 
ATOM     24  O   UNL     1      -7.916   6.483   1.082  0.00  0.00    -0.251 OA
ATOM     25  N   UNL     1      -7.999   6.619  -1.133  0.00  0.00    -0.312 N 
ATOM     26  H   UNL     1      -5.506   6.875   0.875  0.00  0.00    +0.179 HD
ATOM     27  H   UNL     1      -7.527   6.749  -1.970  0.00  0.00    +0.147 HD
ATOM     28  H   UNL     1      -8.957   6.468  -1.135  0.00  0.00    +0.147 HD
ENDBRANCH  21  22
ENDBRANCH  18  20
ENDBRANCH  17  18
ENDBRANCH   1  17
TORSDOF 5
