REMARK  Name = ZINC51595922
REMARK  6 active torsions:
REMARK  status: ('A' for Active; 'I' for Inactive)
REMARK    1  A    between atoms: C_1  and  C_2
REMARK    2  A    between atoms: C_5  and  C_16
REMARK    3  A    between atoms: C_6  and  S_8
REMARK    4  A    between atoms: S_8  and  C_9
REMARK    5  A    between atoms: C_12  and  C_15
REMARK    6  A    between atoms: N_17  and  O_18
REMARK                            x       y       z     vdW  Elec       q    Type
REMARK                         _______ _______ _______ _____ _____    ______ ____
ROOT
ATOM      1  C   UNL     1       0.165   0.984  -0.703  0.00  0.00    +0.044 C 
ATOM      2  C   UNL     1       0.146  -0.503  -0.458  0.00  0.00    -0.049 A 
ATOM      3  C   UNL     1       0.162  -1.378  -1.531  0.00  0.00    +0.004 A 
ATOM      4  C   UNL     1       0.145  -2.741  -1.319  0.00  0.00    +0.013 A 
ATOM      5  C   UNL     1       0.112  -3.242  -0.018  0.00  0.00    +0.032 A 
ATOM      6  C   UNL     1       0.097  -2.354   1.067  0.00  0.00    +0.026 A 
ATOM      7  C   UNL     1       0.119  -0.985   0.835  0.00  0.00    +0.019 A 
ENDROOT
BRANCH   5   8
ATOM      8  C   UNL     1       0.093  -4.702   0.216  0.00  0.00    +0.163 C 
ATOM      9  N   UNL     1       0.062  -5.166   1.432  0.00  0.00    -0.071 NA
ATOM     10  N   UNL     1       0.108  -5.575  -0.858  0.00  0.00    -0.340 N 
ATOM     11  H   UNL     1       0.131  -5.230  -1.764  0.00  0.00    +0.144 HD
ATOM     12  H   UNL     1       0.095  -6.533  -0.705  0.00  0.00    +0.144 HD
BRANCH   9  13
ATOM     13  O   UNL     1       0.044  -6.564   1.656  0.00  0.00    -0.408 OA
ATOM     14  H   UNL     1       0.022  -6.812   2.590  0.00  0.00    +0.328 HD
ENDBRANCH   9  13
ENDBRANCH   5   8
BRANCH   6  15
ATOM     15  S   UNL     1       0.055  -2.973   2.716  0.00  0.00    -0.050 S 
BRANCH  15  16
ATOM     16  C   UNL     1      -1.623  -3.459   2.947  0.00  0.00    +0.189 A 
ATOM     17  N   UNL     1      -2.608  -3.276   2.092  0.00  0.00    -0.206 NA
ATOM     18  H   UNL     1      -1.639  -4.365   4.822  0.00  0.00    +0.191 HD
ATOM     19  C   UNL     1      -3.738  -3.770   2.597  0.00  0.00    +0.149 A 
ATOM     20  N   UNL     1      -3.496  -4.275   3.777  0.00  0.00    -0.157 NA
ATOM     21  N   UNL     1      -2.126  -4.093   4.028  0.00  0.00    -0.253 N 
ATOM     22  C   UNL     1      -5.082  -3.749   1.915  0.00  0.00    +0.090 C 
ENDBRANCH  15  16
ENDBRANCH   6  15
TORSDOF 4
