REMARK  Name = ZINC05943859
REMARK  3 active torsions:
REMARK  status: ('A' for Active; 'I' for Inactive)
REMARK    1  A    between atoms: C_3  and  C_9
REMARK    2  A    between atoms: N_11  and  N_12
REMARK    3  A    between atoms: C_13  and  C_15
REMARK                            x       y       z     vdW  Elec       q    Type
REMARK                         _______ _______ _______ _____ _____    ______ ____
ROOT
ATOM      1  C   UNL     1       3.655   2.163  -0.022  0.00  0.00    +0.262 C 
ATOM      2  O   UNL     1       4.715   1.568  -0.035  0.00  0.00    -0.269 OA
ATOM      3  N   UNL     1       3.639   3.511  -0.015  0.00  0.00    -0.230 N 
ATOM      4  H   UNL     1       2.793   3.986  -0.004  0.00  0.00    +0.173 HD
ENDROOT
BRANCH   1   7
ATOM      5  C   UNL     1      -0.017   1.381   0.010  0.00  0.00    +0.021 A 
ATOM      6  C   UNL     1       1.166   2.090   0.002  0.00  0.00    +0.016 A 
ATOM      7  C   UNL     1       2.385   1.410  -0.013  0.00  0.00    +0.057 A 
ATOM      8  C   UNL     1       2.398   0.012  -0.021  0.00  0.00    +0.054 A 
ATOM      9  C   UNL     1       1.207  -0.686  -0.013  0.00  0.00    +0.040 A 
ATOM     10  C   UNL     1       0.002  -0.004   0.002  0.00  0.00    +0.042 A 
ATOM     11 CL   UNL     1      -1.492  -0.889   0.012  0.00  0.00    -0.083 Cl
ATOM     12 CL   UNL     1       3.908  -0.844  -0.040  0.00  0.00    -0.083 Cl
ENDBRANCH   1   7
BRANCH   3  13
ATOM     13  N   UNL     1       4.844   4.226  -0.023  0.00  0.00    -0.226 N 
ATOM     14  C   UNL     1       4.828   5.574  -0.016  0.00  0.00    +0.315 C 
ATOM     15  O   UNL     1       3.770   6.168  -0.003  0.00  0.00    -0.264 OA
ATOM     16  H   UNL     1       5.689   3.751  -0.034  0.00  0.00    +0.173 HD
BRANCH  14  17
ATOM     17  C   UNL     1       6.113   6.336  -0.025  0.00  0.00    +0.298 C 
ATOM     18  O   UNL     1       7.171   5.742  -0.038  0.00  0.00    -0.265 OA
ATOM     19  N   UNL     1       6.097   7.684  -0.018  0.00  0.00    -0.322 N 
ATOM     20  H   UNL     1       5.251   8.159  -0.007  0.00  0.00    +0.145 HD
ATOM     21  H   UNL     1       6.931   8.179  -0.023  0.00  0.00    +0.145 HD
ENDBRANCH  14  17
ENDBRANCH   3  13
TORSDOF 3
