REMARK  Name = ZINC20413425
REMARK  10 active torsions:
REMARK  status: ('A' for Active; 'I' for Inactive)
REMARK    1  A    between atoms: C_1  and  C_2
REMARK    2  A    between atoms: C_3  and  C_27
REMARK    3  A    between atoms: C_4  and  C_14
REMARK    4  A    between atoms: C_9  and  S_11
REMARK    5  A    between atoms: S_11  and  C_12
REMARK    6  A    between atoms: C_17  and  O_22
REMARK    7  A    between atoms: C_18  and  O_20
REMARK    8  A    between atoms: O_20  and  C_21
REMARK    9  A    between atoms: O_22  and  C_23
REMARK   10  A    between atoms: C_23  and  C_24
REMARK                            x       y       z     vdW  Elec       q    Type
REMARK                         _______ _______ _______ _____ _____    ______ ____
ROOT
ATOM      1  C   UNL     1       2.497  -2.204  -2.325  0.00  0.00    +0.061 C 
ATOM      2  C   UNL     1       2.444  -1.290  -1.128  0.00  0.00    +0.018 C 
ATOM      3  C   UNL     1       2.593   0.029  -1.313  0.00  0.00    +0.060 C 
ATOM      4  C   UNL     1       2.545   1.028  -0.188  0.00  0.00    +0.177 C 
ATOM      5  N   UNL     1       2.609   0.324   1.091  0.00  0.00    -0.220 N 
ATOM      6  C   UNL     1       2.462  -1.018   1.216  0.00  0.00    +0.219 A 
ATOM      7  N   UNL     1       2.563  -1.321   2.482  0.00  0.00    -0.187 NA
ATOM      8  C   UNL     1       2.781  -0.205   3.193  0.00  0.00    +0.210 A 
ATOM      9  N   UNL     1       2.817   0.825   2.375  0.00  0.00    -0.141 NA
ATOM     10  N   UNL     1       2.244  -1.837   0.116  0.00  0.00    -0.287 N 
ATOM     11  H   UNL     1       1.925  -2.885   0.212  0.00  0.00    +0.155 HD
ENDROOT
BRANCH   4  12
ATOM     12  C   UNL     1       1.259   1.811  -0.266  0.00  0.00    -0.015 A 
ATOM     13  C   UNL     1       0.045   1.154  -0.183  0.00  0.00    +0.010 A 
ATOM     14  C   UNL     1      -1.136   1.867  -0.260  0.00  0.00    +0.050 A 
ATOM     15  C   UNL     1      -1.106   3.245  -0.409  0.00  0.00    +0.163 A 
ATOM     16  C   UNL     1       0.116   3.906  -0.491  0.00  0.00    +0.162 A 
ATOM     17  C   UNL     1       1.296   3.184  -0.419  0.00  0.00    +0.055 A 
BRANCH  16  18
ATOM     18  O   UNL     1       0.150   5.257  -0.643  0.00  0.00    -0.491 OA
ATOM     19  C   UNL     1       1.440   5.868  -0.721  0.00  0.00    +0.277 C 
ENDBRANCH  16  18
BRANCH  15  20
ATOM     20  O   UNL     1      -2.268   3.948  -0.479  0.00  0.00    -0.479 OA
BRANCH  20  21
ATOM     21  C   UNL     1      -3.484   3.203  -0.388  0.00  0.00    +0.324 C 
BRANCH  21  22
ATOM     22  C   UNL     1      -4.657   4.144  -0.484  0.00  0.00    +0.248 C 
ATOM     23  O   UNL     1      -4.471   5.335  -0.619  0.00  0.00    -0.272 OA
ATOM     24  N   UNL     1      -5.914   3.662  -0.421  0.00  0.00    -0.327 N 
ATOM     25  H   UNL     1      -6.771   4.348  -0.492  0.00  0.00    +0.145 HD
ATOM     26  H   UNL     1      -6.084   2.582  -0.300  0.00  0.00    +0.145 HD
ENDBRANCH  21  22
ENDBRANCH  20  21
ENDBRANCH  15  20
ENDBRANCH   4  12
BRANCH   3  27
ATOM     27  C   UNL     1       2.807   0.506  -2.628  0.00  0.00    +0.241 C 
ATOM     28  O   UNL     1       2.954  -0.282  -3.545  0.00  0.00    -0.271 OA
ATOM     29  N   UNL     1       2.847   1.832  -2.867  0.00  0.00    -0.325 N 
ATOM     30  H   UNL     1       3.013   2.202  -3.889  0.00  0.00    +0.145 HD
ATOM     31  H   UNL     1       2.714   2.544  -2.039  0.00  0.00    +0.145 HD
ENDBRANCH   3  27
BRANCH   8  32
ATOM     32  S   UNL     1       2.985  -0.130   4.942  0.00  0.00    -0.088 S 
ATOM     33  C   UNL     1       2.831  -1.856   5.476  0.00  0.00    +0.093 C 
ENDBRANCH   8  32
TORSDOF 7
