REMARK  Name = ZINC36914152
REMARK  4 active torsions:
REMARK  status: ('A' for Active; 'I' for Inactive)
REMARK    1  A    between atoms: C_1  and  C_2
REMARK    2  A    between atoms: N_8  and  C_9
REMARK    3  A    between atoms: C_18  and  C_19
REMARK    4  A    between atoms: N_20  and  O_21
REMARK                            x       y       z     vdW  Elec       q    Type
REMARK                         _______ _______ _______ _____ _____    ______ ____
ROOT
ATOM      1  C   UNL     1       1.396   0.368   2.023  0.00  0.00    +0.051 A 
ATOM      2  C   UNL     1       2.763   0.654   1.798  0.00  0.00    +0.020 A 
ATOM      3  C   UNL     1       3.461   0.071   0.731  0.00  0.00    +0.012 A 
ATOM      4  C   UNL     1       4.777   0.370   0.543  0.00  0.00    +0.001 A 
ATOM      5  C   UNL     1       5.438   1.247   1.400  0.00  0.00    +0.002 A 
ATOM      6  C   UNL     1       4.789   1.829   2.446  0.00  0.00    +0.026 A 
ATOM      7  C   UNL     1       3.431   1.546   2.670  0.00  0.00    +0.048 A 
ATOM      8  N   UNL     1       2.773   2.109   3.692  0.00  0.00    -0.360 N 
ATOM      9  C   UNL     1       1.508   1.861   3.922  0.00  0.00    +0.096 A 
ATOM     10  C   UNL     1       0.768   0.994   3.106  0.00  0.00    +0.055 A 
ATOM     11  H   UNL     1       3.248   2.718   4.279  0.00  0.00    +0.165 HD
ENDROOT
BRANCH   1  18
ATOM     12  C   UNL     1      -0.019   1.526   0.010  0.00  0.00    +0.030 C 
ATOM     13  C   UNL     1       0.002  -0.004   0.002  0.00  0.00    +0.096 C 
ATOM     14  C   UNL     1      -1.434  -0.540   0.026  0.00  0.00    +0.182 C 
ATOM     15  O   UNL     1      -1.404  -1.958   0.205  0.00  0.00    -0.376 OA
ATOM     16  C   UNL     1      -0.827  -2.379   1.443  0.00  0.00    +0.178 C 
ATOM     17  C   UNL     1       0.640  -1.938   1.492  0.00  0.00    +0.133 C 
ATOM     18  N   UNL     1       0.702  -0.497   1.199  0.00  0.00    -0.322 N 
ENDBRANCH   1  18
BRANCH  10  19
ATOM     19  C   UNL     1      -0.660   0.740   3.389  0.00  0.00    +0.166 C 
ATOM     20  N   UNL     1      -1.340  -0.070   2.630  0.00  0.00    -0.071 NA
ATOM     21  N   UNL     1      -1.274   1.364   4.463  0.00  0.00    -0.340 N 
ATOM     22  H   UNL     1      -0.767   1.967   5.028  0.00  0.00    +0.144 HD
ATOM     23  H   UNL     1      -2.212   1.197   4.649  0.00  0.00    +0.144 HD
BRANCH  20  24
ATOM     24  O   UNL     1      -2.708  -0.313   2.901  0.00  0.00    -0.408 OA
ATOM     25  H   UNL     1      -3.129  -0.927   2.284  0.00  0.00    +0.328 HD
ENDBRANCH  20  24
ENDBRANCH  10  19
TORSDOF 3
