REMARK  Name = ZINC39669553
REMARK  6 active torsions:
REMARK  status: ('A' for Active; 'I' for Inactive)
REMARK    1  A    between atoms: C_1  and  C_2
REMARK    2  A    between atoms: C_5  and  C_8
REMARK    3  A    between atoms: C_8  and  C_9
REMARK    4  A    between atoms: C_13  and  C_22
REMARK    5  A    between atoms: N_24  and  C_25
REMARK    6  A    between atoms: C_25  and  C_26
REMARK                            x       y       z     vdW  Elec       q    Type
REMARK                         _______ _______ _______ _____ _____    ______ ____
ROOT
ATOM      1  C   UNL     1       1.193  -4.798   0.083  0.00  0.00    +0.220 C 
ATOM      2  O   UNL     1       2.036  -3.927   0.118  0.00  0.00    -0.275 OA
ATOM      3  N   UNL     1       1.563  -6.093   0.034  0.00  0.00    -0.300 N 
ATOM      4  C   UNL     1       0.688  -7.287  -0.021  0.00  0.00    +0.121 C 
ATOM      5  C   UNL     1       1.397  -8.247  -1.002  0.00  0.00    +0.100 C 
ATOM      6  C   UNL     1       2.874  -7.821  -0.968  0.00  0.00    -0.004 C 
ATOM      7  C   UNL     1       2.940  -6.644   0.015  0.00  0.00    +0.115 C 
ATOM      8  C   UNL     1       3.326  -7.369  -2.354  0.00  0.00    -0.010 C 
ATOM      9  C   UNL     1       4.813  -7.005  -2.308  0.00  0.00    -0.082 C 
ATOM     10  N   UNL     1       5.591  -8.172  -1.874  0.00  0.00    +0.379 N 
ATOM     11  C   UNL     1       5.215  -8.544  -0.504  0.00  0.00    -0.082 C 
ATOM     12  C   UNL     1       3.745  -8.972  -0.474  0.00  0.00    -0.010 C 
ATOM     13  H   UNL     1       5.406  -8.947  -2.494  0.00  0.00    -0.086 HD
ATOM     14  H   UNL     1       6.574  -7.949  -1.903  0.00  0.00    -0.086 HD
ENDROOT
BRANCH   5  15
ATOM     15  C   UNL     1       0.834  -8.088  -2.391  0.00  0.00    +0.218 C 
ATOM     16  O   UNL     1       0.396  -7.015  -2.748  0.00  0.00    -0.275 OA
ATOM     17  N   UNL     1       0.818  -9.138  -3.236  0.00  0.00    -0.315 N 
ATOM     18  H   UNL     1       1.169  -9.996  -2.950  0.00  0.00    +0.149 HD
BRANCH  17  19
ATOM     19  C   UNL     1       0.271  -8.984  -4.586  0.00  0.00    +0.109 C 
BRANCH  19  20
ATOM     20  C   UNL     1       0.371 -10.315  -5.332  0.00  0.00    +0.024 C 
ATOM     21  C   UNL     1      -0.310 -10.189  -6.697  0.00  0.00    +0.008 C 
ATOM     22  C   UNL     1      -0.239 -11.530  -7.431  0.00  0.00    +0.019 C 
ATOM     23  C   UNL     1       1.229 -11.907  -7.656  0.00  0.00    +0.108 C 
ATOM     24  N   UNL     1       1.926 -11.889  -6.363  0.00  0.00    -0.299 N 
ATOM     25  C   UNL     1       1.846 -10.679  -5.534  0.00  0.00    +0.113 C 
ATOM     26  C   UNL     1       2.644 -12.991  -5.934  0.00  0.00    +0.218 A 
ATOM     27  N   UNL     1       3.257 -12.947  -4.760  0.00  0.00    -0.223 NA
ATOM     28  C   UNL     1       3.951 -13.983  -4.321  0.00  0.00    +0.116 A 
ATOM     29  C   UNL     1       4.032 -15.124  -5.103  0.00  0.00    +0.039 A 
ATOM     30  C   UNL     1       3.379 -15.137  -6.325  0.00  0.00    +0.116 A 
ATOM     31  N   UNL     1       2.697 -14.068  -6.704  0.00  0.00    -0.223 NA
ENDBRANCH  19  20
ENDBRANCH  17  19
ENDBRANCH   5  15
BRANCH   1  32
ATOM     32  C   UNL     1      -0.269  -4.433   0.094  0.00  0.00    +0.131 C 
BRANCH  32  37
ATOM     33  C   UNL     1      -0.821   1.315   0.314  0.00  0.00    +0.044 C 
ATOM     34  C   UNL     1      -0.677  -0.184   0.257  0.00  0.00    -0.050 A 
ATOM     35  C   UNL     1      -0.607  -0.825  -0.966  0.00  0.00    +0.003 A 
ATOM     36  C   UNL     1      -0.475  -2.200  -1.019  0.00  0.00    +0.004 A 
ATOM     37  C   UNL     1      -0.412  -2.934   0.151  0.00  0.00    -0.039 A 
ATOM     38  C   UNL     1      -0.481  -2.292   1.374  0.00  0.00    +0.004 A 
ATOM     39  C   UNL     1      -0.608  -0.917   1.427  0.00  0.00    +0.003 A 
ENDBRANCH  32  37
ENDBRANCH   1  32
TORSDOF 5
