REMARK  Name = ZINC66713423
REMARK  3 active torsions:
REMARK  status: ('A' for Active; 'I' for Inactive)
REMARK    1  A    between atoms: C_1  and  C_2
REMARK    2  A    between atoms: C_6  and  C_21
REMARK    3  A    between atoms: C_10  and  C_12
REMARK                            x       y       z     vdW  Elec       q    Type
REMARK                         _______ _______ _______ _____ _____    ______ ____
ROOT
ATOM      1  C   UNL     1      -0.091   1.502   0.058  0.00  0.00    +0.030 C 
ATOM      2  C   UNL     1       0.235   0.025  -0.176  0.00  0.00    +0.099 C 
ATOM      3  C   UNL     1      -1.064  -0.785  -0.255  0.00  0.00    +0.182 C 
ATOM      4  O   UNL     1      -0.748  -2.179  -0.286  0.00  0.00    -0.369 OA
ATOM      5  C   UNL     1      -0.081  -2.654   0.885  0.00  0.00    +0.166 C 
ATOM      6  C   UNL     1       1.269  -1.940   1.021  0.00  0.00    +0.144 C 
ATOM      7  N   UNL     1       1.037  -0.489   0.946  0.00  0.00    -0.293 N 
ATOM      8  C   UNL     1       1.542   0.344   1.876  0.00  0.00    +0.219 C 
ATOM      9  O   UNL     1       1.271   1.526   1.844  0.00  0.00    -0.275 OA
ENDROOT
BRANCH   8  10
ATOM     10  C   UNL     1       2.445  -0.192   2.958  0.00  0.00    +0.078 C 
ATOM     11  C   UNL     1       1.628  -1.057   3.921  0.00  0.00    +0.032 C 
ATOM     12  C   UNL     1       2.555  -1.629   4.998  0.00  0.00    +0.110 C 
ATOM     13  N   UNL     1       3.271  -0.519   5.643  0.00  0.00    -0.286 N 
ATOM     14  C   UNL     1       4.015   0.426   4.799  0.00  0.00    +0.110 C 
ATOM     15  C   UNL     1       3.072   0.975   3.724  0.00  0.00    +0.032 C 
ATOM     16  C   UNL     1       3.246  -0.372   6.982  0.00  0.00    +0.300 C 
ATOM     17  O   UNL     1       2.551  -1.103   7.662  0.00  0.00    -0.253 OA
ATOM     18  N   UNL     1       3.992   0.586   7.569  0.00  0.00    -0.313 N 
ATOM     19  H   UNL     1       4.489   1.215   7.023  0.00  0.00    +0.146 HD
ATOM     20  H   UNL     1       4.030   0.646   8.536  0.00  0.00    +0.146 HD
ENDBRANCH   8  10
BRANCH   5  21
ATOM     21  C   UNL     1       0.144  -4.140   0.767  0.00  0.00    -0.017 A 
ATOM     22  C   UNL     1       0.528  -4.688  -0.443  0.00  0.00    +0.006 A 
ATOM     23  C   UNL     1       0.734  -6.050  -0.550  0.00  0.00    +0.000 A 
ATOM     24  C   UNL     1       0.558  -6.865   0.552  0.00  0.00    +0.000 A 
ATOM     25  C   UNL     1       0.175  -6.317   1.763  0.00  0.00    +0.000 A 
ATOM     26  C   UNL     1      -0.027  -4.954   1.871  0.00  0.00    +0.006 A 
ENDBRANCH   5  21
TORSDOF 2
