REMARK  Name = ZINC40259159
REMARK  5 active torsions:
REMARK  status: ('A' for Active; 'I' for Inactive)
REMARK    1  A    between atoms: C_1  and  C_2
REMARK    2  A    between atoms: C_4  and  C_8
REMARK    3  A    between atoms: C_5  and  C_7
REMARK    4  A    between atoms: C_8  and  C_10
REMARK    5  A    between atoms: C_8  and  O_21
REMARK                            x       y       z     vdW  Elec       q    Type
REMARK                         _______ _______ _______ _____ _____    ______ ____
ROOT
ATOM      1  C   UNL     1      -1.606  -3.884   1.404  0.00  0.00    -0.011 A 
ATOM      2  C   UNL     1      -2.620  -3.373   2.196  0.00  0.00    +0.009 A 
ATOM      3  C   UNL     1      -2.782  -3.821   3.493  0.00  0.00    +0.030 A 
ATOM      4  C   UNL     1      -1.925  -4.784   4.001  0.00  0.00    +0.087 A 
ATOM      5  C   UNL     1      -0.903  -5.300   3.204  0.00  0.00    +0.157 A 
ATOM      6  C   UNL     1      -0.752  -4.848   1.903  0.00  0.00    +0.055 A 
ATOM      7  O   UNL     1      -0.232  -6.212   3.950  0.00  0.00    -0.408 OA
ATOM      8  C   UNL     1      -0.791  -6.282   5.168  0.00  0.00    +0.419 A 
ATOM      9  O   UNL     1      -0.420  -7.007   6.071  0.00  0.00    -0.223 OA
ATOM     10  N   UNL     1      -1.829  -5.424   5.236  0.00  0.00    -0.288 N 
ATOM     11  H   UNL     1      -2.404  -5.279   6.004  0.00  0.00    +0.172 HD
ENDROOT
BRANCH   1  12
ATOM     12  C   UNL     1      -1.437  -3.390  -0.009  0.00  0.00    +0.178 C 
BRANCH  12  16
ATOM     13  C   UNL     1      -0.018   1.503   0.010  0.00  0.00    +0.086 C 
ATOM     14  C   UNL     1       0.002  -0.004   0.002  0.00  0.00    +0.103 A 
ATOM     15  C   UNL     1      -1.078  -0.805   0.003  0.00  0.00    +0.051 A 
ATOM     16  C   UNL     1      -0.601  -2.136  -0.007  0.00  0.00    +0.026 A 
ATOM     17  C   UNL     1       0.742  -2.069  -0.013  0.00  0.00    +0.108 A 
ATOM     18  O   UNL     1       1.102  -0.775  -0.013  0.00  0.00    -0.465 OA
ATOM     19  C   UNL     1       1.684  -3.245  -0.023  0.00  0.00    +0.086 C 
ENDBRANCH  12  16
BRANCH  12  20
ATOM     20  O   UNL     1      -2.720  -3.106  -0.571  0.00  0.00    -0.382 OA
ATOM     21  H   UNL     1      -3.219  -2.431  -0.091  0.00  0.00    +0.211 HD
ENDBRANCH  12  20
ENDBRANCH   1  12
TORSDOF 3
