REMARK  Name = ZINC06567076
REMARK  7 active torsions:
REMARK  status: ('A' for Active; 'I' for Inactive)
REMARK    1  A    between atoms: C_1  and  C_2
REMARK    2  A    between atoms: C_7  and  N_8
REMARK    3  A    between atoms: C_9  and  C_23
REMARK    4  A    between atoms: C_12  and  S_13
REMARK    5  A    between atoms: S_13  and  C_14
REMARK    6  A    between atoms: C_14  and  C_16
REMARK    7  A    between atoms: C_14  and  C_17
REMARK                            x       y       z     vdW  Elec       q    Type
REMARK                         _______ _______ _______ _____ _____    ______ ____
ROOT
ATOM      1  N   UNL     1      -2.429   1.039   0.019  0.00  0.00    -0.287 N 
ATOM      2  C   UNL     1      -3.135   0.612   1.133  0.00  0.00    +0.074 A 
ATOM      3  C   UNL     1      -4.236  -0.037   0.670  0.00  0.00    +0.140 A 
ATOM      4  N   UNL     1      -4.208  -0.009  -0.668  0.00  0.00    -0.229 NA
ATOM      5  C   UNL     1      -3.137   0.635  -1.075  0.00  0.00    +0.175 A 
ENDROOT
BRANCH   1  12
ATOM      6  C   UNL     1      -2.551   3.883   0.046  0.00  0.00    +0.046 C 
ATOM      7  C   UNL     1      -1.239   3.142   0.030  0.00  0.00    -0.027 A 
ATOM      8  C   UNL     1      -0.049   3.845   0.023  0.00  0.00    +0.005 A 
ATOM      9  C   UNL     1       1.155   3.166   0.008  0.00  0.00    +0.000 A 
ATOM     10  C   UNL     1       1.173   1.783   0.000  0.00  0.00    +0.002 A 
ATOM     11  C   UNL     1      -0.013   1.076   0.008  0.00  0.00    +0.026 A 
ATOM     12  C   UNL     1      -1.224   1.754   0.017  0.00  0.00    +0.052 A 
ENDBRANCH   1  12
BRANCH   2  13
ATOM     13  C   UNL     1      -2.762   0.820   2.548  0.00  0.00    +0.000 A 
ATOM     14  C   UNL     1      -1.646   1.594   2.872  0.00  0.00    +0.011 A 
ATOM     15  C   UNL     1      -1.306   1.788   4.195  0.00  0.00    +0.020 A 
ATOM     16  C   UNL     1      -2.063   1.209   5.199  0.00  0.00    +0.041 A 
ATOM     17  C   UNL     1      -3.168   0.437   4.884  0.00  0.00    +0.020 A 
ATOM     18  C   UNL     1      -3.521   0.239   3.565  0.00  0.00    +0.011 A 
ATOM     19 CL   UNL     1      -1.624   1.453   6.861  0.00  0.00    -0.084 Cl
ENDBRANCH   2  13
BRANCH   5  20
ATOM     20  S   UNL     1      -2.688   0.926  -2.754  0.00  0.00    -0.075 S 
BRANCH  20  21
ATOM     21  C   UNL     1      -4.072   0.117  -3.594  0.00  0.00    +0.137 C 
ATOM     22  C   UNL     1      -5.369   0.864  -3.274  0.00  0.00    +0.029 C 
BRANCH  21  23
ATOM     23  C   UNL     1      -3.837   0.135  -5.082  0.00  0.00    +0.233 C 
ATOM     24  O   UNL     1      -3.057   0.929  -5.563  0.00  0.00    -0.274 OA
ATOM     25  N   UNL     1      -4.492  -0.732  -5.879  0.00  0.00    -0.239 N 
ATOM     26  C   UNL     1      -4.281  -0.716  -7.210  0.00  0.00    +0.303 C 
ATOM     27  O   UNL     1      -3.500   0.080  -7.692  0.00  0.00    -0.253 OA
ATOM     28  N   UNL     1      -4.937  -1.583  -8.006  0.00  0.00    -0.313 N 
ATOM     29  H   UNL     1      -5.116  -1.367  -5.494  0.00  0.00    +0.159 HD
ATOM     30  H   UNL     1      -5.561  -2.219  -7.622  0.00  0.00    +0.146 HD
ATOM     31  H   UNL     1      -4.785  -1.572  -8.964  0.00  0.00    +0.146 HD
ENDBRANCH  21  23
ENDBRANCH  20  21
ENDBRANCH   5  20
TORSDOF 5
