REMARK  Name = ZINC21811177
REMARK  5 active torsions:
REMARK  status: ('A' for Active; 'I' for Inactive)
REMARK    1  A    between atoms: C_1  and  C_2
REMARK    2  A    between atoms: C_3  and  N_21
REMARK    3  A    between atoms: C_7  and  S_8
REMARK    4  A    between atoms: S_8  and  N_11
REMARK    5  A    between atoms: C_15  and  C_18
REMARK                            x       y       z     vdW  Elec       q    Type
REMARK                         _______ _______ _______ _____ _____    ______ ____
ROOT
ATOM      1  S   UNL     1      -3.504   6.070  -0.909  0.00  0.00    +0.061 S 
ATOM      2  O   UNL     1      -4.547   5.390  -1.594  0.00  0.00    -0.153 OA
ATOM      3  O   UNL     1      -3.743   7.209  -0.094  0.00  0.00    -0.153 OA
ENDROOT
BRANCH   1  10
ATOM      4  C   UNL     1      -0.996   7.654  -0.322  0.00  0.00    +0.047 C 
ATOM      5  C   UNL     1      -1.217   7.286  -1.767  0.00  0.00    -0.004 A 
ATOM      6  C   UNL     1      -0.294   7.670  -2.731  0.00  0.00    +0.029 A 
ATOM      7  C   UNL     1      -0.504   7.333  -4.062  0.00  0.00    +0.023 A 
ATOM      8  C   UNL     1      -1.627   6.614  -4.422  0.00  0.00    +0.004 A 
ATOM      9  C   UNL     1      -2.541   6.229  -3.458  0.00  0.00    +0.029 A 
ATOM     10  C   UNL     1      -2.335   6.562  -2.132  0.00  0.00    +0.110 A 
BRANCH   6  11
ATOM     11  N   UNL     1       0.841   8.396  -2.364  0.00  0.00    -0.358 N 
ATOM     12  H   UNL     1       1.571   8.700  -3.129  0.00  0.00    +0.142 HD
ATOM     13  H   UNL     1       1.004   8.666  -1.310  0.00  0.00    +0.142 HD
ENDBRANCH   6  11
ENDBRANCH   1  10
BRANCH   1  14
ATOM     14  N   UNL     1      -2.760   4.947   0.055  0.00  0.00    -0.176 NA
ATOM     15  C   UNL     1      -2.129   5.346   1.320  0.00  0.00    +0.109 C 
ATOM     16  C   UNL     1      -0.680   4.849   1.327  0.00  0.00    +0.018 C 
ATOM     17  C   UNL     1      -0.661   3.342   1.064  0.00  0.00    +0.015 C 
ATOM     18  C   UNL     1      -1.263   3.055  -0.314  0.00  0.00    +0.090 C 
ATOM     19  C   UNL     1      -2.719   3.532  -0.340  0.00  0.00    +0.122 C 
BRANCH  18  20
ATOM     20  C   UNL     1      -1.214   1.574  -0.586  0.00  0.00    +0.215 C 
ATOM     21  O   UNL     1      -2.241   0.959  -0.784  0.00  0.00    -0.276 OA
ATOM     22  N   UNL     1      -0.029   0.932  -0.609  0.00  0.00    -0.329 N 
ATOM     23  H   UNL     1       0.006  -0.150  -0.807  0.00  0.00    +0.145 HD
ATOM     24  H   UNL     1       0.902   1.489  -0.429  0.00  0.00    +0.145 HD
ENDBRANCH  18  20
ENDBRANCH   1  14
TORSDOF 4
