REMARK  Name = ZINC49446238
REMARK  5 active torsions:
REMARK  status: ('A' for Active; 'I' for Inactive)
REMARK    1  A    between atoms: C_1  and  C_2
REMARK    2  A    between atoms: C_3  and  C_7
REMARK    3  A    between atoms: N_9  and  N_10
REMARK    4  A    between atoms: C_11  and  C_13
REMARK    5  A    between atoms: C_18  and  O_19
REMARK                            x       y       z     vdW  Elec       q    Type
REMARK                         _______ _______ _______ _____ _____    ______ ____
ROOT
ATOM      1  N   UNL     1      -4.827  -0.946   0.021  0.00  0.00    -0.230 N 
ATOM      2  C   UNL     1      -5.800  -1.878   0.020  0.00  0.00    +0.264 C 
ATOM      3  O   UNL     1      -5.511  -3.059   0.011  0.00  0.00    -0.269 OA
ATOM      4  H   UNL     1      -5.058  -0.004   0.028  0.00  0.00    +0.173 HD
ENDROOT
BRANCH   2   5
ATOM      5  C   UNL     1      -7.216  -1.466   0.029  0.00  0.00    +0.080 A 
ATOM      6  C   UNL     1      -7.553  -0.110   0.034  0.00  0.00    +0.018 A 
ATOM      7  C   UNL     1      -8.877   0.269   0.042  0.00  0.00    +0.016 A 
ATOM      8  C   UNL     1      -9.879  -0.690   0.047  0.00  0.00    +0.021 A 
ATOM      9  C   UNL     1      -9.559  -2.034   0.044  0.00  0.00    +0.061 A 
ATOM     10  C   UNL     1      -8.231  -2.433   0.029  0.00  0.00    +0.130 A 
ATOM     11 BR   UNL     1     -11.693  -0.155   0.059  0.00  0.00    -0.050 Br
BRANCH  10  12
ATOM     12  O   UNL     1      -7.916  -3.752   0.019  0.00  0.00    -0.506 OA
ATOM     13  H   UNL     1      -7.820  -4.140   0.900  0.00  0.00    +0.292 HD
ENDBRANCH  10  12
ENDBRANCH   2   5
BRANCH   1  16
ATOM     14  C   UNL     1      -2.508  -0.405   0.012  0.00  0.00    +0.263 C 
ATOM     15  O   UNL     1      -2.798   0.776   0.021  0.00  0.00    -0.269 OA
ATOM     16  N   UNL     1      -3.482  -1.337   0.011  0.00  0.00    -0.230 N 
ATOM     17  H   UNL     1      -3.251  -2.280   0.005  0.00  0.00    +0.173 HD
BRANCH  14  20
ATOM     18  C   UNL     1      -0.018   1.503   0.010  0.00  0.00    +0.087 C 
ATOM     19  C   UNL     1       0.002  -0.004   0.002  0.00  0.00    +0.114 A 
ATOM     20  C   UNL     1      -1.093  -0.817   0.003  0.00  0.00    +0.079 A 
ATOM     21  C   UNL     1      -0.567  -2.190  -0.008  0.00  0.00    +0.054 A 
ATOM     22  C   UNL     1       0.769  -2.073  -0.014  0.00  0.00    +0.196 A 
ATOM     23  O   UNL     1       1.097  -0.771  -0.013  0.00  0.00    -0.467 OA
ENDBRANCH  14  20
ENDBRANCH   1  16
TORSDOF 4
