REMARK  Name = ZINC63180043
REMARK  6 active torsions:
REMARK  status: ('A' for Active; 'I' for Inactive)
REMARK    1  A    between atoms: C_7  and  C_10
REMARK    2  A    between atoms: C_10  and  C_11
REMARK    3  A    between atoms: C_11  and  C_13
REMARK    4  A    between atoms: C_11  and  N_29
REMARK    5  A    between atoms: N_15  and  C_16
REMARK    6  A    between atoms: C_30  and  C_32
REMARK                            x       y       z     vdW  Elec       q    Type
REMARK                         _______ _______ _______ _____ _____    ______ ____
ROOT
ATOM      1  C   UNL     1       0.464  -3.680  -1.300  0.00  0.00    +0.163 C 
ENDROOT
BRANCH   1   2
ATOM      2  C   UNL     1      -0.582  -4.764  -1.303  0.00  0.00    +0.238 C 
ATOM      3  O   UNL     1      -0.250  -5.928  -1.223  0.00  0.00    -0.273 OA
ATOM      4  N   UNL     1      -1.887  -4.441  -1.394  0.00  0.00    -0.284 N 
ATOM      5  H   UNL     1      -2.158  -3.510  -1.381  0.00  0.00    +0.155 HD
BRANCH   4   6
ATOM      6  C   UNL     1      -2.853  -5.450  -1.508  0.00  0.00    +0.037 A 
ATOM      7  C   UNL     1      -4.109  -5.276  -0.943  0.00  0.00    +0.027 A 
ATOM      8  C   UNL     1      -5.063  -6.270  -1.055  0.00  0.00    +0.051 A 
ATOM      9  C   UNL     1      -4.768  -7.441  -1.730  0.00  0.00    +0.167 A 
ATOM     10  C   UNL     1      -3.507  -7.619  -2.299  0.00  0.00    +0.169 A 
ATOM     11  C   UNL     1      -2.554  -6.622  -2.192  0.00  0.00    +0.073 A 
ATOM     12  O   UNL     1      -3.477  -8.848  -2.905  0.00  0.00    -0.447 OA
ATOM     13  C   UNL     1      -4.538  -9.573  -2.266  0.00  0.00    +0.254 C 
ATOM     14  O   UNL     1      -5.517  -8.562  -1.984  0.00  0.00    -0.448 OA
ATOM     15  C   UNL     1      -5.108 -10.652  -3.194  0.00  0.00    +0.093 C 
ATOM     16  C   UNL     1      -4.424 -11.958  -2.712  0.00  0.00    +0.008 C 
ATOM     17  C   UNL     1      -4.361 -11.768  -1.175  0.00  0.00    +0.008 C 
ATOM     18  C   UNL     1      -4.059 -10.263  -0.990  0.00  0.00    +0.093 C 
ENDBRANCH   4   6
ENDBRANCH   1   2
BRANCH   1  19
ATOM     19  N   UNL     1       1.761  -4.252  -1.670  0.00  0.00    -0.299 N 
ATOM     20  C   UNL     1       2.305  -5.231  -0.920  0.00  0.00    +0.251 C 
ATOM     21  O   UNL     1       1.718  -5.640   0.065  0.00  0.00    -0.270 OA
ATOM     22  H   UNL     1       2.229  -3.926  -2.455  0.00  0.00    +0.150 HD
BRANCH  20  23
ATOM     23  C   UNL     1       3.603  -5.803  -1.290  0.00  0.00    +0.074 A 
ATOM     24  C   UNL     1       4.325  -6.808  -0.665  0.00  0.00    +0.021 A 
ATOM     25  C   UNL     1       5.524  -7.135  -1.252  0.00  0.00    +0.008 A 
ATOM     26  C   UNL     1       5.912  -6.473  -2.370  0.00  0.00    +0.046 A 
ATOM     27  S   UNL     1       4.660  -5.393  -2.665  0.00  0.00    -0.092 S 
ENDBRANCH  20  23
ENDBRANCH   1  19
BRANCH   1  28
ATOM     28  C   UNL     1       0.558  -3.065   0.098  0.00  0.00    +0.065 C 
BRANCH  28  35
ATOM     29  C   UNL     1      -0.070   1.451  -0.411  0.00  0.00    +0.001 A 
ATOM     30  C   UNL     1       1.119   2.192  -0.374  0.00  0.00    +0.002 A 
ATOM     31  C   UNL     1       2.329   1.620  -0.203  0.00  0.00    +0.026 A 
ATOM     32  C   UNL     1       2.443   0.210  -0.052  0.00  0.00    +0.043 A 
ATOM     33  N   UNL     1       3.483  -0.568   0.123  0.00  0.00    -0.380 N 
ATOM     34  C   UNL     1       3.019  -1.956   0.218  0.00  0.00    +0.144 C 
ATOM     35  C   UNL     1       1.514  -1.901   0.072  0.00  0.00    -0.039 C 
ATOM     36  C   UNL     1       1.201  -0.595  -0.087  0.00  0.00    -0.001 A 
ATOM     37  C   UNL     1      -0.075   0.106  -0.277  0.00  0.00    +0.010 A 
ATOM     38  H   UNL     1       4.406  -0.275   0.180  0.00  0.00    +0.160 HD
ENDBRANCH  28  35
ENDBRANCH   1  28
TORSDOF 6
