REMARK  Name = ZINC39795058
REMARK  6 active torsions:
REMARK  status: ('A' for Active; 'I' for Inactive)
REMARK    1  A    between atoms: C_1  and  C_2
REMARK    2  A    between atoms: C_5  and  C_11
REMARK    3  A    between atoms: C_6  and  N_8
REMARK    4  A    between atoms: C_14  and  C_16
REMARK    5  A    between atoms: C_32  and  C_34
REMARK    6  A    between atoms: C_32  and  C_35
REMARK                            x       y       z     vdW  Elec       q    Type
REMARK                         _______ _______ _______ _____ _____    ______ ____
ROOT
ATOM      1  C   UNL     1       1.351  -7.508   1.011  0.00  0.00    +0.128 C 
ATOM      2  C   UNL     1       2.795  -7.453   0.607  0.00  0.00    +0.070 A 
ATOM      3  C   UNL     1       3.751  -7.035   1.482  0.00  0.00    +0.113 A 
ATOM      4  N   UNL     1       5.065  -6.989   1.081  0.00  0.00    -0.295 N 
ATOM      5  C   UNL     1       5.407  -7.356  -0.167  0.00  0.00    +0.328 A 
ATOM      6  O   UNL     1       6.574  -7.308  -0.507  0.00  0.00    -0.247 OA
ATOM      7  N   UNL     1       4.478  -7.775  -1.045  0.00  0.00    -0.275 N 
ATOM      8  C   UNL     1       3.179  -7.835  -0.692  0.00  0.00    +0.260 A 
ATOM      9  O   UNL     1       2.342  -8.217  -1.492  0.00  0.00    -0.267 OA
ATOM     10  N   UNL     1       3.404  -6.666   2.758  0.00  0.00    -0.303 N 
ATOM     11  C   UNL     1       2.212  -7.064   3.301  0.00  0.00    +0.017 C 
ATOM     12  C   UNL     1       1.203  -7.482   2.511  0.00  0.00    +0.027 C 
ATOM     13  C   UNL     1      -0.018  -7.907   3.063  0.00  0.00    +0.162 C 
ATOM     14  O   UNL     1      -0.911  -8.272   2.324  0.00  0.00    -0.292 OA
ATOM     15  C   UNL     1      -0.240  -7.920   4.550  0.00  0.00    +0.086 C 
ATOM     16  C   UNL     1       1.105  -8.124   5.254  0.00  0.00    -0.023 C 
ATOM     17  C   UNL     1       2.058  -7.019   4.801  0.00  0.00    +0.058 C 
ATOM     18  C   UNL     1       1.682  -9.490   4.875  0.00  0.00    +0.011 C 
ATOM     19  C   UNL     1       0.910  -8.046   6.769  0.00  0.00    +0.011 C 
ATOM     20  H   UNL     1       4.745  -8.036  -1.940  0.00  0.00    +0.173 HD
ATOM     21  H   UNL     1       4.010  -6.116   3.279  0.00  0.00    +0.153 HD
ATOM     22  H   UNL     1       5.748  -6.691   1.702  0.00  0.00    +0.172 HD
ENDROOT
BRANCH   1  26
ATOM     23  C   UNL     1       0.058  -4.251  -0.021  0.00  0.00    +0.137 A 
ATOM     24  C   UNL     1      -0.775  -5.056  -0.733  0.00  0.00    +0.050 A 
ATOM     25  C   UNL     1      -0.403  -6.383  -0.443  0.00  0.00    +0.046 A 
ATOM     26  C   UNL     1       0.628  -6.324   0.423  0.00  0.00    +0.118 A 
ATOM     27  O   UNL     1       0.908  -5.034   0.671  0.00  0.00    -0.459 OA
BRANCH  23  32
ATOM     28  C   UNL     1      -0.018   1.503   0.010  0.00  0.00    +0.044 C 
ATOM     29  C   UNL     1       0.002  -0.004   0.002  0.00  0.00    -0.048 A 
ATOM     30  C   UNL     1       0.006  -0.686  -1.202  0.00  0.00    +0.004 A 
ATOM     31  C   UNL     1       0.024  -2.065  -1.217  0.00  0.00    +0.014 A 
ATOM     32  C   UNL     1       0.039  -2.773  -0.013  0.00  0.00    +0.047 A 
ATOM     33  C   UNL     1       0.036  -2.079   1.198  0.00  0.00    +0.137 A 
ATOM     34  C   UNL     1       0.023  -0.699   1.198  0.00  0.00    +0.036 A 
BRANCH  33  35
ATOM     35  N   UNL     1       0.051  -2.821   2.478  0.00  0.00    +0.057 N 
ATOM     36  O   UNL     1       0.049  -2.218   3.526  0.00  0.00    -0.126 OA
ATOM     37  O   UNL     1       0.067  -4.030   2.476  0.00  0.00    -0.126 OA
ENDBRANCH  33  35
ENDBRANCH  23  32
ENDBRANCH   1  26
TORSDOF 3
