REMARK  Name = ZINC19198541
REMARK  3 active torsions:
REMARK  status: ('A' for Active; 'I' for Inactive)
REMARK    1  A    between atoms: C_4  and  N_10
REMARK    2  A    between atoms: C_5  and  C_7
REMARK    3  A    between atoms: C_11  and  C_13
REMARK                            x       y       z     vdW  Elec       q    Type
REMARK                         _______ _______ _______ _____ _____    ______ ____
ROOT
ATOM      1  N   UNL     1      -2.676   4.697   0.037  0.00  0.00    -0.278 N 
ATOM      2  C   UNL     1      -1.330   4.769   0.021  0.00  0.00    +0.284 C 
ATOM      3  O   UNL     1      -0.779   5.854   0.036  0.00  0.00    -0.266 OA
ATOM      4  H   UNL     1      -3.175   3.720  -0.050  0.00  0.00    +0.155 HD
ENDROOT
BRANCH   2   5
ATOM      5  C   UNL     1      -0.528   3.538  -0.013  0.00  0.00    +0.191 A 
ATOM      6  C   UNL     1       0.829   3.490  -0.032  0.00  0.00    +0.063 A 
ATOM      7  C   UNL     1       1.183   2.071  -0.065  0.00  0.00    +0.022 A 
ATOM      8  C   UNL     1       2.391   1.369  -0.094  0.00  0.00    +0.031 A 
ATOM      9  C   UNL     1       2.380   0.003  -0.122  0.00  0.00    +0.042 A 
ATOM     10  C   UNL     1       1.176  -0.691  -0.120  0.00  0.00    +0.023 A 
ATOM     11  C   UNL     1      -0.025  -0.017  -0.091  0.00  0.00    +0.048 A 
ATOM     12  C   UNL     1      -0.039   1.373  -0.063  0.00  0.00    +0.136 A 
ATOM     13  O   UNL     1      -1.030   2.285  -0.037  0.00  0.00    -0.450 OA
ATOM     14 CL   UNL     1       3.879  -0.872  -0.158  0.00  0.00    -0.084 Cl
ENDBRANCH   2   5
BRANCH   1  18
ATOM     15  C   UNL     1      -4.944   8.174   0.414  0.00  0.00    +0.001 A 
ATOM     16  C   UNL     1      -3.759   8.187  -0.304  0.00  0.00    +0.002 A 
ATOM     17  C   UNL     1      -3.003   7.039  -0.426  0.00  0.00    +0.024 A 
ATOM     18  C   UNL     1      -3.434   5.857   0.163  0.00  0.00    +0.046 A 
ATOM     19  C   UNL     1      -4.633   5.840   0.890  0.00  0.00    +0.058 A 
ATOM     20  C   UNL     1      -5.384   7.012   1.009  0.00  0.00    +0.015 A 
BRANCH  19  21
ATOM     21  C   UNL     1      -5.098   4.593   1.525  0.00  0.00    +0.243 C 
ATOM     22  O   UNL     1      -4.396   3.601   1.504  0.00  0.00    -0.270 OA
ATOM     23  N   UNL     1      -6.303   4.552   2.129  0.00  0.00    -0.325 N 
ATOM     24  H   UNL     1      -6.650   3.622   2.603  0.00  0.00    +0.145 HD
ATOM     25  H   UNL     1      -6.939   5.449   2.148  0.00  0.00    +0.145 HD
ENDBRANCH  19  21
ENDBRANCH   1  18
TORSDOF 3
