REMARK  Name = ZINC44926349
REMARK  4 active torsions:
REMARK  status: ('A' for Active; 'I' for Inactive)
REMARK    1  A    between atoms: C_1  and  C_2
REMARK    2  A    between atoms: C_2  and  C_4
REMARK    3  A    between atoms: C_2  and  N_9
REMARK    4  A    between atoms: N_9  and  C_10
REMARK                            x       y       z     vdW  Elec       q    Type
REMARK                         _______ _______ _______ _____ _____    ______ ____
ROOT
ATOM      1  C   UNL     1      -1.978  -0.015  -1.108  0.00  0.00    -0.033 C 
ATOM      2  C   UNL     1      -3.485  -0.220  -0.937  0.00  0.00    +0.030 C 
ATOM      3  C   UNL     1      -4.162   0.029  -2.291  0.00  0.00    +0.228 C 
ATOM      4  O   UNL     1      -3.716  -0.971  -3.208  0.00  0.00    -0.492 OA
ATOM      5  C   UNL     1      -2.379  -1.197  -3.300  0.00  0.00    +0.122 A 
ATOM      6  C   UNL     1      -1.498  -0.766  -2.324  0.00  0.00    -0.019 A 
ATOM      7  C   UNL     1      -0.144  -1.024  -2.457  0.00  0.00    +0.020 A 
ATOM      8  C   UNL     1       0.331  -1.707  -3.561  0.00  0.00    +0.018 A 
ATOM      9  C   UNL     1      -0.549  -2.137  -4.538  0.00  0.00    +0.019 A 
ATOM     10  C   UNL     1      -1.897  -1.883  -4.410  0.00  0.00    +0.047 A 
ATOM     11 BR   UNL     1       2.181  -2.055  -3.733  0.00  0.00    -0.050 Br
ENDROOT
BRANCH   1  12
ATOM     12  N   UNL     1      -1.278  -0.515   0.083  0.00  0.00    +0.390 N 
ATOM     13  H   UNL     1      -1.503   0.068   0.875  0.00  0.00    -0.084 HD
ATOM     14  H   UNL     1      -0.282  -0.494  -0.078  0.00  0.00    -0.084 HD
BRANCH  12  16
ATOM     15  C   UNL     1      -1.198  -2.812  -0.761  0.00  0.00    -0.006 C 
ATOM     16  C   UNL     1      -1.701  -1.895   0.356  0.00  0.00    -0.001 C 
BRANCH  16  17
ATOM     17  C   UNL     1      -1.125  -2.346   1.673  0.00  0.00    +0.163 A 
ATOM     18  N   UNL     1      -1.765  -2.995   2.635  0.00  0.00    -0.113 NA
ATOM     19  N   UNL     1      -0.927  -3.197   3.594  0.00  0.00    -0.021 NA
ATOM     20  N   UNL     1       0.214  -2.697   3.266  0.00  0.00    -0.021 NA
ATOM     21  N   UNL     1       0.121  -2.174   2.091  0.00  0.00    -0.113 NA
ENDBRANCH  16  17
ENDBRANCH  12  16
ENDBRANCH   1  12
TORSDOF 3
