REMARK  Name = ZINC13275621
REMARK  9 active torsions:
REMARK  status: ('A' for Active; 'I' for Inactive)
REMARK    1  A    between atoms: C_1  and  C_2
REMARK    2  A    between atoms: N_4  and  C_5
REMARK    3  A    between atoms: C_8  and  S_11
REMARK    4  A    between atoms: S_11  and  C_12
REMARK    5  A    between atoms: C_12  and  C_13
REMARK    6  A    between atoms: N_15  and  C_16
REMARK    7  A    between atoms: C_18  and  O_25
REMARK    8  A    between atoms: C_19  and  C_23
REMARK    9  A    between atoms: O_25  and  C_26
REMARK                            x       y       z     vdW  Elec       q    Type
REMARK                         _______ _______ _______ _____ _____    ______ ____
ROOT
ATOM      1  C   UNL     1       0.888   9.973   0.487  0.00  0.00    +0.227 C 
ATOM      2  O   UNL     1      -0.082  10.694   0.591  0.00  0.00    -0.275 OA
ATOM      3  N   UNL     1       2.126  10.507   0.470  0.00  0.00    -0.284 N 
ATOM      4  H   UNL     1       2.897   9.938   0.320  0.00  0.00    +0.155 HD
ENDROOT
BRANCH   3   5
ATOM      5  C   UNL     1       2.297  11.877   0.667  0.00  0.00    +0.055 A 
ATOM      6  C   UNL     1       1.351  12.770   0.183  0.00  0.00    +0.071 A 
ATOM      7  C   UNL     1       1.518  14.129   0.378  0.00  0.00    +0.136 A 
ATOM      8  C   UNL     1       2.646  14.602   1.066  0.00  0.00    +0.106 A 
ATOM      9  C   UNL     1       3.595  13.695   1.550  0.00  0.00    +0.040 A 
ATOM     10  C   UNL     1       3.416  12.344   1.355  0.00  0.00    +0.063 A 
ATOM     11 CL   UNL     1       4.590  11.220   1.963  0.00  0.00    -0.082 Cl
BRANCH   8  12
ATOM     12  C   UNL     1       2.831  16.047   1.277  0.00  0.00    +0.390 C 
ATOM     13  O   UNL     1       2.005  16.833   0.856  0.00  0.00    -0.240 OA
ATOM     14  O   UNL     1       3.915  16.498   1.938  0.00  0.00    -0.240 OA
ENDBRANCH   8  12
BRANCH   7  15
ATOM     15  O   UNL     1       0.594  15.003  -0.095  0.00  0.00    -0.494 OA
ATOM     16  C   UNL     1      -0.529  14.450  -0.786  0.00  0.00    +0.277 C 
ENDBRANCH   7  15
ENDBRANCH   3   5
BRANCH   1  17
ATOM     17  C   UNL     1       0.709   8.481   0.378  0.00  0.00    +0.170 C 
BRANCH  17  18
ATOM     18  S   UNL     1      -1.059   8.078   0.431  0.00  0.00    -0.116 S 
BRANCH  18  22
ATOM     19  C   UNL     1      -1.165   3.562   0.082  0.00  0.00    +0.033 A 
ATOM     20  C   UNL     1       0.052   4.229   0.081  0.00  0.00    +0.024 A 
ATOM     21  C   UNL     1       0.085   5.606   0.182  0.00  0.00    +0.016 A 
ATOM     22  C   UNL     1      -1.100   6.322   0.295  0.00  0.00    +0.008 A 
ATOM     23  C   UNL     1      -2.318   5.653   0.301  0.00  0.00    +0.016 A 
ATOM     24  C   UNL     1      -2.350   4.277   0.195  0.00  0.00    +0.024 A 
BRANCH  19  28
ATOM     25  C   UNL     1      -0.161   0.005  -0.643  0.00  0.00    +0.109 C 
ATOM     26  C   UNL     1      -0.190   1.512  -0.639  0.00  0.00    +0.214 C 
ATOM     27  O   UNL     1       0.691   2.138  -1.190  0.00  0.00    -0.276 OA
ATOM     28  N   UNL     1      -1.198   2.165  -0.026  0.00  0.00    -0.286 N 
ATOM     29  H   UNL     1      -1.947   1.668   0.339  0.00  0.00    +0.155 HD
ENDBRANCH  19  28
ENDBRANCH  18  22
ENDBRANCH  17  18
ENDBRANCH   1  17
TORSDOF 7
