REMARK  Name = ZINC17914866
REMARK  5 active torsions:
REMARK  status: ('A' for Active; 'I' for Inactive)
REMARK    1  A    between atoms: C_4  and  N_7
REMARK    2  A    between atoms: C_8  and  C_14
REMARK    3  A    between atoms: N_16  and  C_17
REMARK    4  A    between atoms: C_17  and  C_18
REMARK    5  A    between atoms: N_20  and  C_21
REMARK                            x       y       z     vdW  Elec       q    Type
REMARK                         _______ _______ _______ _____ _____    ______ ____
ROOT
ATOM      1  C   UNL     1       2.766  -3.112  -0.213  0.00  0.00    +0.263 C 
ATOM      2  O   UNL     1       1.610  -2.739  -0.135  0.00  0.00    -0.269 OA
ATOM      3  N   UNL     1       3.071  -4.409  -0.011  0.00  0.00    -0.301 N 
ATOM      4  H   UNL     1       3.992  -4.706  -0.073  0.00  0.00    +0.150 HD
ENDROOT
BRANCH   1   6
ATOM      5  N   UNL     1       3.679  -0.765  -0.663  0.00  0.00    -0.284 N 
ATOM      6  C   UNL     1       3.827  -2.150  -0.527  0.00  0.00    +0.127 A 
ATOM      7  C   UNL     1       5.131  -2.435  -0.740  0.00  0.00    +0.116 A 
ATOM      8  N   UNL     1       5.782  -1.259  -1.002  0.00  0.00    -0.339 N 
ATOM      9  H   UNL     1       6.729  -1.167  -1.192  0.00  0.00    +0.167 HD
ATOM     10  C   UNL     1       4.889  -0.252  -0.958  0.00  0.00    +0.163 A 
ATOM     11  S   UNL     1       5.235   1.403  -1.228  0.00  0.00    -0.013 S 
BRANCH   5  15
ATOM     12  C   UNL     1       0.130   1.380  -0.250  0.00  0.00    +0.000 A 
ATOM     13  C   UNL     1       0.727   1.266  -1.492  0.00  0.00    +0.002 A 
ATOM     14  C   UNL     1       1.903   0.556  -1.633  0.00  0.00    +0.026 A 
ATOM     15  C   UNL     1       2.487  -0.044  -0.524  0.00  0.00    +0.049 A 
ATOM     16  C   UNL     1       1.885   0.073   0.722  0.00  0.00    +0.026 A 
ATOM     17  C   UNL     1       0.709   0.784   0.856  0.00  0.00    +0.002 A 
ENDBRANCH   5  15
ENDBRANCH   1   6
BRANCH   3  18
ATOM     18  C   UNL     1       2.011  -5.370   0.303  0.00  0.00    +0.200 C 
BRANCH  18  19
ATOM     19  C   UNL     1       2.612  -6.740   0.482  0.00  0.00    +0.234 C 
ATOM     20  O   UNL     1       3.808  -6.899   0.359  0.00  0.00    -0.274 OA
ATOM     21  N   UNL     1       1.821  -7.790   0.778  0.00  0.00    -0.284 N 
ATOM     22  H   UNL     1       0.857  -7.680   0.801  0.00  0.00    +0.155 HD
BRANCH  21  23
ATOM     23  C   UNL     1       2.389  -9.040   1.053  0.00  0.00    +0.036 A 
ATOM     24  C   UNL     1       1.723 -10.202   0.688  0.00  0.00    +0.026 A 
ATOM     25  C   UNL     1       2.284 -11.435   0.960  0.00  0.00    +0.043 A 
ATOM     26  C   UNL     1       3.511 -11.513   1.596  0.00  0.00    +0.159 A 
ATOM     27  C   UNL     1       4.179 -10.354   1.962  0.00  0.00    +0.160 A 
ATOM     28  C   UNL     1       3.622  -9.118   1.686  0.00  0.00    +0.064 A 
ATOM     29  F   UNL     1       5.376 -10.432   2.583  0.00  0.00    -0.202 F 
ATOM     30  F   UNL     1       4.058 -12.719   1.862  0.00  0.00    -0.202 F 
ENDBRANCH  21  23
ENDBRANCH  18  19
ENDBRANCH   3  18
TORSDOF 5
