REMARK  Name = ZINC15931399
REMARK  2 active torsions:
REMARK  status: ('A' for Active; 'I' for Inactive)
REMARK    1  A    between atoms: C_10  and  N_11
REMARK    2  A    between atoms: C_13  and  C_23
REMARK                            x       y       z     vdW  Elec       q    Type
REMARK                         _______ _______ _______ _____ _____    ______ ____
ROOT
ATOM      1  N   UNL     1       1.411   3.286  -0.502  0.00  0.00    -0.212 NA
ATOM      2  C   UNL     1       1.299   2.059  -0.035  0.00  0.00    +0.233 A 
ATOM      3  C   UNL     1      -0.006   1.372  -0.012  0.00  0.00    +0.099 A 
ATOM      4  C   UNL     1       0.009  -0.017  -0.064  0.00  0.00    +0.030 A 
ATOM      5  C   UNL     1       1.317  -0.672  -0.137  0.00  0.00    +0.019 A 
ATOM      6  C   UNL     1       1.420  -2.031  -0.460  0.00  0.00    +0.026 A 
ATOM      7  C   UNL     1       2.662  -2.622  -0.525  0.00  0.00    +0.019 A 
ATOM      8  C   UNL     1       3.808  -1.879  -0.273  0.00  0.00    +0.019 A 
ATOM      9  C   UNL     1       3.721  -0.539   0.047  0.00  0.00    +0.048 A 
ATOM     10  C   UNL     1       2.481   0.077   0.120  0.00  0.00    +0.138 A 
ATOM     11  O   UNL     1       2.380   1.390   0.440  0.00  0.00    -0.437 OA
ATOM     12 BR   UNL     1       2.808  -4.457  -0.958  0.00  0.00    -0.050 Br
ENDROOT
BRANCH   1  22
ATOM     13  C   UNL     1       3.636   6.180   3.033  0.00  0.00    +0.001 A 
ATOM     14  C   UNL     1       2.411   5.521   2.975  0.00  0.00    +0.001 A 
ATOM     15  C   UNL     1       2.057   4.795   1.876  0.00  0.00    +0.010 A 
ATOM     16  C   UNL     1       2.935   4.715   0.789  0.00  0.00    +0.008 A 
ATOM     17  C   UNL     1       4.184   5.380   0.846  0.00  0.00    -0.016 A 
ATOM     18  C   UNL     1       4.516   6.119   1.995  0.00  0.00    +0.008 A 
ATOM     19  C   UNL     1       5.064   5.293  -0.245  0.00  0.00    +0.008 A 
ATOM     20  C   UNL     1       4.730   4.573  -1.351  0.00  0.00    +0.003 A 
ATOM     21  C   UNL     1       3.520   3.902  -1.450  0.00  0.00    +0.028 A 
ATOM     22  C   UNL     1       2.601   3.944  -0.408  0.00  0.00    +0.075 A 
ENDBRANCH   1  22
BRANCH   3  23
ATOM     23  C   UNL     1      -1.271   2.124   0.057  0.00  0.00    +0.247 C 
ATOM     24  O   UNL     1      -1.254   3.339   0.102  0.00  0.00    -0.270 OA
ATOM     25  N   UNL     1      -2.447   1.466   0.071  0.00  0.00    -0.325 N 
ATOM     26  H   UNL     1      -2.461   0.497   0.035  0.00  0.00    +0.145 HD
ATOM     27  H   UNL     1      -3.280   1.961   0.116  0.00  0.00    +0.145 HD
ENDBRANCH   3  23
TORSDOF 2
