REMARK  Name = ZINC20505712
REMARK  2 active torsions:
REMARK  status: ('A' for Active; 'I' for Inactive)
REMARK    1  A    between atoms: C_7  and  N_12
REMARK    2  A    between atoms: N_12  and  C_13
REMARK                            x       y       z     vdW  Elec       q    Type
REMARK                         _______ _______ _______ _____ _____    ______ ____
ROOT
ATOM      1  C   UNL     1      -3.170  -1.491  -2.052  0.00  0.00    +0.000 A 
ATOM      2  C   UNL     1      -3.139  -0.108  -2.068  0.00  0.00    +0.002 A 
ATOM      3  C   UNL     1      -2.064   0.571  -1.533  0.00  0.00    +0.023 A 
ATOM      4  C   UNL     1      -1.000  -0.133  -0.973  0.00  0.00    +0.039 A 
ATOM      5  C   UNL     1      -1.043  -1.521  -0.964  0.00  0.00    +0.003 A 
ATOM      6  C   UNL     1      -2.117  -2.197  -1.498  0.00  0.00    +0.008 A 
ATOM      7  C   UNL     1       0.235  -1.982  -0.300  0.00  0.00    +0.190 C 
ATOM      8  C   UNL     1       0.957  -0.695   0.040  0.00  0.00    +0.242 C 
ATOM      9  O   UNL     1       2.034  -0.597   0.588  0.00  0.00    -0.273 OA
ATOM     10  N   UNL     1       0.180   0.318  -0.380  0.00  0.00    -0.283 N 
ATOM     11  H   UNL     1       0.413   1.254  -0.282  0.00  0.00    +0.155 HD
ENDROOT
BRANCH   7  12
ATOM     12  N   UNL     1       1.031  -2.791  -1.225  0.00  0.00    -0.327 N 
ATOM     13  H   UNL     1       1.670  -2.365  -1.817  0.00  0.00    +0.147 HD
BRANCH  12  14
ATOM     14  C   UNL     1       0.869  -4.181  -1.256  0.00  0.00    +0.065 A 
ATOM     15  C   UNL     1       1.394  -4.966  -0.237  0.00  0.00    +0.064 A 
ATOM     16  C   UNL     1       1.233  -6.338  -0.271  0.00  0.00    +0.037 A 
ATOM     17  C   UNL     1       0.548  -6.930  -1.317  0.00  0.00    +0.021 A 
ATOM     18  C   UNL     1       0.024  -6.151  -2.334  0.00  0.00    +0.037 A 
ATOM     19  C   UNL     1       0.177  -4.778  -2.303  0.00  0.00    +0.064 A 
ATOM     20 CL   UNL     1      -0.489  -3.800  -3.574  0.00  0.00    -0.082 Cl
ATOM     21 BR   UNL     1       0.329  -8.808  -1.359  0.00  0.00    -0.050 Br
ATOM     22 CL   UNL     1       2.254  -4.224   1.076  0.00  0.00    -0.082 Cl
ENDBRANCH  12  14
ENDBRANCH   7  12
TORSDOF 2
