REMARK  Name = ZINC51116729
REMARK  9 active torsions:
REMARK  status: ('A' for Active; 'I' for Inactive)
REMARK    1  A    between atoms: C_1  and  C_2
REMARK    2  A    between atoms: C_2  and  C_4
REMARK    3  A    between atoms: C_2  and  N_17
REMARK    4  A    between atoms: C_4  and  N_5
REMARK    5  A    between atoms: C_6  and  C_8
REMARK    6  A    between atoms: C_12  and  N_14
REMARK    7  A    between atoms: N_14  and  N_15
REMARK    8  A    between atoms: N_17  and  C_18
REMARK    9  A    between atoms: N_17  and  C_19
REMARK                            x       y       z     vdW  Elec       q    Type
REMARK                         _______ _______ _______ _____ _____    ______ ____
ROOT
ATOM      1  C   UNL     1       0.709  -3.997   3.023  0.00  0.00    +0.146 A 
ATOM      2  C   UNL     1       1.193  -4.542   4.210  0.00  0.00    +0.072 A 
ATOM      3  C   UNL     1       1.041  -5.904   4.441  0.00  0.00    +0.026 A 
ATOM      4  C   UNL     1       0.412  -6.672   3.478  0.00  0.00    +0.046 A 
ATOM      5  C   UNL     1      -0.049  -6.062   2.312  0.00  0.00    +0.133 A 
ATOM      6  N   UNL     1       0.105  -4.764   2.122  0.00  0.00    -0.225 NA
ATOM      7 CL   UNL     1       1.976  -3.534   5.385  0.00  0.00    -0.081 Cl
ENDROOT
BRANCH   1   9
ATOM      8  N   UNL     1       0.394  -2.012   1.621  0.00  0.00    -0.312 N 
ATOM      9  C   UNL     1       0.864  -2.547   2.765  0.00  0.00    +0.264 C 
ATOM     10  O   UNL     1       1.416  -1.840   3.586  0.00  0.00    -0.268 OA
ATOM     11  H   UNL     1      -0.046  -2.576   0.967  0.00  0.00    +0.149 HD
BRANCH   8  12
ATOM     12  C   UNL     1       0.547  -0.577   1.367  0.00  0.00    +0.089 C 
BRANCH  12  14
ATOM     13  C   UNL     1      -0.104   1.305  -0.142  0.00  0.00    -0.012 C 
ATOM     14  C   UNL     1      -0.185  -0.207   0.075  0.00  0.00    -0.055 C 
BRANCH  14  15
ATOM     15  N   UNL     1      -1.593  -0.613   0.178  0.00  0.00    +0.379 N 
ATOM     16  C   UNL     1      -2.255   0.175   1.227  0.00  0.00    -0.096 C 
ATOM     17  C   UNL     1      -2.265  -0.378  -1.108  0.00  0.00    -0.096 C 
ATOM     18  H   UNL     1      -1.645  -1.593   0.410  0.00  0.00    -0.082 HD
ENDBRANCH  14  15
ENDBRANCH  12  14
ENDBRANCH   8  12
ENDBRANCH   1   9
BRANCH   5  19
ATOM     19  N   UNL     1      -0.681  -6.829   1.340  0.00  0.00    -0.268 N 
ATOM     20  H   UNL     1      -0.800  -7.782   1.475  0.00  0.00    +0.167 HD
BRANCH  19  21
ATOM     21  N   UNL     1      -1.136  -6.239   0.194  0.00  0.00    -0.255 NA
ATOM     22  H   UNL     1      -0.392  -5.752  -0.282  0.00  0.00    +0.140 HD
ATOM     23  H   UNL     1      -1.571  -6.917  -0.414  0.00  0.00    +0.140 HD
ENDBRANCH  19  21
ENDBRANCH   5  19
TORSDOF 6
