REMARK  Name = ZINC16361800
REMARK  5 active torsions:
REMARK  status: ('A' for Active; 'I' for Inactive)
REMARK    1  A    between atoms: C_4  and  C_7
REMARK    2  A    between atoms: C_8  and  C_13
REMARK    3  A    between atoms: C_14  and  C_15
REMARK    4  A    between atoms: C_14  and  C_17
REMARK    5  A    between atoms: C_19  and  C_22
REMARK                            x       y       z     vdW  Elec       q    Type
REMARK                         _______ _______ _______ _____ _____    ______ ____
ROOT
ATOM      1  C   UNL     1      -5.155  -2.903   0.011  0.00  0.00    +0.033 C 
ATOM      2  C   UNL     1      -3.898  -2.396  -0.155  0.00  0.00    +0.084 C 
ENDROOT
BRANCH   1   4
ATOM      3  C   UNL     1      -6.552  -5.093   0.377  0.00  0.00    +0.100 A 
ATOM      4  C   UNL     1      -5.384  -4.345  -0.105  0.00  0.00    +0.021 A 
ATOM      5  C   UNL     1      -4.540  -5.275  -0.685  0.00  0.00    +0.113 A 
ATOM      6  N   UNL     1      -5.124  -6.481  -0.582  0.00  0.00    -0.284 N 
ATOM      7  H   UNL     1      -4.736  -7.339  -0.918  0.00  0.00    +0.188 HD
ATOM      8  N   UNL     1      -6.356  -6.354   0.067  0.00  0.00    -0.173 NA
BRANCH   3  12
ATOM      9  C   UNL     1      -9.934  -3.481   2.386  0.00  0.00    +0.000 A 
ATOM     10  C   UNL     1     -10.093  -4.542   1.512  0.00  0.00    +0.001 A 
ATOM     11  C   UNL     1      -8.999  -5.069   0.857  0.00  0.00    +0.010 A 
ATOM     12  C   UNL     1      -7.732  -4.530   1.077  0.00  0.00    +0.003 A 
ATOM     13  C   UNL     1      -7.577  -3.465   1.962  0.00  0.00    +0.010 A 
ATOM     14  C   UNL     1      -8.679  -2.942   2.608  0.00  0.00    +0.001 A 
ENDBRANCH   3  12
ENDBRANCH   1   4
BRANCH   2  15
ATOM     15  C   UNL     1      -3.691  -0.936  -0.189  0.00  0.00    +0.119 A 
ATOM     16  N   UNL     1      -2.566  -0.253  -0.340  0.00  0.00    -0.238 NA
ATOM     17  C   UNL     1      -2.562   1.068  -0.345  0.00  0.00    +0.086 A 
ATOM     18  C   UNL     1      -3.744   1.745  -0.187  0.00  0.00    +0.075 A 
ATOM     19  S   UNL     1      -4.890   0.381  -0.037  0.00  0.00    -0.074 S 
BRANCH  17  20
ATOM     20  C   UNL     1      -1.292   1.812  -0.515  0.00  0.00    +0.086 A 
ATOM     21  C   UNL     1      -0.109   1.140  -0.668  0.00  0.00    +0.028 A 
ATOM     22  C   UNL     1       1.116   1.924  -0.839  0.00  0.00    +0.018 A 
ATOM     23  C   UNL     1       2.352   1.286  -1.005  0.00  0.00    +0.011 A 
ATOM     24  C   UNL     1       3.485   2.032  -1.162  0.00  0.00    +0.001 A 
ATOM     25  C   UNL     1       3.421   3.418  -1.159  0.00  0.00    +0.004 A 
ATOM     26  C   UNL     1       2.215   4.065  -0.997  0.00  0.00    +0.047 A 
ATOM     27  C   UNL     1       1.048   3.328  -0.835  0.00  0.00    +0.139 A 
ATOM     28  O   UNL     1      -0.136   3.957  -0.675  0.00  0.00    -0.422 OA
ATOM     29  C   UNL     1      -1.282   3.278  -0.516  0.00  0.00    +0.347 A 
ATOM     30  O   UNL     1      -2.327   3.886  -0.375  0.00  0.00    -0.244 OA
ENDBRANCH  17  20
ENDBRANCH   2  15
BRANCH   2  31
ATOM     31  C   UNL     1      -2.782  -3.281  -0.298  0.00  0.00    +0.102 C 
ATOM     32  N   UNL     1      -1.896  -3.983  -0.411  0.00  0.00    -0.191 NA
ENDBRANCH   2  31
TORSDOF 5
