REMARK  Name = ZINC04236562
REMARK  12 active torsions:
REMARK  status: ('A' for Active; 'I' for Inactive)
REMARK    1  A    between atoms: C_1  and  C_2
REMARK    2  A    between atoms: C_2  and  N_3
REMARK    3  A    between atoms: C_4  and  O_6
REMARK    4  A    between atoms: O_6  and  C_7
REMARK    5  A    between atoms: C_11  and  C_35
REMARK    6  A    between atoms: C_14  and  C_15
REMARK    7  A    between atoms: C_14  and  C_16
REMARK    8  A    between atoms: C_16  and  O_17
REMARK    9  A    between atoms: C_20  and  O_34
REMARK   10  A    between atoms: C_22  and  C_24
REMARK   11  A    between atoms: C_24  and  C_25
REMARK   12  A    between atoms: C_30  and  C_33
REMARK                            x       y       z     vdW  Elec       q    Type
REMARK                         _______ _______ _______ _____ _____    ______ ____
ROOT
ATOM      1  C   UNL     1      -1.784   0.876  -0.807  0.00  0.00    +0.186 C 
ATOM      2  C   UNL     1      -1.873  -0.619  -1.120  0.00  0.00    +0.046 C 
ATOM      3  C   UNL     1      -1.270  -0.888  -2.500  0.00  0.00    +0.011 C 
ATOM      4  C   UNL     1       0.197  -0.451  -2.510  0.00  0.00    -0.023 C 
ATOM      5  C   UNL     1       0.285   1.044  -2.197  0.00  0.00    +0.007 C 
ATOM      6  C   UNL     1      -0.318   1.313  -0.817  0.00  0.00    +0.031 C 
ATOM      7  C   UNL     1      -0.229   2.808  -0.504  0.00  0.00    +0.017 C 
ATOM      8  C   UNL     1      -0.489   1.833  -3.254  0.00  0.00    +0.007 C 
ATOM      9  C   UNL     1       0.114   1.565  -4.635  0.00  0.00    +0.032 C 
ATOM     10  C   UNL     1       0.026   0.070  -4.947  0.00  0.00    +0.119 C 
ATOM     11  C   UNL     1       0.800  -0.720  -3.890  0.00  0.00    +0.032 C 
ATOM     12  C   UNL     1       0.971  -1.240  -1.452  0.00  0.00    +0.012 C 
ENDROOT
BRANCH  10  13
ATOM     13  O   UNL     1       0.589  -0.181  -6.237  0.00  0.00    -0.391 OA
ATOM     14  H   UNL     1       0.147   0.288  -6.957  0.00  0.00    +0.210 HD
ENDBRANCH  10  13
BRANCH   1  15
ATOM     15  O   UNL     1      -2.357   1.131   0.503  0.00  0.00    -0.446 OA
BRANCH  15  17
ATOM     16  N   UNL     1      -4.267   1.655   1.735  0.00  0.00    -0.281 N 
ATOM     17  C   UNL     1      -3.673   1.408   0.551  0.00  0.00    +0.401 C 
ATOM     18  O   UNL     1      -4.326   1.435  -0.473  0.00  0.00    -0.226 OA
ATOM     19  H   UNL     1      -3.746   1.633   2.553  0.00  0.00    +0.152 HD
BRANCH  16  21
ATOM     20  C   UNL     1      -6.118   2.194   3.240  0.00  0.00    +0.024 C 
ATOM     21  C   UNL     1      -5.700   1.956   1.788  0.00  0.00    +0.104 C 
ENDBRANCH  16  21
ENDBRANCH  15  17
ENDBRANCH   1  15
BRANCH   6  22
ATOM     22  C   UNL     1       0.457   0.524   0.241  0.00  0.00    +0.166 C 
BRANCH  22  23
ATOM     23  O   UNL     1       0.032   0.929   1.544  0.00  0.00    -0.394 OA
ATOM     24  H   UNL     1       0.481   0.469   2.265  0.00  0.00    +0.209 HD
ENDBRANCH  22  23
ENDBRANCH   6  22
BRANCH  11  25
ATOM     25  C   UNL     1       2.266  -0.283  -3.900  0.00  0.00    +0.102 C 
BRANCH  25  26
ATOM     26  C   UNL     1       2.929  -0.774  -5.161  0.00  0.00    +0.216 C 
ATOM     27  O   UNL     1       2.347  -1.552  -5.887  0.00  0.00    -0.276 OA
ATOM     28  N   UNL     1       4.167  -0.349  -5.482  0.00  0.00    -0.301 N 
ATOM     29  C   UNL     1       4.881   0.598  -4.615  0.00  0.00    +0.108 C 
ATOM     30  C   UNL     1       6.254   0.004  -4.269  0.00  0.00    +0.022 C 
ATOM     31  C   UNL     1       6.994  -0.343  -5.563  0.00  0.00    -0.011 C 
ATOM     32  C   UNL     1       6.197  -1.393  -6.342  0.00  0.00    +0.022 C 
ATOM     33  C   UNL     1       4.825  -0.819  -6.708  0.00  0.00    +0.108 C 
ATOM     34  C   UNL     1       8.378  -0.901  -5.225  0.00  0.00    +0.007 C 
ENDBRANCH  25  26
ENDBRANCH  11  25
TORSDOF 8
