REMARK  Name = ZINC16940486
REMARK  5 active torsions:
REMARK  status: ('A' for Active; 'I' for Inactive)
REMARK    1  A    between atoms: N_3  and  C1*_14
REMARK    2  A    between atoms: C2*_16  and  O2*_26
REMARK    3  A    between atoms: C3*_18  and  O3*_25
REMARK    4  A    between atoms: C4*_20  and  C5*_23
REMARK    5  A    between atoms: C5*_23  and  O5*_24
REMARK                            x       y       z     vdW  Elec       q    Type
REMARK                         _______ _______ _______ _____ _____    ______ ____
ROOT
ATOM      1  C   UNL     1      -5.144   3.256  -1.476  0.00  0.00    +0.061 A 
ATOM      2  C   UNL     1      -4.031   2.994  -0.752  0.00  0.00    +0.096 A 
ATOM      3  N   UNL     1      -2.810   3.084  -1.350  0.00  0.00    -0.270 N 
ATOM      4  C   UNL     1      -2.712   3.436  -2.645  0.00  0.00    +0.352 A 
ATOM      5  O   UNL     1      -1.610   3.516  -3.163  0.00  0.00    -0.244 OA
ATOM      6  N   UNL     1      -3.798   3.691  -3.373  0.00  0.00    -0.178 NA
ATOM      7  C   UNL     1      -5.008   3.616  -2.833  0.00  0.00    +0.128 A 
ATOM      8  N   UNL     1      -6.122   3.888  -3.592  0.00  0.00    -0.313 N 
ATOM      9  C   UNL     1      -7.130   2.837  -3.439  0.00  0.00    +0.117 C 
ATOM     10  C   UNL     1      -8.498   3.357  -3.898  0.00  0.00    +0.088 C 
ATOM     11  S   UNL     1      -8.380   3.801  -5.659  0.00  0.00    -0.158 S 
ATOM     12  C   UNL     1      -6.898   4.856  -5.708  0.00  0.00    +0.088 C 
ATOM     13  C   UNL     1      -5.759   4.122  -4.992  0.00  0.00    +0.117 C 
ENDROOT
BRANCH   3  14
ATOM     14  C1* UNL     1      -1.597   2.804  -0.577  0.00  0.00    +0.255 C 
ATOM     15  C2* UNL     1      -0.812   1.624  -1.204  0.00  0.00    +0.195 C 
ATOM     16  C3* UNL     1      -0.013   1.086   0.008  0.00  0.00    +0.178 C 
ATOM     17  C4* UNL     1      -0.785   1.608   1.235  0.00  0.00    +0.177 C 
ATOM     18  O4* UNL     1      -1.935   2.321   0.741  0.00  0.00    -0.346 OA
BRANCH  16  19
ATOM     19  O3* UNL     1       1.319   1.603  -0.002  0.00  0.00    -0.386 OA
ATOM     20  H3* UNL     1       1.857   1.321   0.751  0.00  0.00    +0.210 HD
ENDBRANCH  16  19
BRANCH  15  21
ATOM     21  O2* UNL     1      -1.704   0.628  -1.709  0.00  0.00    -0.385 OA
ATOM     22  H2* UNL     1      -1.262  -0.170  -2.030  0.00  0.00    +0.210 HD
ENDBRANCH  15  21
BRANCH  17  23
ATOM     23  C5* UNL     1      -1.235   0.433   2.106  0.00  0.00    +0.190 C 
BRANCH  23  24
ATOM     24  O5* UNL     1      -1.847   0.930   3.297  0.00  0.00    -0.392 OA
ATOM     25  H5* UNL     1      -2.157   0.238   3.898  0.00  0.00    +0.210 HD
ENDBRANCH  23  24
ENDBRANCH  17  23
ENDBRANCH   3  14
TORSDOF 5
