REMARK  Name = ZINC12661278
REMARK  6 active torsions:
REMARK  status: ('A' for Active; 'I' for Inactive)
REMARK    1  A    between atoms: C_1  and  C_2
REMARK    2  A    between atoms: C_15  and  O_34
REMARK    3  A    between atoms: C_18  and  C_31
REMARK    4  A    between atoms: C_23  and  C_25
REMARK    5  A    between atoms: C_25  and  C_30
REMARK    6  A    between atoms: N_32  and  O_33
REMARK                            x       y       z     vdW  Elec       q    Type
REMARK                         _______ _______ _______ _____ _____    ______ ____
ROOT
ATOM      1  C   UNL     1      -2.973  -1.832   0.841  0.00  0.00    +0.012 C 
ATOM      2  C   UNL     1      -2.838  -0.297   0.674  0.00  0.00    -0.023 C 
ATOM      3  C   UNL     1      -2.354  -0.023  -0.744  0.00  0.00    +0.012 C 
ATOM      4  C   UNL     1      -0.948  -0.573  -0.978  0.00  0.00    +0.065 C 
ATOM      5  C   UNL     1       0.013   0.051   0.034  0.00  0.00    +0.170 C 
ATOM      6  C   UNL     1      -0.427  -0.319   1.447  0.00  0.00    +0.069 C 
ATOM      7  C   UNL     1      -1.845   0.168   1.728  0.00  0.00    +0.000 C 
ATOM      8  C   UNL     1      -1.854   1.688   1.871  0.00  0.00    +0.004 C 
ATOM      9  C   UNL     1      -3.246   2.104   2.353  0.00  0.00    +0.004 C 
ATOM     10  C   UNL     1      -4.268   1.766   1.267  0.00  0.00    -0.001 C 
ATOM     11  C   UNL     1      -4.230   0.293   0.889  0.00  0.00    +0.027 C 
ATOM     12  C   UNL     1      -5.142  -0.036  -0.288  0.00  0.00    +0.119 C 
ATOM     13  C   UNL     1      -5.100   0.954  -1.448  0.00  0.00    +0.045 C 
ATOM     14  C   UNL     1      -5.189   2.380  -0.966  0.00  0.00    +0.022 C 
ATOM     15  C   UNL     1      -4.050   2.626   0.051  0.00  0.00    +0.005 C 
ATOM     16  C   UNL     1      -4.127   4.147   0.246  0.00  0.00    +0.005 C 
ATOM     17  C   UNL     1      -4.359   4.663  -1.202  0.00  0.00    +0.010 C 
ATOM     18  C   UNL     1      -4.895   3.460  -2.018  0.00  0.00    +0.060 C 
ATOM     19  O   UNL     1       0.033   1.473  -0.123  0.00  0.00    -0.346 OA
ATOM     20  C   UNL     1       1.408   1.887  -0.224  0.00  0.00    +0.191 C 
ATOM     21  C   UNL     1       2.208   0.638   0.219  0.00  0.00    +0.191 C 
ATOM     22  O   UNL     1       1.343  -0.445  -0.201  0.00  0.00    -0.346 OA
ENDROOT
BRANCH  18  23
ATOM     23  C   UNL     1      -6.184   3.842  -2.749  0.00  0.00    +0.171 C 
ATOM     24  O   UNL     1      -5.894   4.826  -3.757  0.00  0.00    -0.346 OA
ATOM     25  C   UNL     1      -7.048   5.700  -3.763  0.00  0.00    +0.191 C 
ATOM     26  C   UNL     1      -7.425   5.736  -2.261  0.00  0.00    +0.191 C 
ATOM     27  O   UNL     1      -7.120   4.398  -1.817  0.00  0.00    -0.346 OA
ATOM     28  C   UNL     1      -6.789   2.600  -3.407  0.00  0.00    +0.074 C 
ENDBRANCH  18  23
BRANCH  14  29
ATOM     29  C   UNL     1      -6.544   2.666  -0.377  0.00  0.00    +0.133 C 
ATOM     30  N   UNL     1      -7.484   1.805  -0.488  0.00  0.00    -0.099 NA
BRANCH  30  31
ATOM     31  O   UNL     1      -8.759   2.074   0.066  0.00  0.00    -0.409 OA
ATOM     32  H   UNL     1      -9.403   1.365  -0.067  0.00  0.00    +0.328 HD
ENDBRANCH  30  31
ENDBRANCH  14  29
BRANCH  12  33
ATOM     33  O   UNL     1      -6.485  -0.184   0.189  0.00  0.00    -0.391 OA
ATOM     34  H   UNL     1      -7.127  -0.395  -0.502  0.00  0.00    +0.210 HD
ENDBRANCH  12  33
TORSDOF 4
