REMARK  Name = ZINC42079341
REMARK  4 active torsions:
REMARK  status: ('A' for Active; 'I' for Inactive)
REMARK    1  A    between atoms: C_7  and  N_15
REMARK    2  A    between atoms: N_11  and  C_12
REMARK    3  A    between atoms: C_12  and  C_13
REMARK    4  A    between atoms: C_13  and  O_14
REMARK                            x       y       z     vdW  Elec       q    Type
REMARK                         _______ _______ _______ _____ _____    ______ ____
ROOT
ATOM      1  C   UNL     1      -0.017   1.372   0.033  0.00  0.00    +0.046 A 
ATOM      2  C   UNL     1       1.176   2.080   0.043  0.00  0.00    +0.125 A 
ATOM      3  C   UNL     1       2.380   1.397   0.032  0.00  0.00    +0.055 A 
ATOM      4  C   UNL     1       2.400   0.017   0.011  0.00  0.00    +0.042 A 
ATOM      5  C   UNL     1       1.204  -0.700   0.001  0.00  0.00    +0.056 A 
ATOM      6  C   UNL     1       0.002  -0.004   0.013  0.00  0.00    +0.003 A 
ATOM      7  C   UNL     1      -1.093  -1.046  -0.002  0.00  0.00    +0.171 C 
ATOM      8  C   UNL     1      -0.347  -2.364  -0.022  0.00  0.00    +0.241 C 
ATOM      9  O   UNL     1      -0.842  -3.471  -0.039  0.00  0.00    -0.273 OA
ATOM     10  N   UNL     1       0.965  -2.076  -0.020  0.00  0.00    -0.266 N 
ATOM     11 BR   UNL     1       4.052  -0.903  -0.004  0.00  0.00    -0.048 Br
ATOM     12  F   UNL     1       1.162   3.430   0.062  0.00  0.00    -0.205 F 
ENDROOT
BRANCH   7  13
ATOM     13  N   UNL     1      -1.923  -0.903  -1.206  0.00  0.00    -0.316 NA
ATOM     14  H   UNL     1      -2.656  -1.595  -1.224  0.00  0.00    +0.119 HD
ATOM     15  H   UNL     1      -2.303   0.029  -1.274  0.00  0.00    +0.119 HD
ENDBRANCH   7  13
BRANCH  10  16
ATOM     16  C   UNL     1       2.024  -3.089  -0.036  0.00  0.00    +0.141 C 
BRANCH  16  17
ATOM     17  C   UNL     1       2.494  -3.359   1.395  0.00  0.00    +0.175 C 
BRANCH  17  18
ATOM     18  O   UNL     1       1.425  -3.940   2.145  0.00  0.00    -0.393 OA
ATOM     19  H   UNL     1       1.653  -4.139   3.064  0.00  0.00    +0.209 HD
ENDBRANCH  17  18
ENDBRANCH  16  17
ENDBRANCH  10  16
TORSDOF 4
