REMARK  Name = ZINC44879700
REMARK  9 active torsions:
REMARK  status: ('A' for Active; 'I' for Inactive)
REMARK    1  A    between atoms: C_1  and  C_2
REMARK    2  A    between atoms: C_2  and  C_3
REMARK    3  A    between atoms: C_2  and  C_4
REMARK    4  A    between atoms: C_4  and  C_6
REMARK    5  A    between atoms: C_4  and  C_10
REMARK    6  A    between atoms: N_7  and  O_8
REMARK    7  A    between atoms: N_12  and  C_13
REMARK    8  A    between atoms: C_13  and  C_14
REMARK    9  A    between atoms: N_20  and  C_21
REMARK                            x       y       z     vdW  Elec       q    Type
REMARK                         _______ _______ _______ _____ _____    ______ ____
ROOT
ATOM      1  C   UNL     1      -1.609  -1.688   0.212  0.00  0.00    +0.224 C 
ATOM      2  O   UNL     1      -2.084  -2.337  -0.695  0.00  0.00    -0.275 OA
ATOM      3  N   UNL     1      -1.135  -2.309   1.310  0.00  0.00    -0.316 N 
ATOM      4  H   UNL     1      -0.693  -1.797   2.005  0.00  0.00    +0.149 HD
ENDROOT
BRANCH   1   5
ATOM      5  C   UNL     1      -1.549  -0.185   0.112  0.00  0.00    +0.144 C 
BRANCH   5   6
ATOM      6  C   UNL     1      -2.532   0.289  -0.927  0.00  0.00    +0.144 C 
ATOM      7  N   UNL     1      -2.139   0.501  -2.139  0.00  0.00    -0.076 NA
ATOM      8  N   UNL     1      -3.850   0.496  -0.584  0.00  0.00    -0.343 N 
ATOM      9  H   UNL     1      -4.145   0.337   0.326  0.00  0.00    +0.144 HD
ATOM     10  H   UNL     1      -4.483   0.801  -1.253  0.00  0.00    +0.144 HD
BRANCH   7  11
ATOM     11  O   UNL     1      -3.063   0.946  -3.115  0.00  0.00    -0.408 OA
ATOM     12  H   UNL     1      -2.676   1.077  -3.992  0.00  0.00    +0.328 HD
ENDBRANCH   7  11
ENDBRANCH   5   6
BRANCH   5  14
ATOM     13  C   UNL     1      -0.056   1.771  -0.322  0.00  0.00    +0.008 C 
ATOM     14  C   UNL     1      -0.136   0.243  -0.289  0.00  0.00    +0.002 C 
ATOM     15  C   UNL     1       0.870  -0.298   0.728  0.00  0.00    +0.008 C 
ENDBRANCH   5  14
ENDBRANCH   1   5
BRANCH   3  16
ATOM     16  C   UNL     1      -1.288  -3.759   1.454  0.00  0.00    +0.089 C 
BRANCH  16  17
ATOM     17  C   UNL     1      -0.777  -4.192   2.830  0.00  0.00    -0.052 C 
ATOM     18  C   UNL     1      -1.687  -3.613   3.916  0.00  0.00    -0.014 C 
ATOM     19  C   UNL     1      -1.172  -4.049   5.291  0.00  0.00    -0.003 C 
ATOM     20  C   UNL     1       0.282  -3.594   5.448  0.00  0.00    -0.019 C 
ATOM     21  C   UNL     1       1.118  -4.173   4.306  0.00  0.00    -0.079 C 
ATOM     22  N   UNL     1       0.592  -3.698   3.020  0.00  0.00    +0.381 N 
ATOM     23  C   UNL     1       1.445  -4.193   1.931  0.00  0.00    -0.096 C 
ATOM     24  H   UNL     1       0.589  -2.689   3.011  0.00  0.00    -0.082 HD
ENDBRANCH  16  17
ENDBRANCH   3  16
TORSDOF 6
