REMARK  Name = ZINC09308854
REMARK  5 active torsions:
REMARK  status: ('A' for Active; 'I' for Inactive)
REMARK    1  A    between atoms: C_1  and  C_2
REMARK    2  A    between atoms: C_2  and  O_3
REMARK    3  A    between atoms: O_3  and  C_4
REMARK    4  A    between atoms: C_9  and  C_10
REMARK    5  A    between atoms: C_13  and  C_25
REMARK                            x       y       z     vdW  Elec       q    Type
REMARK                         _______ _______ _______ _____ _____    ______ ____
ROOT
ATOM      1  C   UNL     1       1.990  -1.397  -3.491  0.00  0.00    +0.126 C 
ATOM      2  C   UNL     1       1.325  -1.663  -4.846  0.00  0.00    +0.057 C 
ATOM      3  C   UNL     1       2.081  -0.915  -5.949  0.00  0.00    +0.106 C 
ATOM      4  N   UNL     1       3.453  -1.450  -6.024  0.00  0.00    -0.309 N 
ATOM      5  C   UNL     1       4.102  -1.656  -4.816  0.00  0.00    +0.175 A 
ATOM      6  N   UNL     1       3.432  -1.631  -3.613  0.00  0.00    -0.306 N 
ATOM      7  C   UNL     1       4.355  -1.859  -2.630  0.00  0.00    +0.069 A 
ATOM      8  C   UNL     1       4.260  -1.943  -1.247  0.00  0.00    +0.028 A 
ATOM      9  C   UNL     1       5.429  -2.194  -0.547  0.00  0.00    +0.002 A 
ATOM     10  C   UNL     1       6.646  -2.356  -1.187  0.00  0.00    +0.002 A 
ATOM     11  C   UNL     1       6.767  -2.277  -2.563  0.00  0.00    +0.028 A 
ATOM     12  C   UNL     1       5.599  -2.024  -3.289  0.00  0.00    +0.065 A 
ATOM     13  N   UNL     1       5.372  -1.892  -4.616  0.00  0.00    -0.327 N 
ATOM     14  H   UNL     1       3.879  -1.647  -6.873  0.00  0.00    +0.149 HD
ATOM     15  H   UNL     1       6.046  -1.958  -5.311  0.00  0.00    +0.169 HD
ENDROOT
BRANCH   3  16
ATOM     16  C   UNL     1       2.124   0.556  -5.625  0.00  0.00    -0.027 A 
ATOM     17  C   UNL     1       3.052   1.037  -4.721  0.00  0.00    +0.006 A 
ATOM     18  C   UNL     1       3.092   2.387  -4.423  0.00  0.00    +0.015 A 
ATOM     19  C   UNL     1       2.204   3.255  -5.031  0.00  0.00    +0.018 A 
ATOM     20  C   UNL     1       1.276   2.773  -5.936  0.00  0.00    +0.015 A 
ATOM     21  C   UNL     1       1.240   1.425  -6.237  0.00  0.00    +0.006 A 
ATOM     22 BR   UNL     1       2.258   5.101  -4.624  0.00  0.00    -0.050 Br
ENDBRANCH   3  16
BRANCH   1  28
ATOM     23  C   UNL     1       0.777  -1.810  -1.336  0.00  0.00    +0.126 A 
ATOM     24  C   UNL     1       0.243  -2.669  -0.386  0.00  0.00    +0.046 A 
ATOM     25  C   UNL     1       0.351  -4.036  -0.554  0.00  0.00    +0.004 A 
ATOM     26  C   UNL     1       0.991  -4.548  -1.667  0.00  0.00    +0.001 A 
ATOM     27  C   UNL     1       1.525  -3.695  -2.615  0.00  0.00    +0.009 A 
ATOM     28  C   UNL     1       1.414  -2.327  -2.455  0.00  0.00    +0.017 A 
BRANCH  23  29
ATOM     29  O   UNL     1       0.671  -0.465  -1.174  0.00  0.00    -0.492 OA
BRANCH  29  31
ATOM     30  C   UNL     1      -0.019   1.526   0.010  0.00  0.00    +0.048 C 
ATOM     31  C   UNL     1       0.002  -0.004   0.002  0.00  0.00    +0.225 C 
ENDBRANCH  29  31
ENDBRANCH  23  29
ENDBRANCH   1  28
TORSDOF 4
