REMARK  Name = ZINC39665226
REMARK  8 active torsions:
REMARK  status: ('A' for Active; 'I' for Inactive)
REMARK    1  A    between atoms: C_1  and  C_2
REMARK    2  A    between atoms: C_2  and  C_4
REMARK    3  A    between atoms: C_2  and  O_30
REMARK    4  A    between atoms: C_4  and  N_5
REMARK    5  A    between atoms: C_6  and  C_8
REMARK    6  A    between atoms: C_19  and  C_21
REMARK    7  A    between atoms: C_27  and  C_29
REMARK    8  A    between atoms: O_30  and  C_31
REMARK                            x       y       z     vdW  Elec       q    Type
REMARK                         _______ _______ _______ _____ _____    ______ ____
ROOT
ATOM      1  C   UNL     1       1.472  -3.686   1.339  0.00  0.00    +0.100 C 
ATOM      2  C   UNL     1       2.304  -3.909   0.056  0.00  0.00    +0.121 C 
ATOM      3  N   UNL     1       3.677  -4.179   0.543  0.00  0.00    -0.300 N 
ATOM      4  C   UNL     1       3.482  -5.023   1.746  0.00  0.00    +0.115 C 
ATOM      5  C   UNL     1       2.246  -4.422   2.445  0.00  0.00    -0.004 C 
ATOM      6  C   UNL     1       1.386  -5.530   3.044  0.00  0.00    -0.010 C 
ATOM      7  C   UNL     1       2.156  -6.209   4.181  0.00  0.00    -0.082 C 
ATOM      8  N   UNL     1       2.494  -5.216   5.207  0.00  0.00    +0.379 N 
ATOM      9  C   UNL     1       3.397  -4.204   4.646  0.00  0.00    -0.082 C 
ATOM     10  C   UNL     1       2.680  -3.440   3.529  0.00  0.00    -0.010 C 
ATOM     11  C   UNL     1       4.840  -3.755   0.011  0.00  0.00    +0.219 C 
ATOM     12  O   UNL     1       5.892  -4.063   0.530  0.00  0.00    -0.275 OA
ATOM     13  H   UNL     1       1.650  -4.769   5.531  0.00  0.00    -0.086 HD
ATOM     14  H   UNL     1       2.947  -5.676   5.982  0.00  0.00    -0.086 HD
ENDROOT
BRANCH  11  15
ATOM     15  C   UNL     1       4.834  -2.896  -1.227  0.00  0.00    +0.078 C 
ATOM     16  C   UNL     1       4.159  -3.656  -2.371  0.00  0.00    +0.032 C 
ATOM     17  C   UNL     1       4.123  -2.768  -3.619  0.00  0.00    +0.108 C 
ATOM     18  N   UNL     1       5.490  -2.317  -3.917  0.00  0.00    -0.302 N 
ATOM     19  C   UNL     1       6.262  -1.654  -2.858  0.00  0.00    +0.108 C 
ATOM     20  C   UNL     1       6.274  -2.555  -1.619  0.00  0.00    +0.032 C 
ATOM     21  C   UNL     1       6.024  -2.508  -5.140  0.00  0.00    +0.212 C 
ATOM     22  O   UNL     1       5.376  -3.057  -6.006  0.00  0.00    -0.276 OA
ATOM     23  C   UNL     1       7.427  -2.040  -5.430  0.00  0.00    +0.109 C 
ENDBRANCH  11  15
BRANCH   1  25
ATOM     24  N   UNL     1       0.309  -1.736   2.322  0.00  0.00    -0.312 N 
ATOM     25  C   UNL     1       1.377  -2.215   1.654  0.00  0.00    +0.218 C 
ATOM     26  O   UNL     1       2.262  -1.462   1.306  0.00  0.00    -0.275 OA
ATOM     27  H   UNL     1      -0.399  -2.338   2.600  0.00  0.00    +0.149 HD
BRANCH  24  28
ATOM     28  C   UNL     1       0.217  -0.307   2.629  0.00  0.00    +0.148 C 
BRANCH  28  30
ATOM     29  C   UNL     1      -1.178   1.463   3.707  0.00  0.00    +0.053 C 
ATOM     30  C   UNL     1      -1.082  -0.030   3.387  0.00  0.00    +0.187 C 
BRANCH  30  31
ATOM     31  O   UNL     1      -2.196  -0.417   2.580  0.00  0.00    -0.488 OA
BRANCH  31  32
ATOM     32  C   UNL     1      -3.345  -0.740   3.229  0.00  0.00    +0.121 A 
ATOM     33  C   UNL     1      -4.430  -1.234   2.518  0.00  0.00    +0.045 A 
ATOM     34  C   UNL     1      -5.597  -1.562   3.180  0.00  0.00    +0.004 A 
ATOM     35  C   UNL     1      -5.685  -1.400   4.551  0.00  0.00    +0.000 A 
ATOM     36  C   UNL     1      -4.606  -0.908   5.261  0.00  0.00    +0.004 A 
ATOM     37  C   UNL     1      -3.434  -0.584   4.605  0.00  0.00    +0.045 A 
ENDBRANCH  31  32
ENDBRANCH  30  31
ENDBRANCH  28  30
ENDBRANCH  24  28
ENDBRANCH   1  25
TORSDOF 6
