REMARK  Name = ZINC44011077
REMARK  6 active torsions:
REMARK  status: ('A' for Active; 'I' for Inactive)
REMARK    1  A    between atoms: C_1  and  C_2
REMARK    2  A    between atoms: C_5  and  N_12
REMARK    3  A    between atoms: C_7  and  N_8
REMARK    4  A    between atoms: C_9  and  C_11
REMARK    5  A    between atoms: C_13  and  C_14
REMARK    6  A    between atoms: C_19  and  O_20
REMARK                            x       y       z     vdW  Elec       q    Type
REMARK                         _______ _______ _______ _____ _____    ______ ____
ROOT
ATOM      1  C   UNL     1      -0.010   1.493   0.004  0.00  0.00    +0.045 C 
ATOM      2  C   UNL     1       0.015  -0.014   0.002  0.00  0.00    -0.029 A 
ATOM      3  C   UNL     1       0.027  -0.701  -1.198  0.00  0.00    +0.007 A 
ATOM      4  C   UNL     1       0.049  -2.081  -1.208  0.00  0.00    +0.028 A 
ATOM      5  C   UNL     1       0.060  -2.788  -0.003  0.00  0.00    +0.066 A 
ATOM      6  C   UNL     1       0.049  -2.094   1.208  0.00  0.00    +0.051 A 
ATOM      7  C   UNL     1       0.032  -0.708   1.206  0.00  0.00    +0.038 A 
ENDROOT
BRANCH   7   8
ATOM      8  N   UNL     1       0.025  -0.007   2.417  0.00  0.00    -0.285 N 
ATOM      9  C   UNL     1      -0.631  -0.508   3.482  0.00  0.00    +0.214 C 
ATOM     10  O   UNL     1      -1.148  -1.603   3.416  0.00  0.00    -0.276 OA
ATOM     11  C   UNL     1      -0.724   0.293   4.755  0.00  0.00    +0.109 C 
ATOM     12  H   UNL     1       0.494   0.839   2.490  0.00  0.00    +0.155 HD
ENDBRANCH   7   8
BRANCH   5  13
ATOM     13  N   UNL     1       0.082  -4.156  -0.010  0.00  0.00    -0.255 NA
ATOM     14  C   UNL     1      -0.706  -4.817  -0.812  0.00  0.00    +0.123 C 
BRANCH  14  15
ATOM     15  C   UNL     1      -0.683  -6.287  -0.819  0.00  0.00    +0.036 A 
ATOM     16  C   UNL     1      -1.522  -6.999  -1.682  0.00  0.00    +0.033 A 
ATOM     17  C   UNL     1      -1.494  -8.378  -1.683  0.00  0.00    +0.042 A 
ATOM     18  C   UNL     1      -0.638  -9.061  -0.833  0.00  0.00    +0.023 A 
ATOM     19  C   UNL     1       0.196  -8.369   0.023  0.00  0.00    +0.047 A 
ATOM     20  C   UNL     1       0.186  -6.983   0.035  0.00  0.00    +0.126 A 
ATOM     21 CL   UNL     1      -2.537  -9.262  -2.754  0.00  0.00    -0.084 Cl
BRANCH  20  22
ATOM     22  O   UNL     1       1.008  -6.303   0.873  0.00  0.00    -0.506 OA
ATOM     23  H   UNL     1       0.622  -6.119   1.740  0.00  0.00    +0.292 HD
ENDBRANCH  20  22
ENDBRANCH  14  15
ENDBRANCH   5  13
TORSDOF 4
