REMARK  Name = ZINC50543644
REMARK  6 active torsions:
REMARK  status: ('A' for Active; 'I' for Inactive)
REMARK    1  A    between atoms: C_1  and  C_2
REMARK    2  A    between atoms: C_2  and  N_3
REMARK    3  A    between atoms: C_5  and  C_8
REMARK    4  A    between atoms: C_8  and  S_9
REMARK    5  A    between atoms: S_9  and  C_11
REMARK    6  A    between atoms: C_15  and  N_20
REMARK                            x       y       z     vdW  Elec       q    Type
REMARK                         _______ _______ _______ _____ _____    ______ ____
ROOT
ATOM      1  C   UNL     1      -5.264  -5.073  -1.470  0.00  0.00    +0.289 A 
ATOM      2  N   UNL     1      -5.014  -5.712  -2.573  0.00  0.00    -0.201 NA
ATOM      3  C   UNL     1      -6.162  -6.300  -3.009  0.00  0.00    +0.112 A 
ATOM      4  C   UNL     1      -6.481  -7.092  -4.113  0.00  0.00    +0.054 A 
ATOM      5  C   UNL     1      -7.776  -7.546  -4.278  0.00  0.00    +0.027 A 
ATOM      6  C   UNL     1      -8.760  -7.215  -3.349  0.00  0.00    +0.026 A 
ATOM      7  C   UNL     1      -8.453  -6.433  -2.256  0.00  0.00    +0.050 A 
ATOM      8  C   UNL     1      -7.157  -5.971  -2.077  0.00  0.00    +0.156 A 
ATOM      9  O   UNL     1      -6.556  -5.212  -1.133  0.00  0.00    -0.429 OA
ENDROOT
BRANCH   5  10
ATOM     10  N   UNL     1      -8.101  -8.340  -5.383  0.00  0.00    -0.358 N 
ATOM     11  H   UNL     1      -7.417  -8.571  -6.032  0.00  0.00    +0.142 HD
ATOM     12  H   UNL     1      -9.009  -8.660  -5.501  0.00  0.00    +0.142 HD
ENDBRANCH   5  10
BRANCH   1  13
ATOM     13  S   UNL     1      -4.075  -4.160  -0.544  0.00  0.00    +0.113 S 
ATOM     14  O   UNL     1      -2.833  -4.747  -0.905  0.00  0.00    -0.247 OA
BRANCH  13  15
ATOM     15  C   UNL     1      -4.174  -2.485  -1.233  0.00  0.00    +0.152 C 
BRANCH  15  18
ATOM     16  N   UNL     1      -1.372  -0.511   0.012  0.00  0.00    -0.271 N 
ATOM     17  C   UNL     1      -1.907  -1.373  -0.878  0.00  0.00    +0.112 A 
ATOM     18  C   UNL     1      -3.194  -1.589  -0.520  0.00  0.00    +0.003 A 
ATOM     19  C   UNL     1      -3.455  -0.834   0.628  0.00  0.00    +0.138 A 
ATOM     20  N   UNL     1      -2.361  -0.192   0.952  0.00  0.00    -0.179 NA
BRANCH  16  22
ATOM     21  C   UNL     1      -0.019   1.526   0.010  0.00  0.00    +0.029 C 
ATOM     22  C   UNL     1       0.002  -0.004   0.002  0.00  0.00    +0.140 C 
ENDBRANCH  16  22
ENDBRANCH  15  18
ENDBRANCH  13  15
ENDBRANCH   1  13
TORSDOF 5
