REMARK  Name = ZINC12522326
REMARK  4 active torsions:
REMARK  status: ('A' for Active; 'I' for Inactive)
REMARK    1  A    between atoms: C_4  and  N_7
REMARK    2  A    between atoms: N_7  and  C_8
REMARK    3  A    between atoms: C_13  and  C_14
REMARK    4  A    between atoms: C_20  and  C_23
REMARK                            x       y       z     vdW  Elec       q    Type
REMARK                         _______ _______ _______ _____ _____    ______ ____
ROOT
ATOM      1  C   UNL     1       0.838  -2.055   0.283  0.00  0.00    +0.248 C 
ATOM      2  O   UNL     1      -0.267  -2.552   0.384  0.00  0.00    -0.270 OA
ATOM      3  N   UNL     1       1.933  -2.840   0.298  0.00  0.00    -0.297 N 
ATOM      4  C   UNL     1       3.269  -2.264   0.091  0.00  0.00    +0.108 C 
ATOM      5  C   UNL     1       3.962  -3.023  -1.046  0.00  0.00    +0.020 C 
ATOM      6  C   UNL     1       3.965  -4.520  -0.728  0.00  0.00    +0.014 C 
ATOM      7  C   UNL     1       2.523  -5.022  -0.619  0.00  0.00    +0.074 C 
ATOM      8  C   UNL     1       1.815  -4.286   0.528  0.00  0.00    +0.119 C 
ENDROOT
BRANCH   7   9
ATOM      9  C   UNL     1       2.527  -6.503  -0.338  0.00  0.00    +0.138 A 
ATOM     10  N   UNL     1       3.062  -7.095   0.697  0.00  0.00    -0.134 NA
ATOM     11  N   UNL     1       2.870  -8.366   0.617  0.00  0.00    -0.134 NA
ATOM     12  C   UNL     1       2.203  -8.638  -0.468  0.00  0.00    +0.133 A 
ATOM     13  N   UNL     1       1.972  -7.467  -1.105  0.00  0.00    -0.314 N 
ATOM     14  C   UNL     1       1.288  -7.294  -2.387  0.00  0.00    +0.125 C 
ATOM     15  C   UNL     1       0.276  -8.426  -2.577  0.00  0.00    +0.022 C 
ATOM     16  C   UNL     1       0.948  -9.608  -3.275  0.00  0.00    +0.002 C 
ATOM     17  C   UNL     1       2.094 -10.148  -2.426  0.00  0.00    +0.008 C 
ATOM     18  C   UNL     1       1.750  -9.995  -0.941  0.00  0.00    +0.076 C 
ENDBRANCH   7   9
BRANCH   1  24
ATOM     19  C   UNL     1       0.445   0.263   1.120  0.00  0.00    +0.044 A 
ATOM     20  C   UNL     1       0.585   1.638   0.978  0.00  0.00    +0.024 A 
ATOM     21  C   UNL     1       1.246   2.156  -0.116  0.00  0.00    +0.002 A 
ATOM     22  C   UNL     1       1.776   1.313  -1.080  0.00  0.00    +0.001 A 
ATOM     23  C   UNL     1       1.647  -0.053  -0.957  0.00  0.00    +0.015 A 
ATOM     24  C   UNL     1       0.980  -0.594   0.145  0.00  0.00    +0.058 A 
BRANCH  19  25
ATOM     25  N   UNL     1      -0.221  -0.261   2.221  0.00  0.00    -0.314 N 
ATOM     26  H   UNL     1      -1.185  -0.173   2.292  0.00  0.00    +0.152 HD
BRANCH  25  30
ATOM     27  C   UNL     1       1.918  -2.212   5.214  0.00  0.00    +0.000 A 
ATOM     28  C   UNL     1       0.535  -2.234   5.229  0.00  0.00    +0.002 A 
ATOM     29  C   UNL     1      -0.177  -1.588   4.238  0.00  0.00    +0.023 A 
ATOM     30  C   UNL     1       0.496  -0.916   3.225  0.00  0.00    +0.031 A 
ATOM     31  C   UNL     1       1.886  -0.901   3.211  0.00  0.00    +0.023 A 
ATOM     32  C   UNL     1       2.592  -1.544   4.208  0.00  0.00    +0.002 A 
ENDBRANCH  25  30
ENDBRANCH  19  25
ENDBRANCH   1  24
TORSDOF 4
