REMARK  Name = ZINC00705967
REMARK  9 active torsions:
REMARK  status: ('A' for Active; 'I' for Inactive)
REMARK    1  A    between atoms: C_1  and  C_2
REMARK    2  A    between atoms: C_3  and  C_28
REMARK    3  A    between atoms: C_14  and  C_18
REMARK    4  A    between atoms: C_15  and  N_17
REMARK    5  A    between atoms: C_18  and  O_20
REMARK    6  A    between atoms: O_20  and  C_21
REMARK    7  A    between atoms: C_21  and  C_22
REMARK    8  A    between atoms: C_28  and  O_30
REMARK    9  A    between atoms: O_30  and  C_31
REMARK                            x       y       z     vdW  Elec       q    Type
REMARK                         _______ _______ _______ _____ _____    ______ ____
ROOT
ATOM      1  C   UNL     1       2.681   5.702   2.169  0.00  0.00    +0.087 C 
ATOM      2  C   UNL     1       1.890   5.083   1.045  0.00  0.00    +0.116 C 
ATOM      3  C   UNL     1       1.318   3.887   1.239  0.00  0.00    +0.098 C 
ATOM      4  C   UNL     1       0.523   3.229   0.149  0.00  0.00    +0.145 C 
ATOM      5  C   UNL     1      -0.952   3.287   0.459  0.00  0.00    -0.002 A 
ATOM      6  C   UNL     1      -1.833   4.328   0.645  0.00  0.00    +0.007 A 
ATOM      7  C   UNL     1      -3.163   4.066   0.924  0.00  0.00    +0.000 A 
ATOM      8  C   UNL     1      -3.602   2.758   1.015  0.00  0.00    +0.002 A 
ATOM      9  C   UNL     1      -2.721   1.712   0.830  0.00  0.00    +0.023 A 
ATOM     10  C   UNL     1      -1.382   1.968   0.544  0.00  0.00    +0.038 A 
ATOM     11  N   UNL     1      -0.313   1.097   0.327  0.00  0.00    -0.284 N 
ATOM     12  C   UNL     1       0.836   1.752   0.086  0.00  0.00    +0.237 C 
ATOM     13  O   UNL     1       1.919   1.253  -0.139  0.00  0.00    -0.274 OA
ATOM     14  C   UNL     1       0.807   3.879  -1.175  0.00  0.00    +0.117 C 
ATOM     15  C   UNL     1       1.418   5.093  -1.228  0.00  0.00    +0.195 C 
ATOM     16  O   UNL     1       1.781   5.749  -0.114  0.00  0.00    -0.446 OA
ATOM     17  H   UNL     1      -0.391   0.130   0.344  0.00  0.00    +0.155 HD
ENDROOT
BRANCH  15  18
ATOM     18  N   UNL     1       1.669   5.661  -2.448  0.00  0.00    -0.329 N 
ATOM     19  H   UNL     1       1.894   5.100  -3.207  0.00  0.00    +0.145 HD
ATOM     20  H   UNL     1       1.622   6.624  -2.554  0.00  0.00    +0.145 HD
ENDBRANCH  15  18
BRANCH  14  21
ATOM     21  C   UNL     1       0.441   3.230  -2.364  0.00  0.00    +0.342 C 
ATOM     22  O   UNL     1       0.573   3.798  -3.433  0.00  0.00    -0.245 OA
BRANCH  21  23
ATOM     23  O   UNL     1      -0.059   1.976  -2.323  0.00  0.00    -0.456 OA
BRANCH  23  24
ATOM     24  C   UNL     1      -0.411   1.377  -3.571  0.00  0.00    +0.268 C 
BRANCH  24  25
ATOM     25  C   UNL     1      -0.946  -0.011  -3.329  0.00  0.00    -0.010 A 
ATOM     26  C   UNL     1      -0.085  -1.092  -3.322  0.00  0.00    +0.007 A 
ATOM     27  C   UNL     1      -0.575  -2.365  -3.095  0.00  0.00    +0.000 A 
ATOM     28  C   UNL     1      -1.928  -2.557  -2.884  0.00  0.00    +0.000 A 
ATOM     29  C   UNL     1      -2.790  -1.476  -2.896  0.00  0.00    +0.000 A 
ATOM     30  C   UNL     1      -2.299  -0.203  -3.118  0.00  0.00    +0.007 A 
ENDBRANCH  24  25
ENDBRANCH  23  24
ENDBRANCH  21  23
ENDBRANCH  14  21
BRANCH   3  31
ATOM     31  C   UNL     1       1.466   3.235   2.488  0.00  0.00    +0.340 C 
ATOM     32  O   UNL     1       0.550   3.237   3.288  0.00  0.00    -0.245 OA
BRANCH  31  33
ATOM     33  O   UNL     1       2.623   2.611   2.790  0.00  0.00    -0.465 OA
ATOM     34  C   UNL     1       2.703   1.974   4.067  0.00  0.00    +0.280 C 
ENDBRANCH  31  33
ENDBRANCH   3  31
TORSDOF 7
