REMARK  Name = ZINC38925899
REMARK  4 active torsions:
REMARK  status: ('A' for Active; 'I' for Inactive)
REMARK    1  A    between atoms: C_4  and  C_7
REMARK    2  A    between atoms: C_17  and  C_19
REMARK    3  A    between atoms: N_21  and  N_22
REMARK    4  A    between atoms: C_23  and  C_24
REMARK                            x       y       z     vdW  Elec       q    Type
REMARK                         _______ _______ _______ _____ _____    ______ ____
ROOT
ATOM      1  C   UNL     1       3.711  -0.707  -0.038  0.00  0.00    +0.065 C 
ATOM      2  C   UNL     1       3.820  -1.682   1.143  0.00  0.00    +0.071 C 
ATOM      3  C   UNL     1       4.384  -0.989   2.353  0.00  0.00    -0.002 C 
ATOM      4  C   UNL     1       5.258  -1.688   3.095  0.00  0.00    +0.015 C 
ATOM      5  C   UNL     1       5.640  -3.050   2.737  0.00  0.00    +0.017 C 
ATOM      6  C   UNL     1       5.349  -3.610   1.543  0.00  0.00    +0.024 C 
ATOM      7  C   UNL     1       4.607  -2.855   0.584  0.00  0.00    +0.044 C 
ATOM      8  N   UNL     1       4.539  -2.857  -0.704  0.00  0.00    -0.274 NA
ATOM      9  C   UNL     1       3.782  -1.706  -1.223  0.00  0.00    +0.201 C 
ATOM     10 BR   UNL     1       6.009  -0.891   4.636  0.00  0.00    -0.051 Br
ENDROOT
BRANCH   1  14
ATOM     11  C   UNL     1      -0.017   1.378   0.010  0.00  0.00    +0.000 A 
ATOM     12  C   UNL     1       1.171   2.086   0.002  0.00  0.00    +0.000 A 
ATOM     13  C   UNL     1       2.377   1.411  -0.013  0.00  0.00    +0.004 A 
ATOM     14  C   UNL     1       2.396   0.029  -0.020  0.00  0.00    -0.041 A 
ATOM     15  C   UNL     1       1.208  -0.679  -0.012  0.00  0.00    +0.004 A 
ATOM     16  C   UNL     1       0.002  -0.004   0.002  0.00  0.00    +0.000 A 
ENDBRANCH   1  14
BRANCH   9  17
ATOM     17  C   UNL     1       4.506  -1.085  -2.389  0.00  0.00    +0.257 C 
ATOM     18  O   UNL     1       5.671  -1.353  -2.593  0.00  0.00    -0.272 OA
ATOM     19  N   UNL     1       3.859  -0.230  -3.206  0.00  0.00    -0.205 N 
ATOM     20  H   UNL     1       2.927  -0.015  -3.043  0.00  0.00    +0.177 HD
BRANCH  19  21
ATOM     21  N   UNL     1       4.532   0.348  -4.291  0.00  0.00    -0.188 NA
ATOM     22  C   UNL     1       3.903   1.178  -5.084  0.00  0.00    +0.136 C 
BRANCH  22  23
ATOM     23  C   UNL     1       4.577   1.756  -6.170  0.00  0.00    +0.000 C 
ATOM     24  C   UNL     1       4.060   2.656  -7.099  0.00  0.00    +0.004 A 
ATOM     25  C   UNL     1       2.784   3.243  -7.251  0.00  0.00    +0.010 A 
ATOM     26  C   UNL     1       2.559   4.106  -8.274  0.00  0.00    +0.001 A 
ATOM     27  C   UNL     1       3.562   4.434  -9.191  0.00  0.00    +0.002 A 
ATOM     28  C   UNL     1       4.808   3.909  -9.106  0.00  0.00    +0.026 A 
ATOM     29  C   UNL     1       5.121   2.998  -8.062  0.00  0.00    +0.043 A 
ATOM     30  N   UNL     1       6.234   2.361  -7.767  0.00  0.00    -0.380 N 
ATOM     31  C   UNL     1       6.019   1.539  -6.572  0.00  0.00    +0.150 C 
ATOM     32  H   UNL     1       7.067   2.428  -8.259  0.00  0.00    +0.160 HD
ENDBRANCH  22  23
ENDBRANCH  19  21
ENDBRANCH   9  17
TORSDOF 4
