REMARK  Name = ZINC39596491
REMARK  12 active torsions:
REMARK  status: ('A' for Active; 'I' for Inactive)
REMARK    1  A    between atoms: C_1  and  C_2
REMARK    2  A    between atoms: C_2  and  C_4
REMARK    3  A    between atoms: C_2  and  O_33
REMARK    4  A    between atoms: C_4  and  N_5
REMARK    5  A    between atoms: C_6  and  C_8
REMARK    6  A    between atoms: C_19  and  C_21
REMARK    7  A    between atoms: C_21  and  C_23
REMARK    8  A    between atoms: C_21  and  O_26
REMARK    9  A    between atoms: C_23  and  C_24
REMARK   10  A    between atoms: C_23  and  C_25
REMARK   11  A    between atoms: O_26  and  C_27
REMARK   12  A    between atoms: O_33  and  C_34
REMARK                            x       y       z     vdW  Elec       q    Type
REMARK                         _______ _______ _______ _____ _____    ______ ____
ROOT
ATOM      1  C   UNL     1      -0.794  -3.937   1.145  0.00  0.00    +0.100 C 
ATOM      2  C   UNL     1      -2.323  -3.916   1.368  0.00  0.00    +0.121 C 
ATOM      3  N   UNL     1      -2.584  -5.056   2.278  0.00  0.00    -0.297 N 
ATOM      4  C   UNL     1      -1.451  -5.031   3.235  0.00  0.00    +0.115 C 
ATOM      5  C   UNL     1      -0.226  -4.668   2.373  0.00  0.00    -0.004 C 
ATOM      6  C   UNL     1       0.711  -3.749   3.150  0.00  0.00    -0.010 C 
ATOM      7  C   UNL     1       1.309  -4.517   4.332  0.00  0.00    -0.082 C 
ATOM      8  N   UNL     1       2.041  -5.689   3.837  0.00  0.00    +0.379 N 
ATOM      9  C   UNL     1       1.115  -6.613   3.172  0.00  0.00    -0.082 C 
ATOM     10  C   UNL     1       0.509  -5.934   1.940  0.00  0.00    -0.010 C 
ATOM     11  C   UNL     1      -3.617  -5.920   2.244  0.00  0.00    +0.257 C 
ATOM     12  O   UNL     1      -3.734  -6.761   3.111  0.00  0.00    -0.272 OA
ATOM     13  H   UNL     1       2.746  -5.391   3.179  0.00  0.00    -0.086 HD
ATOM     14  H   UNL     1       2.485  -6.159   4.612  0.00  0.00    -0.086 HD
ENDROOT
BRANCH   1  16
ATOM     15  N   UNL     1       0.848  -2.267   0.347  0.00  0.00    -0.312 N 
ATOM     16  C   UNL     1      -0.255  -2.531   1.076  0.00  0.00    +0.218 C 
ATOM     17  O   UNL     1      -0.813  -1.637   1.677  0.00  0.00    -0.275 OA
ATOM     18  H   UNL     1       1.294  -2.982  -0.133  0.00  0.00    +0.149 HD
BRANCH  15  19
ATOM     19  C   UNL     1       1.372  -0.901   0.280  0.00  0.00    +0.148 C 
BRANCH  19  21
ATOM     20  C   UNL     1       3.167   0.551  -0.676  0.00  0.00    +0.053 C 
ATOM     21  C   UNL     1       2.619  -0.876  -0.606  0.00  0.00    +0.187 C 
BRANCH  21  22
ATOM     22  O   UNL     1       3.613  -1.741  -0.053  0.00  0.00    -0.488 OA
BRANCH  22  23
ATOM     23  C   UNL     1       4.552  -2.228  -0.908  0.00  0.00    +0.121 A 
ATOM     24  C   UNL     1       5.470  -3.170  -0.467  0.00  0.00    +0.048 A 
ATOM     25  C   UNL     1       6.424  -3.663  -1.337  0.00  0.00    +0.042 A 
ATOM     26  C   UNL     1       6.463  -3.218  -2.647  0.00  0.00    +0.124 A 
ATOM     27  C   UNL     1       5.547  -2.278  -3.088  0.00  0.00    +0.042 A 
ATOM     28  C   UNL     1       4.589  -1.788  -2.223  0.00  0.00    +0.048 A 
ATOM     29  F   UNL     1       7.396  -3.702  -3.496  0.00  0.00    -0.205 F 
ENDBRANCH  22  23
ENDBRANCH  21  22
ENDBRANCH  19  21
ENDBRANCH  15  19
ENDBRANCH   1  16
BRANCH  11  30
ATOM     30  C   UNL     1      -4.628  -5.842   1.129  0.00  0.00    +0.261 C 
BRANCH  30  31
ATOM     31  C   UNL     1      -5.728  -4.848   1.506  0.00  0.00    +0.033 C 
ATOM     32  C   UNL     1      -5.119  -3.454   1.673  0.00  0.00    +0.011 C 
ATOM     33  C   UNL     1      -6.785  -4.814   0.401  0.00  0.00    +0.011 C 
ENDBRANCH  30  31
BRANCH  30  34
ATOM     34  O   UNL     1      -5.205  -7.133   0.918  0.00  0.00    -0.479 OA
BRANCH  34  35
ATOM     35  C   UNL     1      -5.543  -7.456  -0.358  0.00  0.00    +0.122 A 
ATOM     36  C   UNL     1      -5.290  -6.566  -1.391  0.00  0.00    +0.045 A 
ATOM     37  C   UNL     1      -5.634  -6.897  -2.687  0.00  0.00    +0.004 A 
ATOM     38  C   UNL     1      -6.232  -8.115  -2.955  0.00  0.00    +0.000 A 
ATOM     39  C   UNL     1      -6.486  -9.004  -1.927  0.00  0.00    +0.004 A 
ATOM     40  C   UNL     1      -6.138  -8.680  -0.630  0.00  0.00    +0.045 A 
ENDBRANCH  34  35
ENDBRANCH  30  34
ENDBRANCH  11  30
TORSDOF 9
