REMARK  Name = ZINC02621237
REMARK  10 active torsions:
REMARK  status: ('A' for Active; 'I' for Inactive)
REMARK    1  A    between atoms: C_1  and  C_2
REMARK    2  A    between atoms: C_3  and  C_21
REMARK    3  A    between atoms: C_5  and  S_9
REMARK    4  A    between atoms: C_7  and  C_8
REMARK    5  A    between atoms: S_9  and  C_10
REMARK    6  A    between atoms: C_10  and  C_11
REMARK    7  A    between atoms: N_16  and  C_17
REMARK    8  A    between atoms: C_17  and  C_18
REMARK    9  A    between atoms: C_17  and  C_19
REMARK   10  A    between atoms: C_17  and  C_20
REMARK                            x       y       z     vdW  Elec       q    Type
REMARK                         _______ _______ _______ _____ _____    ______ ____
ROOT
ATOM      1  C   UNL     1       0.096  -6.392   1.871  0.00  0.00    +0.231 C 
ATOM      2  O   UNL     1       0.101  -7.090   0.879  0.00  0.00    -0.274 OA
ATOM      3  N   UNL     1       0.110  -6.958   3.094  0.00  0.00    -0.239 N 
ATOM      4  C   UNL     1       0.128  -8.300   3.215  0.00  0.00    +0.306 C 
ATOM      5  O   UNL     1       0.133  -9.000   2.221  0.00  0.00    -0.252 OA
ATOM      6  N   UNL     1       0.141  -8.867   4.438  0.00  0.00    -0.294 N 
ATOM      7  H   UNL     1       0.106  -6.400   3.887  0.00  0.00    +0.159 HD
ATOM      8  H   UNL     1       0.138  -8.308   5.231  0.00  0.00    +0.151 HD
ENDROOT
BRANCH   6   9
ATOM      9  C   UNL     1       0.161 -10.325   4.569  0.00  0.00    +0.028 C 
ATOM     10  C   UNL     1       1.415 -10.882   3.891  0.00  0.00    +0.031 C 
ATOM     11  C   UNL     1       0.173 -10.704   6.052  0.00  0.00    +0.031 C 
ATOM     12  C   UNL     1      -1.083 -10.915   3.903  0.00  0.00    +0.031 C 
ENDBRANCH   6   9
BRANCH   1  13
ATOM     13  C   UNL     1       0.076  -4.891   1.735  0.00  0.00    +0.173 C 
BRANCH  13  14
ATOM     14  S   UNL     1       0.061  -4.443  -0.022  0.00  0.00    -0.077 S 
BRANCH  14  19
ATOM     15  C   UNL     1      -0.018   1.503   0.010  0.00  0.00    +0.047 C 
ATOM     16  C   UNL     1       0.002  -0.004   0.002  0.00  0.00    -0.008 A 
ATOM     17  C   UNL     1       0.006  -0.706  -1.194  0.00  0.00    +0.046 A 
ATOM     18  N   UNL     1       0.024  -2.028  -1.166  0.00  0.00    -0.227 NA
ATOM     19  C   UNL     1       0.038  -2.681  -0.013  0.00  0.00    +0.189 A 
ATOM     20  N   UNL     1       0.035  -2.040   1.148  0.00  0.00    -0.227 NA
ATOM     21  C   UNL     1       0.023  -0.718   1.190  0.00  0.00    +0.046 A 
ATOM     22  C   UNL     1       0.026   0.002   2.513  0.00  0.00    +0.066 C 
ATOM     23  C   UNL     1      -0.011   0.029  -2.509  0.00  0.00    +0.066 C 
ENDBRANCH  14  19
ENDBRANCH  13  14
ENDBRANCH   1  13
TORSDOF 4
