REMARK  Name = ZINC49586784
REMARK  9 active torsions:
REMARK  status: ('A' for Active; 'I' for Inactive)
REMARK    1  A    between atoms: C_1  and  C_2
REMARK    2  A    between atoms: C_2  and  C_4
REMARK    3  A    between atoms: C_2  and  N_14
REMARK    4  A    between atoms: C_7  and  C_10
REMARK    5  A    between atoms: C_11  and  C_12
REMARK    6  A    between atoms: C_12  and  N_13
REMARK    7  A    between atoms: C_15  and  C_17
REMARK    8  A    between atoms: C_17  and  N_18
REMARK    9  A    between atoms: C_19  and  C_21
REMARK                            x       y       z     vdW  Elec       q    Type
REMARK                         _______ _______ _______ _____ _____    ______ ____
ROOT
ATOM      1  C   UNL     1      -1.412  -0.526   0.013  0.00  0.00    -0.027 A 
ATOM      2  C   UNL     1      -2.121  -0.570   1.200  0.00  0.00    +0.006 A 
ATOM      3  C   UNL     1      -3.416  -1.046   1.216  0.00  0.00    +0.017 A 
ATOM      4  C   UNL     1      -4.010  -1.483   0.032  0.00  0.00    +0.025 A 
ATOM      5  C   UNL     1      -3.289  -1.436  -1.162  0.00  0.00    +0.017 A 
ATOM      6  C   UNL     1      -1.997  -0.953  -1.166  0.00  0.00    +0.006 A 
ENDROOT
BRANCH   1   8
ATOM      7  C   UNL     1      -0.019   1.526   0.010  0.00  0.00    +0.033 C 
ATOM      8  C   UNL     1       0.002  -0.004   0.002  0.00  0.00    +0.100 C 
BRANCH   8   9
ATOM      9  N   UNL     1       0.711  -0.489   1.189  0.00  0.00    -0.307 N 
ATOM     10  C   UNL     1       2.054  -0.600   1.174  0.00  0.00    +0.231 C 
ATOM     11  O   UNL     1       2.676  -0.297   0.177  0.00  0.00    -0.274 OA
ATOM     12  H   UNL     1       0.213  -0.731   1.986  0.00  0.00    +0.149 HD
BRANCH  10  13
ATOM     13  C   UNL     1       2.783  -1.099   2.395  0.00  0.00    +0.200 C 
BRANCH  13  14
ATOM     14  N   UNL     1       4.223  -1.127   2.126  0.00  0.00    -0.307 N 
ATOM     15  C   UNL     1       5.078  -1.542   3.081  0.00  0.00    +0.210 C 
ATOM     16  O   UNL     1       4.656  -1.893   4.163  0.00  0.00    -0.276 OA
ATOM     17  C   UNL     1       6.559  -1.571   2.805  0.00  0.00    +0.109 C 
ATOM     18  H   UNL     1       4.560  -0.847   1.261  0.00  0.00    +0.149 HD
ENDBRANCH  13  14
ENDBRANCH  10  13
ENDBRANCH   8   9
ENDBRANCH   1   8
BRANCH   4  19
ATOM     19  C   UNL     1      -5.353  -1.979   0.042  0.00  0.00    -0.068 C 
ATOM     20  C   UNL     1      -6.455  -2.385   0.051  0.00  0.00    -0.117 C 
BRANCH  20  21
ATOM     21  C   UNL     1      -7.836  -2.895   0.061  0.00  0.00    +0.005 C 
BRANCH  21  22
ATOM     22  N   UNL     1      -8.223  -3.288  -1.300  0.00  0.00    +0.385 N 
ATOM     23  H   UNL     1      -8.164  -2.487  -1.911  0.00  0.00    -0.089 HD
ATOM     24  H   UNL     1      -7.601  -4.010  -1.631  0.00  0.00    -0.089 HD
ATOM     25  H   UNL     1      -9.169  -3.638  -1.293  0.00  0.00    -0.089 HD
ENDBRANCH  21  22
ENDBRANCH  20  21
ENDBRANCH   4  19
TORSDOF 7
