REMARK  Name = ZINC39607549
REMARK  10 active torsions:
REMARK  status: ('A' for Active; 'I' for Inactive)
REMARK    1  A    between atoms: C_1  and  C_2
REMARK    2  A    between atoms: C_2  and  C_3
REMARK    3  A    between atoms: C_3  and  O_4
REMARK    4  A    between atoms: O_4  and  C_5
REMARK    5  A    between atoms: C_5  and  C_6
REMARK    6  A    between atoms: C_6  and  N_7
REMARK    7  A    between atoms: C_8  and  C_10
REMARK    8  A    between atoms: C_21  and  C_23
REMARK    9  A    between atoms: C_24  and  C_36
REMARK   10  A    between atoms: C_27  and  C_28
REMARK                            x       y       z     vdW  Elec       q    Type
REMARK                         _______ _______ _______ _____ _____    ______ ____
ROOT
ATOM      1  C   UNL     1       2.989  -4.513  -0.907  0.00  0.00    +0.100 C 
ATOM      2  C   UNL     1       4.511  -4.502  -0.646  0.00  0.00    +0.121 C 
ATOM      3  N   UNL     1       4.828  -5.884  -0.216  0.00  0.00    -0.296 N 
ATOM      4  C   UNL     1       3.987  -6.742  -1.085  0.00  0.00    +0.115 C 
ATOM      5  C   UNL     1       2.649  -5.985  -1.198  0.00  0.00    -0.004 C 
ATOM      6  C   UNL     1       1.656  -6.512  -0.167  0.00  0.00    -0.010 C 
ATOM      7  C   UNL     1       1.291  -7.959  -0.510  0.00  0.00    -0.082 C 
ATOM      8  N   UNL     1       0.704  -8.011  -1.854  0.00  0.00    +0.379 N 
ATOM      9  C   UNL     1       1.696  -7.590  -2.851  0.00  0.00    -0.082 C 
ATOM     10  C   UNL     1       2.079  -6.128  -2.606  0.00  0.00    -0.010 C 
ATOM     11  C   UNL     1       5.687  -6.273   0.747  0.00  0.00    +0.252 C 
ATOM     12  O   UNL     1       5.839  -7.457   0.984  0.00  0.00    -0.270 OA
ATOM     13  H   UNL     1       0.408  -8.955  -2.054  0.00  0.00    -0.086 HD
ATOM     14  H   UNL     1      -0.094  -7.396  -1.895  0.00  0.00    -0.086 HD
ENDROOT
BRANCH  11  15
ATOM     15  C   UNL     1       6.441  -5.266   1.512  0.00  0.00    +0.106 A 
ATOM     16  C   UNL     1       6.116  -4.766   2.739  0.00  0.00    +0.147 A 
ATOM     17  O   UNL     1       7.050  -3.877   3.089  0.00  0.00    -0.359 OA
ATOM     18  N   UNL     1       8.021  -3.785   2.066  0.00  0.00    -0.077 NA
ATOM     19  C   UNL     1       7.692  -4.610   1.104  0.00  0.00    +0.128 A 
ATOM     20  C   UNL     1       4.911  -5.150   3.558  0.00  0.00    +0.090 C 
BRANCH  19  21
ATOM     21  C   UNL     1       8.437  -4.837  -0.158  0.00  0.00    +0.041 A 
ATOM     22  C   UNL     1       8.668  -3.777  -1.035  0.00  0.00    +0.052 A 
ATOM     23  C   UNL     1       9.362  -3.995  -2.209  0.00  0.00    +0.021 A 
ATOM     24  C   UNL     1       9.829  -5.260  -2.515  0.00  0.00    +0.003 A 
ATOM     25  C   UNL     1       9.604  -6.315  -1.650  0.00  0.00    +0.021 A 
ATOM     26  C   UNL     1       8.916  -6.109  -0.470  0.00  0.00    +0.052 A 
ATOM     27 CL   UNL     1       8.641  -7.433   0.619  0.00  0.00    -0.083 Cl
ATOM     28 CL   UNL     1       8.082  -2.188  -0.652  0.00  0.00    -0.083 Cl
ENDBRANCH  19  21
ENDBRANCH  11  15
BRANCH   1  30
ATOM     29  N   UNL     1       1.041  -3.441   0.176  0.00  0.00    -0.313 N 
ATOM     30  C   UNL     1       2.243  -4.034   0.312  0.00  0.00    +0.218 C 
ATOM     31  O   UNL     1       2.725  -4.182   1.415  0.00  0.00    -0.275 OA
ATOM     32  H   UNL     1       0.655  -3.322  -0.706  0.00  0.00    +0.149 HD
BRANCH  29  33
ATOM     33  C   UNL     1       0.316  -2.974   1.361  0.00  0.00    +0.132 C 
BRANCH  33  34
ATOM     34  C   UNL     1      -1.010  -2.344   0.932  0.00  0.00    +0.178 C 
BRANCH  34  35
ATOM     35  O   UNL     1      -1.846  -3.344   0.347  0.00  0.00    -0.378 OA
BRANCH  35  36
ATOM     36  C   UNL     1      -3.117  -2.857  -0.090  0.00  0.00    +0.159 C 
BRANCH  36  38
ATOM     37  C   UNL     1      -5.283  -3.485  -1.164  0.00  0.00    +0.006 C 
ATOM     38  C   UNL     1      -3.923  -4.007  -0.696  0.00  0.00    +0.025 C 
ENDBRANCH  36  38
ENDBRANCH  35  36
ENDBRANCH  34  35
ENDBRANCH  33  34
ENDBRANCH  29  33
ENDBRANCH   1  30
TORSDOF 8
