REMARK  Name = ZINC27028574
REMARK  4 active torsions:
REMARK  status: ('A' for Active; 'I' for Inactive)
REMARK    1  A    between atoms: C_1  and  C_2
REMARK    2  A    between atoms: C_5  and  C_8
REMARK    3  A    between atoms: C_10  and  C_20
REMARK    4  A    between atoms: C_16  and  C_19
REMARK                            x       y       z     vdW  Elec       q    Type
REMARK                         _______ _______ _______ _____ _____    ______ ____
ROOT
ATOM      1  C   UNL     1       2.451   3.937   0.000  0.00  0.00    +0.140 C 
ATOM      2  C   UNL     1       2.771   4.404   1.426  0.00  0.00    +0.166 C 
ATOM      3  S   UNL     1       4.494   4.987   1.447  0.00  0.00    -0.069 S 
ATOM      4  C   UNL     1       4.452   5.921  -0.050  0.00  0.00    +0.209 A 
ATOM      5  N   UNL     1       5.330   6.781  -0.487  0.00  0.00    -0.121 NA
ATOM      6  N   UNL     1       4.944   7.246  -1.625  0.00  0.00    -0.132 NA
ATOM      7  C   UNL     1       3.805   6.709  -1.968  0.00  0.00    +0.148 A 
ATOM      8  N   UNL     1       3.446   5.848  -0.971  0.00  0.00    -0.225 N 
ATOM      9  N   UNL     1       2.325   5.085  -0.899  0.00  0.00    -0.272 N 
ATOM     10  C   UNL     1       3.030   6.988  -3.229  0.00  0.00    +0.090 C 
ATOM     11  H   UNL     1       1.383   5.260  -1.439  0.00  0.00    +0.167 HD
ENDROOT
BRANCH   1  16
ATOM     12  C   UNL     1      -2.514   0.980   0.019  0.00  0.00    +0.044 C 
ATOM     13  C   UNL     1      -1.219   1.751   0.017  0.00  0.00    -0.050 A 
ATOM     14  C   UNL     1      -0.013   1.076   0.008  0.00  0.00    +0.004 A 
ATOM     15  C   UNL     1       1.175   1.783   0.000  0.00  0.00    +0.006 A 
ATOM     16  C   UNL     1       1.156   3.165   0.008  0.00  0.00    -0.024 A 
ATOM     17  C   UNL     1      -0.050   3.840   0.022  0.00  0.00    +0.006 A 
ATOM     18  C   UNL     1      -1.238   3.133   0.029  0.00  0.00    +0.004 A 
ENDBRANCH   1  16
BRANCH   2  19
ATOM     19  C   UNL     1       1.847   5.530   1.813  0.00  0.00    +0.226 C 
ATOM     20  O   UNL     1       1.416   6.281   0.964  0.00  0.00    -0.275 OA
ATOM     21  N   UNL     1       1.499   5.703   3.104  0.00  0.00    -0.328 N 
ATOM     22  H   UNL     1       0.825   6.524   3.386  0.00  0.00    +0.145 HD
ATOM     23  H   UNL     1       1.890   5.022   3.874  0.00  0.00    +0.145 HD
ENDBRANCH   2  19
TORSDOF 2
