REMARK  Name = ZINC07217356
REMARK  3 active torsions:
REMARK  status: ('A' for Active; 'I' for Inactive)
REMARK    1  A    between atoms: C_7  and  N_12
REMARK    2  A    between atoms: C_13  and  C_15
REMARK    3  A    between atoms: C_24  and  O_27
REMARK                            x       y       z     vdW  Elec       q    Type
REMARK                         _______ _______ _______ _____ _____    ______ ____
ROOT
ATOM      1  N   UNL     1       0.165  -2.679   0.899  0.00  0.00    -0.308 N 
ATOM      2  C   UNL     1      -1.117  -2.785   0.497  0.00  0.00    +0.220 C 
ATOM      3  O   UNL     1      -1.425  -2.479  -0.635  0.00  0.00    -0.275 OA
ATOM      4  H   UNL     1       0.411  -2.925   1.804  0.00  0.00    +0.149 HD
ENDROOT
BRANCH   1  11
ATOM      5  C   UNL     1      -0.017   1.377   0.010  0.00  0.00    +0.001 A 
ATOM      6  C   UNL     1       1.172   2.084   0.002  0.00  0.00    +0.004 A 
ATOM      7  C   UNL     1       2.375   1.409  -0.011  0.00  0.00    +0.046 A 
ATOM      8  C   UNL     1       2.398   0.018  -0.018  0.00  0.00    +0.125 A 
ATOM      9  C   UNL     1       1.207  -0.687  -0.014  0.00  0.00    +0.014 A 
ATOM     10  C   UNL     1       0.002  -0.004   0.002  0.00  0.00    +0.009 A 
ATOM     11  C   UNL     1       1.187  -2.194  -0.033  0.00  0.00    +0.110 C 
ATOM     12  C   UNL     1       2.556  -2.734   0.389  0.00  0.00    +0.068 C 
ATOM     13  C   UNL     1       3.634  -1.986  -0.407  0.00  0.00    +0.231 C 
ATOM     14  O   UNL     1       3.602  -0.610  -0.025  0.00  0.00    -0.492 OA
ENDBRANCH   1  11
BRANCH   2  15
ATOM     15  C   UNL     1      -2.168  -3.285   1.455  0.00  0.00    +0.050 C 
ATOM     16  C   UNL     1      -1.807  -4.698   1.916  0.00  0.00    +0.020 C 
ATOM     17  C   UNL     1      -2.874  -5.205   2.889  0.00  0.00    -0.007 C 
ATOM     18  C   UNL     1      -2.943  -4.274   4.101  0.00  0.00    +0.007 C 
ATOM     19  C   UNL     1      -3.303  -2.861   3.640  0.00  0.00    -0.007 C 
ATOM     20  C   UNL     1      -2.236  -2.354   2.667  0.00  0.00    +0.020 C 
ATOM     21  C   UNL     1      -4.663  -2.885   2.938  0.00  0.00    +0.038 C 
ATOM     22  C   UNL     1      -4.594  -3.816   1.726  0.00  0.00    +0.068 C 
ATOM     23  C   UNL     1      -4.234  -5.229   2.187  0.00  0.00    +0.038 C 
ATOM     24  C   UNL     1      -3.527  -3.309   0.753  0.00  0.00    +0.051 C 
BRANCH  22  25
ATOM     25  O   UNL     1      -5.864  -3.838   1.070  0.00  0.00    -0.389 OA
ATOM     26  H   UNL     1      -6.590  -4.150   1.629  0.00  0.00    +0.210 HD
ENDBRANCH  22  25
ENDBRANCH   2  15
TORSDOF 3
