REMARK  Name = ZINC51164117
REMARK  4 active torsions:
REMARK  status: ('A' for Active; 'I' for Inactive)
REMARK    1  A    between atoms: C_6  and  C_7
REMARK    2  A    between atoms: C_7  and  S_8
REMARK    3  A    between atoms: S_8  and  N_11
REMARK    4  A    between atoms: C_15  and  C_18
REMARK                            x       y       z     vdW  Elec       q    Type
REMARK                         _______ _______ _______ _____ _____    ______ ____
ROOT
ATOM      1  S   UNL     1      -1.829  -1.075  -1.697  0.00  0.00    +0.036 S 
ATOM      2  O   UNL     1      -2.197   0.150  -2.316  0.00  0.00    -0.158 OA
ATOM      3  O   UNL     1      -0.934  -1.972  -2.340  0.00  0.00    -0.158 OA
ENDROOT
BRANCH   1   4
ATOM      4  N   UNL     1      -3.246  -1.919  -1.555  0.00  0.00    -0.176 NA
ATOM      5  C   UNL     1      -3.249  -3.390  -1.496  0.00  0.00    +0.137 C 
ATOM      6  C   UNL     1      -4.257  -3.913  -2.526  0.00  0.00    +0.178 C 
ATOM      7  O   UNL     1      -5.516  -3.267  -2.322  0.00  0.00    -0.365 OA
ATOM      8  C   UNL     1      -5.485  -1.851  -2.514  0.00  0.00    +0.219 C 
ATOM      9  C   UNL     1      -4.540  -1.222  -1.479  0.00  0.00    +0.150 C 
BRANCH   8  10
ATOM     10  C   UNL     1      -6.872  -1.288  -2.336  0.00  0.00    +0.241 C 
ATOM     11  O   UNL     1      -7.779  -2.011  -1.981  0.00  0.00    -0.273 OA
ATOM     12  N   UNL     1      -7.104   0.019  -2.570  0.00  0.00    -0.327 N 
ATOM     13  H   UNL     1      -6.379   0.597  -2.853  0.00  0.00    +0.145 HD
ATOM     14  H   UNL     1      -7.997   0.381  -2.455  0.00  0.00    +0.145 HD
ENDBRANCH   8  10
ENDBRANCH   1   4
BRANCH   1  15
ATOM     15  C   UNL     1      -1.293  -0.775   0.010  0.00  0.00    +0.220 C 
BRANCH  15  21
ATOM     16  C   UNL     1      -0.017   1.378   0.010  0.00  0.00    +0.008 A 
ATOM     17  C   UNL     1       1.170   2.086   0.002  0.00  0.00    +0.038 A 
ATOM     18  C   UNL     1       2.379   1.410  -0.013  0.00  0.00    +0.123 A 
ATOM     19  C   UNL     1       2.396   0.026  -0.021  0.00  0.00    +0.038 A 
ATOM     20  C   UNL     1       1.208  -0.680  -0.013  0.00  0.00    +0.008 A 
ATOM     21  C   UNL     1       0.002  -0.004   0.002  0.00  0.00    -0.025 A 
ATOM     22  F   UNL     1       3.540   2.101  -0.021  0.00  0.00    -0.205 F 
ENDBRANCH  15  21
ENDBRANCH   1  15
TORSDOF 4
