REMARK  Name = ZINC40334890
REMARK  5 active torsions:
REMARK  status: ('A' for Active; 'I' for Inactive)
REMARK    1  A    between atoms: C_2  and  C_3
REMARK    2  A    between atoms: C_3  and  N_4
REMARK    3  A    between atoms: N_7  and  S_10
REMARK    4  A    between atoms: S_10  and  C_13
REMARK    5  A    between atoms: C_17  and  N_19
REMARK                            x       y       z     vdW  Elec       q    Type
REMARK                         _______ _______ _______ _____ _____    ______ ____
ROOT
ATOM      1  S   UNL     1       4.573   4.481   1.592  0.00  0.00    +0.061 S 
ATOM      2  O   UNL     1       4.035   5.779   1.379  0.00  0.00    -0.153 OA
ATOM      3  O   UNL     1       4.731   3.925   2.891  0.00  0.00    -0.153 OA
ENDROOT
BRANCH   1   4
ATOM      4  C   UNL     1       6.167   4.466   0.841  0.00  0.00    +0.107 A 
ATOM      5  C   UNL     1       7.124   3.565   1.270  0.00  0.00    +0.031 A 
ATOM      6  C   UNL     1       8.377   3.550   0.684  0.00  0.00    +0.042 A 
ATOM      7  C   UNL     1       8.675   4.437  -0.334  0.00  0.00    +0.144 A 
ATOM      8  C   UNL     1       7.714   5.344  -0.767  0.00  0.00    +0.062 A 
ATOM      9  C   UNL     1       6.457   5.351  -0.179  0.00  0.00    +0.054 A 
ATOM     10  F   UNL     1       9.899   4.423  -0.906  0.00  0.00    -0.204 F 
BRANCH   8  11
ATOM     11  N   UNL     1       8.012   6.243  -1.796  0.00  0.00    -0.356 N 
ATOM     12  H   UNL     1       8.890   6.234  -2.209  0.00  0.00    +0.142 HD
ATOM     13  H   UNL     1       7.341   6.875  -2.098  0.00  0.00    +0.142 HD
ENDBRANCH   8  11
ENDBRANCH   1   4
BRANCH   1  17
ATOM     14  N   UNL     1       1.360   1.976  -0.000  0.00  0.00    -0.289 NA
ATOM     15  C   UNL     1       2.061   1.622   1.241  0.00  0.00    +0.102 C 
ATOM     16  C   UNL     1       3.539   2.009   1.117  0.00  0.00    +0.125 C 
ATOM     17  N   UNL     1       3.621   3.428   0.740  0.00  0.00    -0.174 NA
ATOM     18  C   UNL     1       2.834   3.887  -0.415  0.00  0.00    +0.125 C 
ATOM     19  C   UNL     1       1.385   3.427  -0.231  0.00  0.00    +0.102 C 
BRANCH  14  20
ATOM     20  C   UNL     1      -0.018   1.468   0.010  0.00  0.00    +0.173 C 
BRANCH  20  22
ATOM     21  C   UNL     1       0.018  -1.178  -0.004  0.00  0.00    +0.005 C 
ATOM     22  C   UNL     1       0.002  -0.004   0.002  0.00  0.00    -0.090 C 
ENDBRANCH  20  22
ENDBRANCH  14  20
ENDBRANCH   1  17
TORSDOF 5
