REMARK  Name = ZINC04163775
REMARK  5 active torsions:
REMARK  status: ('A' for Active; 'I' for Inactive)
REMARK    1  A    between atoms: C_5  and  C_7
REMARK    2  A    between atoms: C_9  and  C_21
REMARK    3  A    between atoms: C_11  and  C_16
REMARK    4  A    between atoms: C_11  and  O_20
REMARK    5  A    between atoms: C_21  and  C_23
REMARK                            x       y       z     vdW  Elec       q    Type
REMARK                         _______ _______ _______ _____ _____    ______ ____
ROOT
ATOM      1  C   UNL     1       1.139  -1.750   0.418  0.00  0.00    +0.123 C 
ATOM      2  C   UNL     1       1.515  -2.497   1.702  0.00  0.00    +0.144 C 
ATOM      3  C   UNL     1       0.310  -2.475   2.650  0.00  0.00    +0.243 C 
ATOM      4  N   UNL     1      -0.853  -3.036   1.960  0.00  0.00    -0.264 N 
ATOM      5  C   UNL     1      -0.986  -2.943   0.629  0.00  0.00    +0.302 C 
ATOM      6  O   UNL     1      -1.978  -3.416   0.107  0.00  0.00    -0.253 OA
ATOM      7  N   UNL     1      -0.069  -2.349  -0.151  0.00  0.00    -0.292 N 
ATOM      8  H   UNL     1      -1.541  -3.483   2.477  0.00  0.00    +0.153 HD
ATOM      9  H   UNL     1      -0.209  -2.317  -1.111  0.00  0.00    +0.151 HD
ENDROOT
BRANCH   1  14
ATOM     10  C   UNL     1      -0.649   1.465   1.268  0.00  0.00    +0.000 A 
ATOM     11  C   UNL     1       0.403   2.362   1.320  0.00  0.00    +0.003 A 
ATOM     12  C   UNL     1       1.693   1.929   1.080  0.00  0.00    +0.039 A 
ATOM     13  C   UNL     1       1.933   0.597   0.788  0.00  0.00    +0.128 A 
ATOM     14  C   UNL     1       0.879  -0.300   0.737  0.00  0.00    +0.009 A 
ATOM     15  C   UNL     1      -0.410   0.135   0.977  0.00  0.00    +0.008 A 
ATOM     16  F   UNL     1       3.194   0.173   0.553  0.00  0.00    -0.205 F 
ENDBRANCH   1  14
BRANCH   3  17
ATOM     17  C   UNL     1       0.622  -3.313   3.892  0.00  0.00    +0.436 C 
ATOM     18  F   UNL     1       1.816  -2.866   4.468  0.00  0.00    -0.166 F 
ATOM     19  F   UNL     1      -0.420  -3.182   4.816  0.00  0.00    -0.166 F 
ATOM     20  F   UNL     1       0.755  -4.657   3.526  0.00  0.00    -0.166 F 
ENDBRANCH   3  17
BRANCH   3  21
ATOM     21  O   UNL     1       0.032  -1.128   3.038  0.00  0.00    -0.364 OA
ATOM     22  H   UNL     1      -0.720  -1.040   3.639  0.00  0.00    +0.212 HD
ENDBRANCH   3  21
BRANCH   2  23
ATOM     23  C   UNL     1       1.878  -3.921   1.371  0.00  0.00    +0.173 C 
ATOM     24  O   UNL     1       1.006  -4.750   1.223  0.00  0.00    -0.292 OA
BRANCH  23  25
ATOM     25  C   UNL     1       3.290  -4.306   1.228  0.00  0.00    +0.018 A 
ATOM     26  C   UNL     1       4.293  -3.333   1.286  0.00  0.00    +0.013 A 
ATOM     27  C   UNL     1       5.615  -3.700   1.152  0.00  0.00    +0.020 A 
ATOM     28  C   UNL     1       5.951  -5.031   0.959  0.00  0.00    +0.041 A 
ATOM     29  C   UNL     1       4.963  -6.000   0.900  0.00  0.00    +0.020 A 
ATOM     30  C   UNL     1       3.637  -5.648   1.039  0.00  0.00    +0.013 A 
ATOM     31 CL   UNL     1       7.618  -5.485   0.789  0.00  0.00    -0.084 Cl
ENDBRANCH  23  25
ENDBRANCH   2  23
TORSDOF 5
