REMARK  Name = ZINC67297319
REMARK  6 active torsions:
REMARK  status: ('A' for Active; 'I' for Inactive)
REMARK    1  A    between atoms: C_1  and  C_2
REMARK    2  A    between atoms: C_5  and  N_9
REMARK    3  A    between atoms: C_6  and  C_8
REMARK    4  A    between atoms: C_10  and  C_12
REMARK    5  A    between atoms: N_22  and  C_23
REMARK    6  A    between atoms: C_27  and  C_29
REMARK                            x       y       z     vdW  Elec       q    Type
REMARK                         _______ _______ _______ _____ _____    ______ ____
ROOT
ATOM      1  C   UNL     1      -0.191  -6.279  -1.173  0.00  0.00    +0.098 A 
ATOM      2  C   UNL     1      -0.176  -6.981  -2.371  0.00  0.00    +0.030 A 
ATOM      3  C   UNL     1      -0.202  -8.444  -2.294  0.00  0.00    +0.018 A 
ATOM      4  C   UNL     1       0.077  -9.226  -3.421  0.00  0.00    +0.011 A 
ATOM      5  C   UNL     1       0.049 -10.589  -3.324  0.00  0.00    +0.001 A 
ATOM      6  C   UNL     1      -0.253 -11.204  -2.118  0.00  0.00    +0.004 A 
ATOM      7  C   UNL     1      -0.533 -10.451  -0.995  0.00  0.00    +0.047 A 
ATOM      8  C   UNL     1      -0.513  -9.066  -1.070  0.00  0.00    +0.137 A 
ATOM      9  O   UNL     1      -0.792  -8.310   0.019  0.00  0.00    -0.439 OA
ATOM     10  C   UNL     1      -0.228  -7.074   0.071  0.00  0.00    +0.212 A 
ATOM     11  N   UNL     1       0.266  -6.598   1.194  0.00  0.00    -0.325 N 
ATOM     12  H   UNL     1       0.765  -5.766   1.190  0.00  0.00    +0.169 HD
ENDROOT
BRANCH  11  13
ATOM     13  C   UNL     1       0.077  -7.276   2.366  0.00  0.00    +0.042 A 
ATOM     14  C   UNL     1      -1.181  -7.797   2.680  0.00  0.00    +0.027 A 
ATOM     15  C   UNL     1      -1.366  -8.480   3.864  0.00  0.00    +0.022 A 
ATOM     16  C   UNL     1      -0.307  -8.650   4.741  0.00  0.00    +0.044 A 
ATOM     17  C   UNL     1       0.942  -8.136   4.436  0.00  0.00    -0.030 A 
ATOM     18  C   UNL     1       1.141  -7.457   3.252  0.00  0.00    +0.030 A 
ATOM     19  C   UNL     1       2.088  -8.325   5.397  0.00  0.00    +0.045 C 
ATOM     20 CL   UNL     1      -0.548  -9.510   6.229  0.00  0.00    -0.083 Cl
ENDBRANCH  11  13
BRANCH   1  22
ATOM     21  N   UNL     1      -0.290  -4.154   0.028  0.00  0.00    -0.281 N 
ATOM     22  C   UNL     1      -0.166  -4.808  -1.144  0.00  0.00    +0.253 C 
ATOM     23  O   UNL     1      -0.034  -4.181  -2.179  0.00  0.00    -0.270 OA
ATOM     24  H   UNL     1      -0.346  -4.653   0.858  0.00  0.00    +0.155 HD
BRANCH  21  29
ATOM     25  C   UNL     1      -0.484   1.514   0.107  0.00  0.00    +0.044 C 
ATOM     26  C   UNL     1      -0.433   0.009   0.086  0.00  0.00    -0.050 A 
ATOM     27  C   UNL     1       0.112  -0.648  -1.002  0.00  0.00    +0.005 A 
ATOM     28  C   UNL     1       0.161  -2.028  -1.025  0.00  0.00    +0.024 A 
ATOM     29  C   UNL     1      -0.337  -2.756   0.048  0.00  0.00    +0.037 A 
ATOM     30  C   UNL     1      -0.884  -2.094   1.139  0.00  0.00    -0.029 A 
ATOM     31  C   UNL     1      -0.925  -0.714   1.158  0.00  0.00    +0.008 A 
ATOM     32  C   UNL     1      -1.426  -2.881   2.305  0.00  0.00    +0.045 C 
ENDBRANCH  21  29
ENDBRANCH   1  22
TORSDOF 3
