REMARK  Name = ZINC05175714
REMARK  6 active torsions:
REMARK  status: ('A' for Active; 'I' for Inactive)
REMARK    1  A    between atoms: C_14  and  C_15
REMARK    2  A    between atoms: N_16  and  N_17
REMARK    3  A    between atoms: C_18  and  C_20
REMARK    4  A    between atoms: C_22  and  O_28
REMARK    5  A    between atoms: C_23  and  O_27
REMARK    6  A    between atoms: C_24  and  O_26
REMARK                            x       y       z     vdW  Elec       q    Type
REMARK                         _______ _______ _______ _____ _____    ______ ____
ROOT
ATOM      1  C   UNL     1      -3.530   1.789   0.029  0.00  0.00    +0.139 C 
ATOM      2  N   UNL     1      -2.394   1.153   0.034  0.00  0.00    -0.187 NA
ENDROOT
BRANCH   1  16
ATOM      3  C   UNL     1      -4.806  -3.144  -0.307  0.00  0.00    +0.001 A 
ATOM      4  C   UNL     1      -3.606  -2.435  -0.309  0.00  0.00    +0.001 A 
ATOM      5  C   UNL     1      -3.577  -1.080  -0.201  0.00  0.00    +0.009 A 
ATOM      6  C   UNL     1      -4.783  -0.366  -0.089  0.00  0.00    -0.009 A 
ATOM      7  C   UNL     1      -6.045  -1.109  -0.082  0.00  0.00    -0.017 A 
ATOM      8  C   UNL     1      -6.005  -2.515  -0.197  0.00  0.00    +0.008 A 
ATOM      9  C   UNL     1      -7.260  -0.433   0.033  0.00  0.00    +0.017 A 
ATOM     10  C   UNL     1      -7.276   0.958   0.146  0.00  0.00    -0.017 A 
ATOM     11  C   UNL     1      -8.493   1.663   0.264  0.00  0.00    +0.008 A 
ATOM     12  C   UNL     1      -8.475   3.017   0.373  0.00  0.00    +0.001 A 
ATOM     13  C   UNL     1      -7.279   3.735   0.373  0.00  0.00    +0.001 A 
ATOM     14  C   UNL     1      -6.074   3.114   0.263  0.00  0.00    +0.009 A 
ATOM     15  C   UNL     1      -6.022   1.714   0.146  0.00  0.00    -0.009 A 
ATOM     16  C   UNL     1      -4.790   1.039   0.030  0.00  0.00    +0.010 A 
ENDBRANCH   1  16
BRANCH   2  17
ATOM     17  N   UNL     1      -1.191   1.870   0.033  0.00  0.00    -0.203 N 
ATOM     18  C   UNL     1      -0.014   1.212   0.038  0.00  0.00    +0.263 C 
ATOM     19  O   UNL     1       0.002  -0.004   0.045  0.00  0.00    -0.268 OA
ATOM     20  H   UNL     1      -1.204   2.840   0.027  0.00  0.00    +0.178 HD
BRANCH  18  21
ATOM     21  C   UNL     1       1.253   1.967   0.030  0.00  0.00    +0.045 A 
ATOM     22  C   UNL     1       1.236   3.364   0.017  0.00  0.00    +0.062 A 
ATOM     23  C   UNL     1       2.425   4.069   0.013  0.00  0.00    +0.163 A 
ATOM     24  C   UNL     1       3.639   3.388   0.014  0.00  0.00    +0.201 A 
ATOM     25  C   UNL     1       3.660   1.996   0.023  0.00  0.00    +0.163 A 
ATOM     26  C   UNL     1       2.474   1.286   0.031  0.00  0.00    +0.062 A 
BRANCH  25  27
ATOM     27  O   UNL     1       4.848   1.334   0.023  0.00  0.00    -0.503 OA
ATOM     28  H   UNL     1       5.188   1.137  -0.860  0.00  0.00    +0.292 HD
ENDBRANCH  25  27
BRANCH  24  29
ATOM     29  O   UNL     1       4.807   4.083   0.006  0.00  0.00    -0.501 OA
ATOM     30  H   UNL     1       5.142   4.279  -0.880  0.00  0.00    +0.292 HD
ENDBRANCH  24  29
BRANCH  23  31
ATOM     31  O   UNL     1       2.409   5.429   0.005  0.00  0.00    -0.503 OA
ATOM     32  H   UNL     1       2.401   5.817  -0.881  0.00  0.00    +0.292 HD
ENDBRANCH  23  31
ENDBRANCH  18  21
ENDBRANCH   2  17
TORSDOF 6
