REMARK  Name = ZINC09289444
REMARK  5 active torsions:
REMARK  status: ('A' for Active; 'I' for Inactive)
REMARK    1  A    between atoms: C_1  and  C_2
REMARK    2  A    between atoms: C_6  and  N_8
REMARK    3  A    between atoms: C_12  and  N_20
REMARK    4  A    between atoms: C_13  and  N_17
REMARK    5  A    between atoms: C_24  and  C_27
REMARK                            x       y       z     vdW  Elec       q    Type
REMARK                         _______ _______ _______ _____ _____    ______ ____
ROOT
ATOM      1  N   UNL     1      -1.190  -3.105   2.661  0.00  0.00    -0.326 N 
ATOM      2  C   UNL     1      -0.651  -4.317   2.435  0.00  0.00    +0.209 A 
ATOM      3  N   UNL     1      -0.155  -5.034   3.486  0.00  0.00    -0.312 N 
ATOM      4  H   UNL     1      -0.193  -4.668   4.383  0.00  0.00    +0.170 HD
ATOM      5  C   UNL     1       0.389  -6.254   3.278  0.00  0.00    +0.136 A 
ATOM      6  C   UNL     1       0.432  -6.761   1.970  0.00  0.00    +0.203 A 
ATOM      7  C   UNL     1      -0.089  -5.986   0.934  0.00  0.00    +0.154 A 
ATOM      8  N   UNL     1      -0.619  -4.791   1.203  0.00  0.00    -0.197 NA
ATOM      9  N   UNL     1      -0.062  -6.455  -0.361  0.00  0.00    -0.341 N 
ATOM     10  H   UNL     1      -0.091  -7.409  -0.532  0.00  0.00    +0.144 HD
ATOM     11  H   UNL     1      -0.013  -5.831  -1.102  0.00  0.00    +0.144 HD
ATOM     12  H   UNL     1      -1.130  -2.704   3.542  0.00  0.00    +0.169 HD
ENDROOT
BRANCH   1  18
ATOM     13  C   UNL     1      -3.963  -3.221  -1.390  0.00  0.00    +0.044 C 
ATOM     14  C   UNL     1      -3.179  -2.485  -0.335  0.00  0.00    -0.049 A 
ATOM     15  C   UNL     1      -3.092  -1.099  -0.387  0.00  0.00    +0.003 A 
ATOM     16  C   UNL     1      -2.383  -0.371   0.560  0.00  0.00    +0.002 A 
ATOM     17  C   UNL     1      -1.738  -0.995   1.585  0.00  0.00    +0.026 A 
ATOM     18  C   UNL     1      -1.803  -2.459   1.679  0.00  0.00    +0.042 A 
ATOM     19  C   UNL     1      -2.569  -3.187   0.660  0.00  0.00    +0.029 A 
ENDBRANCH   1  18
BRANCH   5  20
ATOM     20  N   UNL     1       0.888  -6.979   4.321  0.00  0.00    -0.314 N 
ATOM     21  C   UNL     1       0.018  -7.877   5.092  0.00  0.00    +0.106 C 
ATOM     22  C   UNL     1       0.139  -7.525   6.578  0.00  0.00    +0.019 C 
ATOM     23  C   UNL     1       1.611  -7.569   6.991  0.00  0.00    +0.006 C 
ATOM     24  C   UNL     1       2.400  -6.535   6.184  0.00  0.00    +0.003 C 
ATOM     25  C   UNL     1       2.307  -6.881   4.690  0.00  0.00    +0.109 C 
ATOM     26  C   UNL     1       3.866  -6.556   6.621  0.00  0.00    +0.009 C 
ENDBRANCH   5  20
BRANCH   6  27
ATOM     27  N   UNL     1       1.019  -8.092   1.696  0.00  0.00    +0.063 N 
ATOM     28  O   UNL     1       1.537  -8.799   2.679  0.00  0.00    -0.126 OA
ATOM     29  O   UNL     1       1.024  -8.569   0.468  0.00  0.00    -0.126 OA
ENDBRANCH   6  27
TORSDOF 3
