REMARK  Name = ZINC44331515
REMARK  8 active torsions:
REMARK  status: ('A' for Active; 'I' for Inactive)
REMARK    1  A    between atoms: C_1  and  O_2
REMARK    2  A    between atoms: O_2  and  C_3
REMARK    3  A    between atoms: C_3  and  C_5
REMARK    4  A    between atoms: C_5  and  C_7
REMARK    5  A    between atoms: C_5  and  N_23
REMARK    6  A    between atoms: C_7  and  C_8
REMARK    7  A    between atoms: C_11  and  O_14
REMARK    8  A    between atoms: O_14  and  C_15
REMARK                            x       y       z     vdW  Elec       q    Type
REMARK                         _______ _______ _______ _____ _____    ______ ____
ROOT
ATOM      1  C   UNL     1      -0.671  -4.151  -1.664  0.00  0.00    -0.048 A 
ATOM      2  C   UNL     1      -0.288  -4.886  -2.771  0.00  0.00    +0.007 A 
ATOM      3  C   UNL     1      -0.271  -6.266  -2.712  0.00  0.00    +0.046 A 
ATOM      4  C   UNL     1      -0.638  -6.914  -1.541  0.00  0.00    +0.129 A 
ATOM      5  C   UNL     1      -1.022  -6.173  -0.432  0.00  0.00    +0.046 A 
ATOM      6  C   UNL     1      -1.032  -4.793  -0.495  0.00  0.00    +0.007 A 
ENDROOT
BRANCH   1   7
ATOM      7  C   UNL     1      -0.689  -2.645  -1.732  0.00  0.00    +0.030 C 
BRANCH   7   8
ATOM      8  C   UNL     1       0.677  -2.099  -1.311  0.00  0.00    +0.040 C 
BRANCH   8   9
ATOM      9  N   UNL     1       1.693  -2.520  -2.285  0.00  0.00    +0.387 N 
ATOM     10  H   UNL     1       2.594  -2.160  -2.007  0.00  0.00    -0.089 HD
ATOM     11  H   UNL     1       1.730  -3.527  -2.319  0.00  0.00    -0.089 HD
ATOM     12  H   UNL     1       1.454  -2.161  -3.197  0.00  0.00    -0.089 HD
ENDBRANCH   8   9
BRANCH   8  13
ATOM     13  C   UNL     1       0.622  -0.594  -1.260  0.00  0.00    +0.292 C 
ATOM     14  O   UNL     1       1.062   0.058  -2.177  0.00  0.00    -0.253 OA
BRANCH  13  16
ATOM     15  C   UNL     1       0.067   1.451  -0.214  0.00  0.00    +0.280 C 
ATOM     16  O   UNL     1       0.085   0.022  -0.195  0.00  0.00    -0.469 OA
ENDBRANCH  13  16
ENDBRANCH   8  13
ENDBRANCH   7   8
ENDBRANCH   1   7
BRANCH   4  17
ATOM     17  O   UNL     1      -0.623  -8.271  -1.480  0.00  0.00    -0.455 OA
BRANCH  17  18
ATOM     18  C   UNL     1       0.582  -8.899  -1.539  0.00  0.00    +0.147 A 
ATOM     19  C   UNL     1       1.753  -8.157  -1.527  0.00  0.00    +0.049 A 
ATOM     20  C   UNL     1       2.976  -8.796  -1.587  0.00  0.00    +0.023 A 
ATOM     21  C   UNL     1       3.034 -10.177  -1.659  0.00  0.00    +0.043 A 
ATOM     22  C   UNL     1       1.867 -10.920  -1.671  0.00  0.00    +0.043 A 
ATOM     23  C   UNL     1       0.641 -10.285  -1.605  0.00  0.00    +0.085 A 
ATOM     24 CL   UNL     1      -0.823 -11.218  -1.614  0.00  0.00    -0.080 Cl
ATOM     25 CL   UNL     1       4.572 -10.978  -1.734  0.00  0.00    -0.083 Cl
ENDBRANCH  17  18
ENDBRANCH   4  17
TORSDOF 7
