REMARK  Name = ZINC13729781
REMARK  5 active torsions:
REMARK  status: ('A' for Active; 'I' for Inactive)
REMARK    1  A    between atoms: C_5  and  C_7
REMARK    2  A    between atoms: C_10  and  C_12
REMARK    3  A    between atoms: N_25  and  C_26
REMARK    4  A    between atoms: C_26  and  C_27
REMARK    5  A    between atoms: C_27  and  O_28
REMARK                            x       y       z     vdW  Elec       q    Type
REMARK                         _______ _______ _______ _____ _____    ______ ____
ROOT
ATOM      1  C   UNL     1       1.804   3.506  -0.374  0.00  0.00    +0.075 C 
ATOM      2  C   UNL     1       0.857   4.450  -0.103  0.00  0.00    +0.102 C 
ATOM      3  C   UNL     1       1.186   5.878  -0.040  0.00  0.00    +0.210 C 
ATOM      4  O   UNL     1       1.968   6.356  -0.843  0.00  0.00    -0.285 OA
ATOM      5  C   UNL     1       0.575   6.742   0.987  0.00  0.00    +0.050 A 
ATOM      6  C   UNL     1       1.080   8.033   1.178  0.00  0.00    +0.014 A 
ATOM      7  C   UNL     1       0.506   8.867   2.112  0.00  0.00    +0.001 A 
ATOM      8  C   UNL     1      -0.569   8.431   2.867  0.00  0.00    +0.002 A 
ATOM      9  C   UNL     1      -1.071   7.154   2.689  0.00  0.00    +0.029 A 
ATOM     10  C   UNL     1      -0.502   6.308   1.758  0.00  0.00    +0.120 A 
ATOM     11  S   UNL     1      -1.148   4.678   1.556  0.00  0.00    +0.076 S 
ATOM     12  O   UNL     1      -2.546   4.813   1.339  0.00  0.00    -0.150 OA
ATOM     13  O   UNL     1      -0.609   3.888   2.607  0.00  0.00    -0.150 OA
ATOM     14  N   UNL     1      -0.494   4.103   0.137  0.00  0.00    -0.197 N 
ENDROOT
BRANCH   1  18
ATOM     15  C   UNL     1       0.440   0.292   0.349  0.00  0.00    +0.137 A 
ATOM     16  C   UNL     1       1.643  -0.091  -0.201  0.00  0.00    +0.050 A 
ATOM     17  C   UNL     1       2.324   1.078  -0.549  0.00  0.00    +0.050 A 
ATOM     18  C   UNL     1       1.506   2.137  -0.198  0.00  0.00    +0.131 A 
ATOM     19  O   UNL     1       0.376   1.637   0.342  0.00  0.00    -0.455 OA
BRANCH  15  24
ATOM     20  C   UNL     1      -2.039  -1.345   2.642  0.00  0.00    +0.001 A 
ATOM     21  C   UNL     1      -2.562  -2.326   1.818  0.00  0.00    +0.001 A 
ATOM     22  C   UNL     1      -2.111  -2.459   0.517  0.00  0.00    +0.021 A 
ATOM     23  C   UNL     1      -1.139  -1.607   0.030  0.00  0.00    +0.052 A 
ATOM     24  C   UNL     1      -0.603  -0.618   0.859  0.00  0.00    +0.036 A 
ATOM     25  C   UNL     1      -1.064  -0.491   2.172  0.00  0.00    +0.013 A 
ATOM     26 CL   UNL     1      -0.579  -1.770  -1.606  0.00  0.00    -0.083 Cl
ENDBRANCH  15  24
ENDBRANCH   1  18
BRANCH  14  27
ATOM     27  C   UNL     1      -1.267   3.289  -0.804  0.00  0.00    +0.159 C 
BRANCH  27  28
ATOM     28  C   UNL     1      -1.699   4.153  -1.990  0.00  0.00    +0.176 C 
BRANCH  28  29
ATOM     29  O   UNL     1      -0.545   4.560  -2.729  0.00  0.00    -0.393 OA
ATOM     30  H   UNL     1      -0.737   5.171  -3.453  0.00  0.00    +0.209 HD
ENDBRANCH  28  29
ENDBRANCH  27  28
ENDBRANCH  14  27
TORSDOF 5
