REMARK  Name = ZINC24273519
REMARK  9 active torsions:
REMARK  status: ('A' for Active; 'I' for Inactive)
REMARK    1  A    between atoms: C_1  and  C_2
REMARK    2  A    between atoms: C_5  and  N_26
REMARK    3  A    between atoms: C_7  and  S_8
REMARK    4  A    between atoms: S_8  and  N_11
REMARK    5  A    between atoms: N_11  and  C_12
REMARK    6  A    between atoms: C_17  and  C_18
REMARK    7  A    between atoms: N_20  and  C_21
REMARK    8  A    between atoms: C_21  and  C_22
REMARK    9  A    between atoms: C_27  and  C_29
REMARK                            x       y       z     vdW  Elec       q    Type
REMARK                         _______ _______ _______ _____ _____    ______ ____
ROOT
ATOM      1  N   UNL     1      -3.597   3.053   0.064  0.00  0.00    -0.216 N 
ATOM      2  H   UNL     1      -2.914   3.677  -0.530  0.00  0.00    +0.174 HD
ENDROOT
BRANCH   1   3
ATOM      3  C   UNL     1      -3.340   1.697   0.223  0.00  0.00    +0.060 A 
ATOM      4  C   UNL     1      -4.389   0.788   0.271  0.00  0.00    +0.025 A 
ATOM      5  C   UNL     1      -4.131  -0.558   0.429  0.00  0.00    +0.002 A 
ATOM      6  C   UNL     1      -2.827  -1.014   0.539  0.00  0.00    +0.001 A 
ATOM      7  C   UNL     1      -1.773  -0.128   0.488  0.00  0.00    +0.015 A 
ATOM      8  C   UNL     1      -2.018   1.239   0.334  0.00  0.00    +0.059 A 
BRANCH   8   9
ATOM      9  C   UNL     1      -0.895   2.193   0.284  0.00  0.00    +0.246 C 
ATOM     10  O   UNL     1      -1.113   3.381   0.145  0.00  0.00    -0.270 OA
ATOM     11  N   UNL     1       0.372   1.748   0.392  0.00  0.00    -0.303 N 
ATOM     12  H   UNL     1       0.569   0.673   0.522  0.00  0.00    +0.149 HD
BRANCH  11  13
ATOM     13  C   UNL     1       1.489   2.695   0.336  0.00  0.00    +0.217 C 
BRANCH  13  14
ATOM     14  C   UNL     1       2.809   1.935   0.475  0.00  0.00    +0.405 C 
ATOM     15  F   UNL     1       2.929   1.012  -0.570  0.00  0.00    -0.169 F 
ATOM     16  F   UNL     1       3.875   2.840   0.421  0.00  0.00    -0.169 F 
ATOM     17  F   UNL     1       2.832   1.260   1.699  0.00  0.00    -0.169 F 
ENDBRANCH  13  14
ENDBRANCH  11  13
ENDBRANCH   8   9
ENDBRANCH   1   3
BRANCH   1  18
ATOM     18  S   UNL     1      -4.933   3.730   0.771  0.00  0.00    +0.073 S 
ATOM     19  O   UNL     1      -4.845   5.130   0.547  0.00  0.00    -0.150 OA
ATOM     20  O   UNL     1      -6.050   2.960   0.349  0.00  0.00    -0.150 OA
BRANCH  18  27
ATOM     21  C   UNL     1      -2.771   4.977   2.476  0.00  0.00    +0.046 C 
ATOM     22  C   UNL     1      -3.757   4.101   3.206  0.00  0.00    -0.024 A 
ATOM     23  C   UNL     1      -3.635   3.914   4.571  0.00  0.00    +0.007 A 
ATOM     24  C   UNL     1      -4.537   3.113   5.243  0.00  0.00    +0.023 A 
ATOM     25  C   UNL     1      -5.568   2.495   4.546  0.00  0.00    +0.035 A 
ATOM     26  C   UNL     1      -5.691   2.689   3.177  0.00  0.00    +0.052 A 
ATOM     27  C   UNL     1      -4.782   3.488   2.510  0.00  0.00    +0.113 A 
BRANCH  25  28
ATOM     28  N   UNL     1      -6.484   1.683   5.224  0.00  0.00    -0.286 N 
ATOM     29  C   UNL     1      -6.850   1.988   6.485  0.00  0.00    +0.214 C 
ATOM     30  O   UNL     1      -6.460   3.015   6.998  0.00  0.00    -0.276 OA
ATOM     31  C   UNL     1      -7.742   1.051   7.258  0.00  0.00    +0.109 C 
ATOM     32  H   UNL     1      -6.906   0.797   4.728  0.00  0.00    +0.155 HD
ENDBRANCH  25  28
ENDBRANCH  18  27
ENDBRANCH   1  18
TORSDOF 7
