REMARK  Name = ZINC17122400
REMARK  3 active torsions:
REMARK  status: ('A' for Active; 'I' for Inactive)
REMARK    1  A    between atoms: C_3  and  N_13
REMARK    2  A    between atoms: N_10  and  O_11
REMARK    3  A    between atoms: N_13  and  O_14
REMARK                            x       y       z     vdW  Elec       q    Type
REMARK                         _______ _______ _______ _____ _____    ______ ____
ROOT
ATOM      1  C   UNL     1       2.351   0.051  -0.664  0.00  0.00    +0.267 C 
ATOM      2  C   UNL     1       1.273  -0.728   0.094  0.00  0.00    +0.209 C 
ATOM      3  N   UNL     1       0.002  -0.004   0.002  0.00  0.00    -0.277 N 
ATOM      4  C   UNL     1      -0.016   1.340   0.009  0.00  0.00    +0.326 C 
ATOM      5  O   UNL     1      -1.086   1.921   0.018  0.00  0.00    -0.251 OA
ATOM      6  N   UNL     1       1.119   2.055   0.002  0.00  0.00    -0.145 NA
ATOM      7  C   UNL     1       2.271   1.508  -0.287  0.00  0.00    +0.161 C 
ATOM      8  N   UNL     1       3.396   2.254  -0.247  0.00  0.00    -0.215 N 
ATOM      9  F   UNL     1       2.146  -0.087  -2.041  0.00  0.00    -0.234 F 
ATOM     10  H   UNL     1      -0.830  -0.497  -0.064  0.00  0.00    +0.152 HD
ATOM     11  H   UNL     1       4.253   1.851  -0.461  0.00  0.00    +0.199 HD
ENDROOT
BRANCH   8  12
ATOM     12  O   UNL     1       3.326   3.623   0.108  0.00  0.00    -0.068 OA
ATOM     13  F   UNL     1       4.397   4.186   0.109  0.00  0.00    -0.022 F 
ENDBRANCH   8  12
BRANCH   2  14
ATOM     14  N   UNL     1       1.662  -0.860   1.504  0.00  0.00    -0.180 NA
ATOM     15  H   UNL     1       2.665  -0.821   1.608  0.00  0.00    +0.156 HD
BRANCH  14  16
ATOM     16  O   UNL     1       1.122  -2.089   2.084  0.00  0.00    -0.313 OA
ATOM     17  H   UNL     1       1.352  -2.220   3.014  0.00  0.00    +0.236 HD
ENDBRANCH  14  16
ENDBRANCH   2  14
TORSDOF 3
