REMARK  Name = ZINC35050946
REMARK  10 active torsions:
REMARK  status: ('A' for Active; 'I' for Inactive)
REMARK    1  A    between atoms: C_3  and  O_36
REMARK    2  A    between atoms: C_6  and  C_7
REMARK    3  A    between atoms: C_16  and  O_35
REMARK    4  A    between atoms: C_17  and  O_18
REMARK    5  A    between atoms: O_18  and  C_19
REMARK    6  A    between atoms: C_21  and  O_34
REMARK    7  A    between atoms: C_23  and  O_33
REMARK    8  A    between atoms: C_25  and  O_32
REMARK    9  A    between atoms: C_27  and  C_30
REMARK   10  A    between atoms: C_30  and  O_31
REMARK                            x       y       z     vdW  Elec       q    Type
REMARK                         _______ _______ _______ _____ _____    ______ ____
ROOT
ATOM      1  C   UNL     1      -1.721   0.330  -0.191  0.00  0.00    +0.064 A 
ATOM      2  C   UNL     1      -2.682   0.268  -1.150  0.00  0.00    +0.208 A 
ATOM      3  O   UNL     1      -3.608  -0.693  -1.183  0.00  0.00    -0.458 OA
ATOM      4  C   UNL     1      -3.848  -1.483  -0.118  0.00  0.00    +0.184 A 
ATOM      5  C   UNL     1      -2.930  -1.542   0.945  0.00  0.00    +0.068 A 
ATOM      6  C   UNL     1      -1.716  -0.707   0.859  0.00  0.00    +0.200 A 
ATOM      7  O   UNL     1      -0.769  -0.861   1.610  0.00  0.00    -0.286 OA
ATOM      8  C   UNL     1      -3.170  -2.367   2.044  0.00  0.00    +0.019 A 
ATOM      9  C   UNL     1      -4.310  -3.120   2.091  0.00  0.00    +0.050 A 
ATOM     10  C   UNL     1      -5.231  -3.067   1.049  0.00  0.00    +0.162 A 
ATOM     11  C   UNL     1      -5.006  -2.254  -0.053  0.00  0.00    +0.208 A 
ENDROOT
BRANCH   1  17
ATOM     12  C   UNL     1      -1.083   2.733  -0.010  0.00  0.00    +0.012 A 
ATOM     13  C   UNL     1      -0.132   3.732  -0.022  0.00  0.00    +0.046 A 
ATOM     14  C   UNL     1       1.204   3.418  -0.225  0.00  0.00    +0.117 A 
ATOM     15  C   UNL     1       1.588   2.098  -0.418  0.00  0.00    +0.046 A 
ATOM     16  C   UNL     1       0.642   1.095  -0.407  0.00  0.00    +0.012 A 
ATOM     17  C   UNL     1      -0.701   1.407  -0.203  0.00  0.00    -0.011 A 
BRANCH  14  18
ATOM     18  O   UNL     1       2.139   4.405  -0.237  0.00  0.00    -0.507 OA
ATOM     19  H   UNL     1       2.520   4.596   0.631  0.00  0.00    +0.292 HD
ENDBRANCH  14  18
ENDBRANCH   1  17
BRANCH  10  20
ATOM     20  O   UNL     1      -6.361  -3.818   1.112  0.00  0.00    -0.503 OA
ATOM     21  H   UNL     1      -7.108  -3.372   1.534  0.00  0.00    +0.292 HD
ENDBRANCH  10  20
BRANCH  11  22
ATOM     22  O   UNL     1      -5.913  -2.211  -1.067  0.00  0.00    -0.453 OA
BRANCH  22  23
ATOM     23  C   UNL     1      -5.833  -3.241  -2.054  0.00  0.00    +0.340 C 
ATOM     24  C   UNL     1      -7.130  -3.271  -2.867  0.00  0.00    +0.214 C 
ATOM     25  C   UNL     1      -7.295  -1.936  -3.600  0.00  0.00    +0.180 C 
ATOM     26  C   UNL     1      -6.064  -1.694  -4.479  0.00  0.00    +0.177 C 
ATOM     27  C   UNL     1      -4.808  -1.724  -3.603  0.00  0.00    +0.179 C 
ATOM     28  O   UNL     1      -4.732  -2.981  -2.926  0.00  0.00    -0.331 OA
BRANCH  26  29
ATOM     29  O   UNL     1      -5.979  -2.715  -5.474  0.00  0.00    -0.386 OA
ATOM     30  H   UNL     1      -6.745  -2.755  -6.062  0.00  0.00    +0.210 HD
ENDBRANCH  26  29
BRANCH  25  31
ATOM     31  O   UNL     1      -8.466  -1.982  -4.417  0.00  0.00    -0.386 OA
ATOM     32  H   UNL     1      -9.284  -2.139  -3.925  0.00  0.00    +0.210 HD
ENDBRANCH  25  31
BRANCH  24  33
ATOM     33  O   UNL     1      -8.239  -3.475  -1.989  0.00  0.00    -0.383 OA
ATOM     34  H   UNL     1      -8.197  -4.301  -1.488  0.00  0.00    +0.210 HD
ENDBRANCH  24  33
BRANCH  27  35
ATOM     35  C   UNL     1      -3.569  -1.542  -4.482  0.00  0.00    +0.190 C 
BRANCH  35  36
ATOM     36  O   UNL     1      -2.407  -1.454  -3.655  0.00  0.00    -0.392 OA
ATOM     37  H   UNL     1      -1.583  -1.338  -4.147  0.00  0.00    +0.210 HD
ENDBRANCH  35  36
ENDBRANCH  27  35
ENDBRANCH  22  23
ENDBRANCH  11  22
TORSDOF 10
