REMARK  Name = ZINC44988652
REMARK  10 active torsions:
REMARK  status: ('A' for Active; 'I' for Inactive)
REMARK    1  A    between atoms: C_1  and  N_2
REMARK    2  A    between atoms: N_2  and  S_3
REMARK    3  A    between atoms: S_3  and  C_6
REMARK    4  A    between atoms: C_9  and  N_13
REMARK    5  A    between atoms: C_10  and  N_12
REMARK    6  A    between atoms: N_13  and  C_14
REMARK    7  A    between atoms: C_14  and  C_15
REMARK    8  A    between atoms: C_15  and  C_16
REMARK    9  A    between atoms: N_18  and  C_19
REMARK   10  A    between atoms: N_18  and  C_20
REMARK                            x       y       z     vdW  Elec       q    Type
REMARK                         _______ _______ _______ _____ _____    ______ ____
ROOT
ATOM      1  C   UNL     1      -0.166  -0.494   2.705  0.00  0.00    +0.107 A 
ATOM      2  C   UNL     1       0.174   0.590   3.493  0.00  0.00    +0.030 A 
ATOM      3  C   UNL     1      -0.535   0.858   4.649  0.00  0.00    +0.026 A 
ATOM      4  C   UNL     1      -1.591   0.040   5.021  0.00  0.00    +0.048 A 
ATOM      5  C   UNL     1      -1.934  -1.053   4.226  0.00  0.00    +0.048 A 
ATOM      6  C   UNL     1      -1.221  -1.312   3.065  0.00  0.00    +0.053 A 
ENDROOT
BRANCH   1   7
ATOM      7  S   UNL     1       0.742  -0.829   1.233  0.00  0.00    +0.058 S 
ATOM      8  O   UNL     1       0.570  -2.212   0.955  0.00  0.00    -0.153 OA
ATOM      9  O   UNL     1       2.024  -0.240   1.403  0.00  0.00    -0.153 OA
BRANCH   7  11
ATOM     10  C   UNL     1      -0.018   1.461   0.010  0.00  0.00    +0.127 C 
ATOM     11  N   UNL     1       0.002  -0.004   0.002  0.00  0.00    -0.193 NA
ATOM     12  H   UNL     1      -0.418  -0.491  -0.724  0.00  0.00    +0.148 HD
ENDBRANCH   7  11
ENDBRANCH   1   7
BRANCH   5  13
ATOM     13  N   UNL     1      -2.999  -1.883   4.596  0.00  0.00    -0.356 N 
ATOM     14  H   UNL     1      -3.499  -1.699   5.406  0.00  0.00    +0.142 HD
ATOM     15  H   UNL     1      -3.237  -2.643   4.041  0.00  0.00    +0.142 HD
ENDBRANCH   5  13
BRANCH   4  16
ATOM     16  N   UNL     1      -2.310   0.310   6.192  0.00  0.00    -0.342 N 
ATOM     17  H   UNL     1      -3.048  -0.263   6.451  0.00  0.00    +0.146 HD
BRANCH  16  18
ATOM     18  C   UNL     1      -1.946   1.458   7.026  0.00  0.00    +0.111 C 
BRANCH  18  19
ATOM     19  C   UNL     1      -2.882   1.526   8.235  0.00  0.00    +0.114 C 
BRANCH  19  20
ATOM     20  C   UNL     1      -2.508   2.707   9.094  0.00  0.00    +0.217 C 
ATOM     21  O   UNL     1      -1.585   3.424   8.770  0.00  0.00    -0.276 OA
ATOM     22  N   UNL     1      -3.200   2.967  10.221  0.00  0.00    -0.308 N 
ATOM     23  C   UNL     1      -2.837   4.115  11.055  0.00  0.00    +0.131 C 
ATOM     24  C   UNL     1      -4.315   2.101  10.611  0.00  0.00    +0.131 C 
ENDBRANCH  19  20
ENDBRANCH  18  19
ENDBRANCH  16  18
ENDBRANCH   4  16
TORSDOF 7
