REMARK  Name = ZINC02856042
REMARK  6 active torsions:
REMARK  status: ('A' for Active; 'I' for Inactive)
REMARK    1  A    between atoms: N_7  and  S_8
REMARK    2  A    between atoms: S_8  and  C_11
REMARK    3  A    between atoms: C_14  and  N_17
REMARK    4  A    between atoms: N_17  and  C_18
REMARK    5  A    between atoms: C_18  and  N_20
REMARK    6  A    between atoms: N_20  and  C_21
REMARK                            x       y       z     vdW  Elec       q    Type
REMARK                         _______ _______ _______ _____ _____    ______ ____
ROOT
ATOM      1  C   UNL     1      -3.339  -5.143   0.069  0.00  0.00    +0.109 A 
ATOM      2  C   UNL     1      -4.547  -4.470   0.082  0.00  0.00    +0.030 A 
ATOM      3  C   UNL     1      -4.569  -3.089   0.097  0.00  0.00    +0.025 A 
ATOM      4  C   UNL     1      -3.377  -2.376   0.099  0.00  0.00    +0.033 A 
ATOM      5  C   UNL     1      -2.166  -3.055   0.079  0.00  0.00    +0.025 A 
ATOM      6  C   UNL     1      -2.150  -4.436   0.071  0.00  0.00    +0.030 A 
ENDROOT
BRANCH   1   7
ATOM      7  S   UNL     1      -3.314  -6.904   0.051  0.00  0.00    +0.075 S 
ATOM      8  O   UNL     1      -2.061  -7.299   0.592  0.00  0.00    -0.150 OA
ATOM      9  O   UNL     1      -4.551  -7.333   0.604  0.00  0.00    -0.150 OA
BRANCH   7  16
ATOM     10  C   UNL     1      -0.151  -6.489  -3.922  0.00  0.00    +0.039 A 
ATOM     11  C   UNL     1      -1.087  -7.435  -4.310  0.00  0.00    +0.116 A 
ATOM     12  N   UNL     1      -2.106  -7.701  -3.509  0.00  0.00    -0.222 NA
ATOM     13  C   UNL     1      -2.237  -7.075  -2.349  0.00  0.00    +0.235 A 
ATOM     14  N   UNL     1      -1.363  -6.162  -1.951  0.00  0.00    -0.222 NA
ATOM     15  C   UNL     1      -0.319  -5.853  -2.702  0.00  0.00    +0.116 A 
ATOM     16  N   UNL     1      -3.316  -7.378  -1.536  0.00  0.00    -0.184 N 
ATOM     17  H   UNL     1      -4.072  -7.867  -1.896  0.00  0.00    +0.177 HD
ENDBRANCH   7  16
ENDBRANCH   1   7
BRANCH   4  18
ATOM     18  N   UNL     1      -3.396  -0.978   0.114  0.00  0.00    -0.297 N 
ATOM     19  H   UNL     1      -2.772  -0.478  -0.436  0.00  0.00    +0.154 HD
BRANCH  18  20
ATOM     20  C   UNL     1      -4.282  -0.324   0.892  0.00  0.00    +0.139 C 
ATOM     21  S   UNL     1      -5.283  -1.200   1.970  0.00  0.00    -0.018 S 
BRANCH  20  22
ATOM     22  N   UNL     1      -4.380   1.018   0.820  0.00  0.00    -0.297 N 
ATOM     23  H   UNL     1      -3.874   1.506   0.152  0.00  0.00    +0.154 HD
BRANCH  22  24
ATOM     24  C   UNL     1      -5.212   1.707   1.710  0.00  0.00    +0.033 A 
ATOM     25  C   UNL     1      -5.989   2.765   1.259  0.00  0.00    +0.023 A 
ATOM     26  C   UNL     1      -6.812   3.438   2.139  0.00  0.00    +0.006 A 
ATOM     27  C   UNL     1      -6.861   3.066   3.473  0.00  0.00    -0.044 A 
ATOM     28  C   UNL     1      -6.084   2.016   3.926  0.00  0.00    -0.042 A 
ATOM     29  C   UNL     1      -5.257   1.339   3.047  0.00  0.00    +0.027 A 
ATOM     30  C   UNL     1      -6.317   1.809   5.408  0.00  0.00    +0.036 C 
ATOM     31  C   UNL     1      -7.634   2.551   5.717  0.00  0.00    +0.009 C 
ATOM     32  C   UNL     1      -7.669   3.636   4.619  0.00  0.00    +0.036 C 
ENDBRANCH  22  24
ENDBRANCH  20  22
ENDBRANCH  18  20
ENDBRANCH   4  18
TORSDOF 6
