REMARK  Name = ZINC08189790
REMARK  6 active torsions:
REMARK  status: ('A' for Active; 'I' for Inactive)
REMARK    1  A    between atoms: C_4  and  S_7
REMARK    2  A    between atoms: S_7  and  C_8
REMARK    3  A    between atoms: C_8  and  C_9
REMARK    4  A    between atoms: N_11  and  C_12
REMARK    5  A    between atoms: C_15  and  C_19
REMARK    6  A    between atoms: C_16  and  O_18
REMARK                            x       y       z     vdW  Elec       q    Type
REMARK                         _______ _______ _______ _____ _____    ______ ____
ROOT
ATOM      1  C   UNL     1      -0.818   1.431   1.262  0.00  0.00    +0.227 C 
ATOM      2  O   UNL     1      -1.897   1.979   1.184  0.00  0.00    -0.275 OA
ATOM      3  N   UNL     1      -0.242   1.246   2.466  0.00  0.00    -0.285 N 
ATOM      4  H   UNL     1       0.584   0.741   2.536  0.00  0.00    +0.155 HD
ENDROOT
BRANCH   3   5
ATOM      5  C   UNL     1      -0.831   1.780   3.611  0.00  0.00    +0.037 A 
ATOM      6  C   UNL     1      -1.513   2.993   3.539  0.00  0.00    +0.024 A 
ATOM      7  C   UNL     1      -2.098   3.522   4.653  0.00  0.00    +0.020 A 
ATOM      8  C   UNL     1      -2.007   2.854   5.878  0.00  0.00    +0.105 A 
ATOM      9  C   UNL     1      -1.317   1.634   5.957  0.00  0.00    +0.133 A 
ATOM     10  C   UNL     1      -0.732   1.104   4.819  0.00  0.00    +0.069 A 
BRANCH   8  11
ATOM     11  C   UNL     1      -2.633   3.427   7.081  0.00  0.00    +0.390 C 
ATOM     12  O   UNL     1      -2.553   2.844   8.144  0.00  0.00    -0.240 OA
ATOM     13  O   UNL     1      -3.296   4.598   7.002  0.00  0.00    -0.240 OA
ENDBRANCH   8  11
BRANCH   9  14
ATOM     14  O   UNL     1      -1.223   0.978   7.141  0.00  0.00    -0.506 OA
ATOM     15  H   UNL     1      -0.449   1.222   7.666  0.00  0.00    +0.292 HD
ENDBRANCH   9  14
ENDBRANCH   3   5
BRANCH   1  16
ATOM     16  C   UNL     1      -0.122   0.958   0.012  0.00  0.00    +0.170 C 
BRANCH  16  17
ATOM     17  S   UNL     1      -1.144   1.350  -1.435  0.00  0.00    -0.116 S 
BRANCH  17  21
ATOM     18  C   UNL     1       1.268  -0.213  -4.935  0.00  0.00    +0.000 A 
ATOM     19  C   UNL     1       0.046   0.396  -5.157  0.00  0.00    +0.001 A 
ATOM     20  C   UNL     1      -0.692   0.873  -4.092  0.00  0.00    +0.015 A 
ATOM     21  C   UNL     1      -0.205   0.742  -2.797  0.00  0.00    +0.008 A 
ATOM     22  C   UNL     1       1.026   0.136  -2.579  0.00  0.00    +0.015 A 
ATOM     23  C   UNL     1       1.755  -0.346  -3.648  0.00  0.00    +0.001 A 
ENDBRANCH  17  21
ENDBRANCH  16  17
ENDBRANCH   1  16
TORSDOF 6
