REMARK  Name = ZINC51689658
REMARK  7 active torsions:
REMARK  status: ('A' for Active; 'I' for Inactive)
REMARK    1  A    between atoms: C_1  and  C_2
REMARK    2  A    between atoms: C_2  and  C_3
REMARK    3  A    between atoms: C_2  and  C_4
REMARK    4  A    between atoms: C_2  and  C_5
REMARK    5  A    between atoms: C_5  and  C_7
REMARK    6  A    between atoms: C_5  and  N_12
REMARK    7  A    between atoms: C_19  and  C_22
REMARK                            x       y       z     vdW  Elec       q    Type
REMARK                         _______ _______ _______ _____ _____    ______ ____
ROOT
ATOM      1  N   UNL     1       0.010  -0.012  -2.444  0.00  0.00    -0.291 N 
ATOM      2  C   UNL     1      -1.042  -0.701  -2.929  0.00  0.00    +0.303 C 
ATOM      3  O   UNL     1      -1.348  -1.770  -2.438  0.00  0.00    -0.253 OA
ATOM      4  N   UNL     1      -1.756  -0.203  -3.958  0.00  0.00    -0.280 N 
ATOM      5  C   UNL     1      -2.976  -0.878  -4.430  0.00  0.00    +0.137 C 
ATOM      6  C   UNL     1      -4.102   0.159  -4.511  0.00  0.00    +0.180 C 
ATOM      7  O   UNL     1      -3.656   1.278  -5.282  0.00  0.00    -0.364 OA
ATOM      8  C   UNL     1      -2.545   1.975  -4.714  0.00  0.00    +0.221 C 
ATOM      9  C   UNL     1      -1.343   1.034  -4.639  0.00  0.00    +0.150 C 
ATOM     10  H   UNL     1       0.301   0.802  -2.883  0.00  0.00    +0.151 HD
ENDROOT
BRANCH   8  11
ATOM     11  C   UNL     1      -2.204   3.165  -5.574  0.00  0.00    +0.241 C 
ATOM     12  O   UNL     1      -2.788   3.343  -6.622  0.00  0.00    -0.273 OA
ATOM     13  N   UNL     1      -1.250   4.030  -5.178  0.00  0.00    -0.327 N 
ATOM     14  H   UNL     1      -0.783   3.888  -4.340  0.00  0.00    +0.145 HD
ATOM     15  H   UNL     1      -1.030   4.796  -5.732  0.00  0.00    +0.145 HD
ENDBRANCH   8  11
BRANCH   1  16
ATOM     16  C   UNL     1       0.714  -0.494  -1.253  0.00  0.00    +0.117 C 
BRANCH  16  17
ATOM     17  C   UNL     1       2.129   0.025  -1.262  0.00  0.00    +0.011 A 
ATOM     18  C   UNL     1       3.274  -0.613  -0.915  0.00  0.00    +0.013 A 
ATOM     19  C   UNL     1       4.473   0.068  -1.004  0.00  0.00    +0.008 A 
ATOM     20  C   UNL     1       4.470   1.353  -1.436  0.00  0.00    +0.045 A 
ATOM     21  S   UNL     1       2.733   1.635  -1.739  0.00  0.00    -0.100 S 
ENDBRANCH  16  17
BRANCH  16  23
ATOM     22  C   UNL     1      -0.022   1.537   0.003  0.00  0.00    +0.013 C 
ATOM     23  C   UNL     1      -0.005   0.007   0.002  0.00  0.00    -0.015 C 
ATOM     24  C   UNL     1       0.731  -0.496   1.246  0.00  0.00    +0.013 C 
ATOM     25  C   UNL     1      -1.441  -0.520   0.011  0.00  0.00    +0.013 C 
ENDBRANCH  16  23
ENDBRANCH   1  16
TORSDOF 4
