REMARK  Name = ZINC49029189
REMARK  3 active torsions:
REMARK  status: ('A' for Active; 'I' for Inactive)
REMARK    1  A    between atoms: C_3  and  C_6
REMARK    2  A    between atoms: C_6  and  N_7
REMARK    3  A    between atoms: C_14  and  C_16
REMARK                            x       y       z     vdW  Elec       q    Type
REMARK                         _______ _______ _______ _____ _____    ______ ____
ROOT
ATOM      1  N   UNL     1       4.234   2.004   1.353  0.00  0.00    -0.294 N 
ATOM      2  C   UNL     1       5.483   2.450   1.589  0.00  0.00    +0.308 C 
ATOM      3  O   UNL     1       6.218   2.722   0.660  0.00  0.00    -0.252 OA
ATOM      4  N   UNL     1       5.918   2.596   2.857  0.00  0.00    -0.222 N 
ATOM      5  C   UNL     1       7.204   3.056   3.100  0.00  0.00    +0.316 A 
ATOM      6  N   UNL     1       8.092   3.389   2.196  0.00  0.00    -0.092 NA
ATOM      7  N   UNL     1       9.174   3.770   2.778  0.00  0.00    -0.106 NA
ATOM      8  C   UNL     1       9.019   3.696   4.078  0.00  0.00    +0.251 A 
ATOM      9  O   UNL     1       7.766   3.248   4.309  0.00  0.00    -0.405 OA
ATOM     10  H   UNL     1       3.648   1.787   2.095  0.00  0.00    +0.151 HD
ATOM     11  H   UNL     1       5.332   2.379   3.599  0.00  0.00    +0.161 HD
ENDROOT
BRANCH   8  12
ATOM     12  C   UNL     1      10.027   4.045   5.101  0.00  0.00    +0.046 A 
ATOM     13  C   UNL     1      11.287   4.510   4.731  0.00  0.00    +0.021 A 
ATOM     14  C   UNL     1      12.181   4.818   5.697  0.00  0.00    +0.046 A 
ATOM     15  S   UNL     1      11.270   4.460   7.188  0.00  0.00    -0.104 S 
ATOM     16  C   UNL     1       9.743   3.923   6.435  0.00  0.00    +0.058 A 
ENDBRANCH   8  12
BRANCH   1  17
ATOM     17  C   UNL     1       3.761   1.845  -0.024  0.00  0.00    +0.148 C 
BRANCH  17  20
ATOM     18  C   UNL     1      -0.016   1.351   0.009  0.00  0.00    +0.008 A 
ATOM     19  C   UNL     1       1.183   2.038   0.002  0.00  0.00    +0.013 A 
ATOM     20  C   UNL     1       2.343   1.336  -0.013  0.00  0.00    +0.007 A 
ATOM     21  S   UNL     1       1.754  -0.349  -0.017  0.00  0.00    -0.100 S 
ATOM     22  C   UNL     1       0.002  -0.004   0.002  0.00  0.00    +0.045 A 
ENDBRANCH  17  20
ENDBRANCH   1  17
TORSDOF 3
