REMARK  Name = ZINC63084333
REMARK  6 active torsions:
REMARK  status: ('A' for Active; 'I' for Inactive)
REMARK    1  A    between atoms: C_1  and  N_2
REMARK    2  A    between atoms: C_7  and  N_19
REMARK    3  A    between atoms: C_9  and  C_11
REMARK    4  A    between atoms: C_11  and  S_12
REMARK    5  A    between atoms: S_12  and  C_13
REMARK    6  A    between atoms: N_19  and  N_20
REMARK                            x       y       z     vdW  Elec       q    Type
REMARK                         _______ _______ _______ _____ _____    ______ ____
ROOT
ATOM      1  C   UNL     1      -0.018   1.461   0.010  0.00  0.00    +0.174 C 
ATOM      2  N   UNL     1       0.002  -0.004   0.002  0.00  0.00    -0.249 N 
ATOM      3  C   UNL     1       0.008  -0.797  -1.107  0.00  0.00    +0.163 A 
ATOM      4  C   UNL     1       0.028  -2.128  -0.648  0.00  0.00    +0.079 A 
ATOM      5  C   UNL     1       0.034  -2.080   0.763  0.00  0.00    +0.148 A 
ATOM      6  N   UNL     1       0.025  -0.831   1.132  0.00  0.00    -0.177 NA
ATOM      7  C   UNL     1       0.038  -3.163  -1.603  0.00  0.00    +0.146 A 
ATOM      8  N   UNL     1       0.027  -2.834  -2.891  0.00  0.00    -0.215 NA
ATOM      9  C   UNL     1       0.009  -1.569  -3.273  0.00  0.00    +0.144 A 
ATOM     10  N   UNL     1      -0.001  -0.570  -2.419  0.00  0.00    -0.212 NA
ENDROOT
BRANCH   7  11
ATOM     11  N   UNL     1       0.058  -4.487  -1.212  0.00  0.00    -0.267 N 
ATOM     12  H   UNL     1       0.066  -4.714  -0.269  0.00  0.00    +0.167 HD
BRANCH  11  13
ATOM     13  N   UNL     1       0.067  -5.478  -2.153  0.00  0.00    -0.255 NA
ATOM     14  H   UNL     1       0.082  -6.388  -1.719  0.00  0.00    +0.140 HD
ATOM     15  H   UNL     1      -0.719  -5.388  -2.780  0.00  0.00    +0.140 HD
ENDBRANCH  11  13
ENDBRANCH   7  11
BRANCH   9  16
ATOM     16  C   UNL     1      -0.002  -1.260  -4.748  0.00  0.00    +0.153 C 
BRANCH  16  17
ATOM     17  S   UNL     1      -1.716  -1.160  -5.333  0.00  0.00    -0.079 S 
BRANCH  17  18
ATOM     18  C   UNL     1      -1.560  -0.798  -7.051  0.00  0.00    +0.184 A 
ATOM     19  N   UNL     1      -2.577  -0.623  -7.922  0.00  0.00    -0.254 N 
ATOM     20  H   UNL     1      -3.526  -0.672  -7.726  0.00  0.00    +0.191 HD
ATOM     21  N   UNL     1      -1.987  -0.357  -9.169  0.00  0.00    -0.160 NA
ATOM     22  C   UNL     1      -0.694  -0.384  -8.993  0.00  0.00    +0.245 A 
ATOM     23  N   UNL     1      -0.432  -0.645  -7.711  0.00  0.00    -0.209 NA
ENDBRANCH  17  18
ENDBRANCH  16  17
ENDBRANCH   9  16
TORSDOF 5
