REMARK  Name = ZINC14128567
REMARK  3 active torsions:
REMARK  status: ('A' for Active; 'I' for Inactive)
REMARK    1  A    between atoms: N_13  and  C_17
REMARK    2  A    between atoms: C_17  and  N_18
REMARK    3  A    between atoms: C_21  and  C_24
REMARK                            x       y       z     vdW  Elec       q    Type
REMARK                         _______ _______ _______ _____ _____    ______ ____
ROOT
ATOM      1  C   UNL     1       3.373   1.578  -3.621  0.00  0.00    +0.000 A 
ATOM      2  C   UNL     1       1.991   1.560  -3.623  0.00  0.00    +0.000 A 
ATOM      3  C   UNL     1       1.301   1.741  -2.442  0.00  0.00    +0.006 A 
ATOM      4  C   UNL     1       1.984   1.942  -1.250  0.00  0.00    -0.012 A 
ATOM      5  C   UNL     1       3.362   1.953  -1.247  0.00  0.00    -0.042 A 
ATOM      6  C   UNL     1       4.054   1.775  -2.438  0.00  0.00    +0.004 A 
ATOM      7  C   UNL     1       4.165   2.146   0.012  0.00  0.00    +0.035 C 
ATOM      8  C   UNL     1       3.305   2.757   1.116  0.00  0.00    +0.008 C 
ATOM      9  C   UNL     1       2.023   1.925   1.251  0.00  0.00    +0.040 C 
ATOM     10  C   UNL     1       1.177   2.139   0.002  0.00  0.00    +0.138 C 
ATOM     11  C   UNL     1      -0.014   1.208   0.009  0.00  0.00    +0.252 C 
ATOM     12  O   UNL     1       0.002  -0.004   0.002  0.00  0.00    -0.272 OA
ATOM     13  N   UNL     1      -1.099   2.010   0.017  0.00  0.00    -0.210 N 
ATOM     14  C   UNL     1      -0.756   3.304   0.027  0.00  0.00    +0.311 C 
ATOM     15  O   UNL     1      -1.560   4.215   0.040  0.00  0.00    -0.252 OA
ATOM     16  N   UNL     1       0.578   3.481   0.015  0.00  0.00    -0.281 N 
ATOM     17  H   UNL     1       1.224   4.372   0.013  0.00  0.00    +0.152 HD
ENDROOT
BRANCH  13  18
ATOM     18  C   UNL     1      -2.482   1.524   0.020  0.00  0.00    +0.205 C 
BRANCH  18  19
ATOM     19  N   UNL     1      -2.938   1.354   1.406  0.00  0.00    -0.286 NA
ATOM     20  C   UNL     1      -2.458   0.084   1.966  0.00  0.00    +0.086 C 
ATOM     21  C   UNL     1      -2.828   0.007   3.449  0.00  0.00    +0.028 C 
ATOM     22  C   UNL     1      -4.348   0.109   3.597  0.00  0.00    +0.077 C 
ATOM     23  C   UNL     1      -4.828   1.418   2.963  0.00  0.00    +0.028 C 
ATOM     24  C   UNL     1      -4.401   1.454   1.494  0.00  0.00    +0.086 C 
BRANCH  22  25
ATOM     25  C   UNL     1      -4.715   0.094   5.058  0.00  0.00    +0.214 C 
ATOM     26  O   UNL     1      -5.303   1.036   5.546  0.00  0.00    -0.276 OA
ATOM     27  N   UNL     1      -4.391  -0.967   5.823  0.00  0.00    -0.329 N 
ATOM     28  H   UNL     1      -4.659  -0.979   6.890  0.00  0.00    +0.145 HD
ATOM     29  H   UNL     1      -3.857  -1.822   5.381  0.00  0.00    +0.145 HD
ENDBRANCH  22  25
ENDBRANCH  18  19
ENDBRANCH  13  18
TORSDOF 3
