REMARK  Name = ZINC08766262
REMARK  10 active torsions:
REMARK  status: ('A' for Active; 'I' for Inactive)
REMARK    1  A    between atoms: C_1  and  C_2
REMARK    2  A    between atoms: C_2  and  C_3
REMARK    3  A    between atoms: C_9  and  C_10
REMARK    4  A    between atoms: C_9  and  N_62
REMARK    5  A    between atoms: C_11  and  O_34
REMARK    6  A    between atoms: C_17  and  C_30
REMARK    7  A    between atoms: C_18  and  O_21
REMARK    8  A    between atoms: O_21  and  C_22
REMARK    9  A    between atoms: C_24  and  C_29
REMARK   10  A    between atoms: C_26  and  C_28
REMARK                            x       y       z     vdW  Elec       q    Type
REMARK                         _______ _______ _______ _____ _____    ______ ____
ROOT
ATOM      1  C   UNL     1       1.054  -2.056   0.083  0.00  0.00    +0.020 A 
ATOM      2  C   UNL     1       2.268  -2.722   0.080  0.00  0.00    +0.122 A 
ATOM      3  C   UNL     1       3.466  -2.011   0.111  0.00  0.00    +0.046 A 
ATOM      4  C   UNL     1       3.459  -0.645   0.145  0.00  0.00    +0.019 A 
ATOM      5  C   UNL     1       2.244   0.040   0.147  0.00  0.00    +0.068 A 
ATOM      6  C   UNL     1       1.029  -0.669   0.116  0.00  0.00    +0.144 A 
ATOM      7  O   UNL     1      -0.139   0.004   0.119  0.00  0.00    -0.447 OA
ATOM      8  C   UNL     1      -0.197   1.342   0.151  0.00  0.00    +0.254 A 
ATOM      9  C   UNL     1       0.904   2.119   0.182  0.00  0.00    +0.222 A 
ATOM     10  C   UNL     1       2.192   1.512   0.183  0.00  0.00    +0.235 A 
ATOM     11  O   UNL     1       3.211   2.182   0.210  0.00  0.00    -0.283 OA
ENDROOT
BRANCH   8  12
ATOM     12  C   UNL     1      -1.550   2.006   0.145  0.00  0.00    +0.454 C 
ATOM     13  F   UNL     1      -1.946   2.244  -1.175  0.00  0.00    -0.163 F 
ATOM     14  F   UNL     1      -2.482   1.171   0.769  0.00  0.00    -0.163 F 
ATOM     15  F   UNL     1      -1.475   3.221   0.836  0.00  0.00    -0.163 F 
ENDBRANCH   8  12
BRANCH   2  16
ATOM     16  O   UNL     1       2.292  -4.079   0.047  0.00  0.00    -0.506 OA
ATOM     17  H   UNL     1       2.308  -4.450  -0.845  0.00  0.00    +0.292 HD
ENDBRANCH   2  16
BRANCH   1  18
ATOM     18  C   UNL     1      -0.236  -2.835   0.048  0.00  0.00    -0.035 C 
BRANCH  18  24
ATOM     19  C   UNL     1      -1.687  -4.079  -1.438  0.00  0.00    -0.068 C 
ATOM     20  C   UNL     1      -1.977  -4.384  -2.909  0.00  0.00    -0.015 C 
ATOM     21  C   UNL     1      -2.429  -3.102  -3.612  0.00  0.00    -0.003 C 
ATOM     22  C   UNL     1      -1.340  -2.035  -3.462  0.00  0.00    -0.019 C 
ATOM     23  C   UNL     1      -1.068  -1.798  -1.974  0.00  0.00    -0.078 C 
ATOM     24  N   UNL     1      -0.614  -3.064  -1.362  0.00  0.00    +0.384 N 
ATOM     25  H   UNL     1       0.206  -3.407  -1.875  0.00  0.00    -0.081 HD
BRANCH  19  27
ATOM     26  C   UNL     1      -2.326  -6.405  -0.788  0.00  0.00    +0.002 C 
ATOM     27  C   UNL     1      -1.216  -5.354  -0.736  0.00  0.00    -0.019 C 
ENDBRANCH  19  27
ENDBRANCH  18  24
ENDBRANCH   1  18
BRANCH   9  28
ATOM     28  O   UNL     1       0.785   3.474   0.214  0.00  0.00    -0.448 OA
BRANCH  28  29
ATOM     29  C   UNL     1       0.716   4.081   1.427  0.00  0.00    +0.129 A 
ATOM     30  C   UNL     1       0.761   3.321   2.588  0.00  0.00    +0.049 A 
ATOM     31  C   UNL     1       0.695   3.940   3.821  0.00  0.00    -0.047 A 
ATOM     32  C   UNL     1       0.575   5.315   3.899  0.00  0.00    +0.007 A 
ATOM     33  C   UNL     1       0.524   6.074   2.745  0.00  0.00    -0.047 A 
ATOM     34  C   UNL     1       0.595   5.460   1.509  0.00  0.00    +0.049 A 
ATOM     35  C   UNL     1       0.393   7.573   2.834  0.00  0.00    +0.044 C 
ATOM     36  C   UNL     1       0.750   3.116   5.081  0.00  0.00    +0.044 C 
ENDBRANCH  28  29
ENDBRANCH   9  28
TORSDOF 7
