REMARK  Name = ZINC36916353
REMARK  5 active torsions:
REMARK  status: ('A' for Active; 'I' for Inactive)
REMARK    1  A    between atoms: C_1  and  C_2
REMARK    2  A    between atoms: C_2  and  C_3
REMARK    3  A    between atoms: C_4  and  C_10
REMARK    4  A    between atoms: N_6  and  C_9
REMARK    5  A    between atoms: C_7  and  N_8
REMARK                            x       y       z     vdW  Elec       q    Type
REMARK                         _______ _______ _______ _____ _____    ______ ____
ROOT
ATOM      1  C   UNL     1      -1.529  -0.291   0.046  0.00  0.00    +0.019 A 
ATOM      2  C   UNL     1      -2.147  -0.907   1.151  0.00  0.00    +0.098 A 
ATOM      3  N   UNL     1      -3.227  -1.525   0.725  0.00  0.00    -0.170 NA
ATOM      4  N   UNL     1      -3.332  -1.326  -0.658  0.00  0.00    -0.253 N 
ATOM      5  C   UNL     1      -2.282  -0.560  -1.054  0.00  0.00    +0.118 A 
ATOM      6  C   UNL     1      -4.392  -1.847  -1.524  0.00  0.00    +0.174 C 
ENDROOT
BRANCH   2   7
ATOM      7  C   UNL     1      -1.663  -0.865   2.554  0.00  0.00    +0.006 A 
ATOM      8  C   UNL     1      -2.563  -0.658   3.597  0.00  0.00    +0.048 A 
ATOM      9  C   UNL     1      -2.108  -0.621   4.902  0.00  0.00    +0.125 A 
ATOM     10  C   UNL     1      -0.760  -0.788   5.172  0.00  0.00    +0.053 A 
ATOM     11  C   UNL     1       0.137  -0.993   4.138  0.00  0.00    +0.021 A 
ATOM     12  C   UNL     1      -0.310  -1.039   2.832  0.00  0.00    +0.025 A 
ATOM     13 BR   UNL     1       1.976  -1.221   4.515  0.00  0.00    -0.050 Br
ATOM     14  F   UNL     1      -2.979  -0.420   5.915  0.00  0.00    -0.205 F 
ENDBRANCH   2   7
BRANCH   5  15
ATOM     15  N   UNL     1      -2.022  -0.131  -2.352  0.00  0.00    -0.343 N 
ATOM     16  H   UNL     1      -1.241   0.414  -2.535  0.00  0.00    +0.144 HD
ATOM     17  H   UNL     1      -2.622  -0.376  -3.073  0.00  0.00    +0.144 HD
ENDBRANCH   5  15
BRANCH   1  19
ATOM     18  C   UNL     1      -0.613   2.004   0.252  0.00  0.00    +0.009 C 
ATOM     19  C   UNL     1      -0.262   0.525   0.077  0.00  0.00    +0.037 C 
ENDBRANCH   1  19
TORSDOF 3
