REMARK  Name = ZINC08790991
REMARK  6 active torsions:
REMARK  status: ('A' for Active; 'I' for Inactive)
REMARK    1  A    between atoms: C_4  and  C_7
REMARK    2  A    between atoms: C_7  and  C_8
REMARK    3  A    between atoms: C_8  and  N_9
REMARK    4  A    between atoms: C_14  and  C_31
REMARK    5  A    between atoms: C_31  and  C_32
REMARK    6  A    between atoms: C_32  and  C_33
REMARK                            x       y       z     vdW  Elec       q    Type
REMARK                         _______ _______ _______ _____ _____    ______ ____
ROOT
ATOM      1  N   UNL     1       1.162   5.599   2.290  0.00  0.00    -0.241 N 
ATOM      2  C   UNL     1       1.665   6.536   1.479  0.00  0.00    +0.224 C 
ATOM      3  O   UNL     1       1.256   7.673   1.383  0.00  0.00    -0.275 OA
ATOM      4  C   UNL     1       2.825   5.957   0.700  0.00  0.00    +0.073 C 
ATOM      5  C   UNL     1       2.422   5.827  -0.785  0.00  0.00    -0.057 C 
ATOM      6  C   UNL     1       2.577   3.630  -0.005  0.00  0.00    +0.050 C 
ATOM      7  C   UNL     1       2.908   4.494   1.218  0.00  0.00    +0.088 C 
ATOM      8  C   UNL     1       1.781   4.415   2.222  0.00  0.00    +0.225 C 
ATOM      9  O   UNL     1       1.485   3.432   2.867  0.00  0.00    -0.275 OA
ATOM     10  C   UNL     1       1.145   3.177   0.008  0.00  0.00    -0.026 A 
ATOM     11  C   UNL     1      -0.060   3.844   0.022  0.00  0.00    +0.024 A 
ATOM     12  C   UNL     1      -1.246   3.131   0.029  0.00  0.00    +0.041 A 
ATOM     13  C   UNL     1      -1.218   1.747   0.017  0.00  0.00    +0.022 A 
ATOM     14  C   UNL     1      -0.013   1.076   0.008  0.00  0.00    +0.025 A 
ATOM     15  C   UNL     1       1.185   1.786   0.000  0.00  0.00    +0.036 A 
ATOM     16  N   UNL     1       2.510   1.342  -0.014  0.00  0.00    -0.286 N 
ATOM     17  C   UNL     1       3.388   2.363  -0.018  0.00  0.00    +0.211 C 
ATOM     18  O   UNL     1       4.598   2.277  -0.029  0.00  0.00    -0.277 OA
ATOM     19 CL   UNL     1      -2.766   3.969   0.047  0.00  0.00    -0.084 Cl
ATOM     20  H   UNL     1       2.767   0.406  -0.020  0.00  0.00    +0.155 HD
ATOM     21  N   UNL     1       2.855   4.477  -1.152  0.00  0.00    +0.394 N 
ATOM     22  H   UNL     1       3.860   4.471  -1.363  0.00  0.00    -0.083 HD
ATOM     23  H   UNL     1       2.332   4.147  -1.972  0.00  0.00    -0.083 HD
ENDROOT
BRANCH   1  24
ATOM     24  C   UNL     1       0.024   5.848   3.178  0.00  0.00    +0.121 C 
BRANCH  24  25
ATOM     25  C   UNL     1      -1.278   5.520   2.444  0.00  0.00    +0.054 C 
BRANCH  25  29
ATOM     26  C   UNL     1      -4.596   6.246   5.035  0.00  0.00    +0.000 A 
ATOM     27  C   UNL     1      -4.120   7.257   4.220  0.00  0.00    +0.000 A 
ATOM     28  C   UNL     1      -3.047   7.022   3.382  0.00  0.00    +0.004 A 
ATOM     29  C   UNL     1      -2.448   5.776   3.358  0.00  0.00    -0.046 A 
ATOM     30  C   UNL     1      -2.927   4.764   4.169  0.00  0.00    +0.004 A 
ATOM     31  C   UNL     1      -3.998   5.000   5.011  0.00  0.00    +0.000 A 
ENDBRANCH  25  29
ENDBRANCH  24  25
ENDBRANCH   1  24
BRANCH   5  32
ATOM     32  C   UNL     1       3.135   6.890  -1.625  0.00  0.00    -0.006 C 
BRANCH  32  33
ATOM     33  C   UNL     1       2.687   6.773  -3.083  0.00  0.00    +0.094 C 
BRANCH  33  34
ATOM     34  C   UNL     1       3.389   7.819  -3.909  0.00  0.00    +0.210 C 
ATOM     35  O   UNL     1       4.171   8.583  -3.384  0.00  0.00    -0.276 OA
ATOM     36  N   UNL     1       3.148   7.906  -5.233  0.00  0.00    -0.329 N 
ATOM     37  H   UNL     1       2.522   7.295  -5.653  0.00  0.00    +0.145 HD
ATOM     38  H   UNL     1       3.600   8.579  -5.765  0.00  0.00    +0.145 HD
ENDBRANCH  33  34
ENDBRANCH  32  33
ENDBRANCH   5  32
TORSDOF 6
