REMARK  Name = ZINC35918692
REMARK  8 active torsions:
REMARK  status: ('A' for Active; 'I' for Inactive)
REMARK    1  A    between atoms: C_1  and  O_2
REMARK    2  A    between atoms: O_2  and  C_3
REMARK    3  A    between atoms: C_7  and  C_11
REMARK    4  A    between atoms: C_8  and  O_9
REMARK    5  A    between atoms: O_9  and  C_10
REMARK    6  A    between atoms: C_20  and  C_23
REMARK    7  A    between atoms: N_25  and  C_26
REMARK    8  A    between atoms: C_26  and  C_27
REMARK                            x       y       z     vdW  Elec       q    Type
REMARK                         _______ _______ _______ _____ _____    ______ ____
ROOT
ATOM      1  C   UNL     1       1.394  -4.134   2.219  0.00  0.00    +0.137 C 
ATOM      2  C   UNL     1       0.094  -4.681   2.747  0.00  0.00    +0.060 A 
ATOM      3  C   UNL     1       0.014  -5.663   3.674  0.00  0.00    +0.066 A 
ATOM      4  N   UNL     1      -1.276  -5.900   3.914  0.00  0.00    -0.240 NA
ATOM      5  C   UNL     1      -2.002  -5.104   3.172  0.00  0.00    +0.197 A 
ATOM      6  N   UNL     1      -1.179  -4.328   2.429  0.00  0.00    -0.346 N 
ATOM      7  H   UNL     1      -1.447  -3.649   1.790  0.00  0.00    +0.167 HD
ATOM      8  C   UNL     1       1.228  -6.326   4.277  0.00  0.00    +0.085 C 
ATOM      9  C   UNL     1       2.437  -5.991   3.392  0.00  0.00    +0.147 C 
ATOM     10  N   UNL     1       2.475  -4.544   3.132  0.00  0.00    -0.293 NA
ATOM     11  H   UNL     1       3.376  -4.264   2.776  0.00  0.00    +0.124 HD
ENDROOT
BRANCH   1  16
ATOM     12  C   UNL     1       0.626  -0.619   1.042  0.00  0.00    +0.162 A 
ATOM     13  C   UNL     1       1.202   0.137   2.051  0.00  0.00    +0.049 A 
ATOM     14  C   UNL     1       1.836  -0.490   3.108  0.00  0.00    +0.004 A 
ATOM     15  C   UNL     1       1.897  -1.870   3.161  0.00  0.00    +0.009 A 
ATOM     16  C   UNL     1       1.325  -2.630   2.158  0.00  0.00    +0.021 A 
ATOM     17  C   UNL     1       0.683  -2.008   1.099  0.00  0.00    +0.166 A 
BRANCH  12  19
ATOM     18  C   UNL     1      -0.017   1.425   0.010  0.00  0.00    +0.277 C 
ATOM     19  O   UNL     1       0.002  -0.004   0.002  0.00  0.00    -0.491 OA
ENDBRANCH  12  19
BRANCH  17  20
ATOM     20  O   UNL     1       0.115  -2.754   0.114  0.00  0.00    -0.491 OA
ATOM     21  C   UNL     1       0.940  -3.091  -1.003  0.00  0.00    +0.277 C 
ENDBRANCH  17  20
ENDBRANCH   1  16
BRANCH   9  22
ATOM     22  C   UNL     1       3.703  -6.406   4.095  0.00  0.00    +0.231 C 
ATOM     23  O   UNL     1       4.374  -5.580   4.675  0.00  0.00    -0.274 OA
ATOM     24  N   UNL     1       4.091  -7.697   4.077  0.00  0.00    -0.307 N 
ATOM     25  H   UNL     1       3.554  -8.358   3.613  0.00  0.00    +0.149 HD
BRANCH  24  26
ATOM     26  C   UNL     1       5.322  -8.101   4.760  0.00  0.00    +0.178 C 
BRANCH  26  27
ATOM     27  C   UNL     1       5.527  -9.585   4.591  0.00  0.00    +0.122 A 
ATOM     28  C   UNL     1       6.205 -10.177   3.591  0.00  0.00    +0.046 A 
ATOM     29  C   UNL     1       6.146 -11.570   3.825  0.00  0.00    +0.041 A 
ATOM     30  C   UNL     1       5.435 -11.746   4.953  0.00  0.00    +0.195 A 
ATOM     31  O   UNL     1       5.068 -10.540   5.416  0.00  0.00    -0.466 OA
ENDBRANCH  26  27
ENDBRANCH  24  26
ENDBRANCH   9  22
TORSDOF 6
