REMARK  Name = ZINC48353550
REMARK  5 active torsions:
REMARK  status: ('A' for Active; 'I' for Inactive)
REMARK    1  A    between atoms: C_4  and  C_23
REMARK    2  A    between atoms: C_5  and  O_22
REMARK    3  A    between atoms: C_6  and  C_7
REMARK    4  A    between atoms: C_7  and  N_8
REMARK    5  A    between atoms: N_11  and  C_14
REMARK                            x       y       z     vdW  Elec       q    Type
REMARK                         _______ _______ _______ _____ _____    ______ ____
ROOT
ATOM      1  C   UNL     1      -0.017   1.377   0.010  0.00  0.00    +0.028 A 
ATOM      2  C   UNL     1       1.172   2.086   0.002  0.00  0.00    +0.042 A 
ATOM      3  C   UNL     1       2.381   1.413  -0.013  0.00  0.00    +0.027 A 
ATOM      4  C   UNL     1       2.403   0.032  -0.021  0.00  0.00    -0.001 A 
ATOM      5  C   UNL     1       1.213  -0.680  -0.013  0.00  0.00    +0.125 A 
ATOM      6  C   UNL     1       0.002  -0.004   0.002  0.00  0.00    +0.010 A 
ATOM      7 CL   UNL     1       1.146   3.822   0.012  0.00  0.00    -0.084 Cl
ENDROOT
BRANCH   4   8
ATOM      8  C   UNL     1       3.720  -0.700  -0.040  0.00  0.00    +0.023 C 
ATOM      9  C   UNL     1       4.530  -0.325   1.204  0.00  0.00    +0.008 C 
ATOM     10  C   UNL     1       5.867  -1.068   1.185  0.00  0.00    +0.001 C 
ATOM     11  C   UNL     1       6.650  -0.678  -0.070  0.00  0.00    +0.000 C 
ATOM     12  C   UNL     1       5.841  -1.054  -1.313  0.00  0.00    +0.001 C 
ATOM     13  C   UNL     1       4.503  -0.311  -1.295  0.00  0.00    +0.008 C 
ENDBRANCH   4   8
BRANCH   5  14
ATOM     14  O   UNL     1       1.234  -2.039  -0.022  0.00  0.00    -0.506 OA
ATOM     15  H   UNL     1       1.249  -2.438   0.859  0.00  0.00    +0.292 HD
ENDBRANCH   5  14
BRANCH   6  16
ATOM     16  C   UNL     1      -1.292  -0.776   0.011  0.00  0.00    +0.123 C 
BRANCH  16  17
ATOM     17  N   UNL     1      -1.576  -1.240   1.375  0.00  0.00    -0.302 NA
ATOM     18  C   UNL     1      -1.845  -0.107   2.272  0.00  0.00    +0.066 C 
ATOM     19  C   UNL     1      -2.076  -0.629   3.692  0.00  0.00    -0.063 C 
ATOM     20  N   UNL     1      -3.215  -1.557   3.693  0.00  0.00    +0.384 N 
ATOM     21  C   UNL     1      -2.922  -2.695   2.812  0.00  0.00    -0.063 C 
ATOM     22  C   UNL     1      -2.697  -2.191   1.385  0.00  0.00    +0.066 C 
ATOM     23  H   UNL     1      -4.039  -1.079   3.362  0.00  0.00    -0.081 HD
BRANCH  20  24
ATOM     24  C   UNL     1      -3.448  -2.043   5.060  0.00  0.00    -0.046 C 
ATOM     25  C   UNL     1      -3.768  -0.852   5.978  0.00  0.00    +0.009 C 
ATOM     26  C   UNL     1      -4.313  -1.411   7.324  0.00  0.00    +0.164 C 
ATOM     27  S   UNL     1      -5.388  -2.776   6.711  0.00  0.00    -0.033 S 
ATOM     28  O   UNL     1      -5.167  -3.931   7.509  0.00  0.00    -0.174 OA
ATOM     29  O   UNL     1      -6.710  -2.284   6.544  0.00  0.00    -0.174 OA
ATOM     30  C   UNL     1      -4.633  -3.039   5.056  0.00  0.00    +0.151 C 
ENDBRANCH  20  24
ENDBRANCH  16  17
ENDBRANCH   6  16
TORSDOF 5
