REMARK  Name = ZINC63196983
REMARK  7 active torsions:
REMARK  status: ('A' for Active; 'I' for Inactive)
REMARK    1  A    between atoms: C_1  and  C_2
REMARK    2  A    between atoms: C_2  and  C_4
REMARK    3  A    between atoms: C_2  and  N_22
REMARK    4  A    between atoms: N_10  and  C_11
REMARK    5  A    between atoms: C_14  and  S_17
REMARK    6  A    between atoms: S_17  and  N_20
REMARK    7  A    between atoms: N_20  and  C_21
REMARK                            x       y       z     vdW  Elec       q    Type
REMARK                         _______ _______ _______ _____ _____    ______ ____
ROOT
ATOM      1  C   UNL     1      -1.428  -0.472   0.081  0.00  0.00    +0.059 C 
ATOM      2  C   UNL     1      -2.382  -0.199  -1.085  0.00  0.00    +0.021 C 
ATOM      3  C   UNL     1      -3.776  -0.724  -0.732  0.00  0.00    +0.003 C 
ATOM      4  C   UNL     1      -3.711  -2.236  -0.506  0.00  0.00    +0.019 C 
ATOM      5  C   UNL     1      -2.772  -2.533   0.667  0.00  0.00    +0.105 C 
ATOM      6  N   UNL     1      -1.469  -1.905   0.404  0.00  0.00    -0.328 N 
ENDROOT
BRANCH   6   7
ATOM      7  C   UNL     1      -0.293  -2.657   0.455  0.00  0.00    +0.030 A 
ATOM      8  C   UNL     1       0.686  -2.355   1.392  0.00  0.00    +0.025 A 
ATOM      9  C   UNL     1       1.848  -3.101   1.440  0.00  0.00    +0.030 A 
ATOM     10  C   UNL     1       2.036  -4.147   0.556  0.00  0.00    +0.105 A 
ATOM     11  C   UNL     1       1.063  -4.451  -0.378  0.00  0.00    +0.030 A 
ATOM     12  C   UNL     1      -0.103  -3.713  -0.428  0.00  0.00    +0.025 A 
BRANCH  10  13
ATOM     13  S   UNL     1       3.520  -5.096   0.621  0.00  0.00    +0.058 S 
ATOM     14  O   UNL     1       3.691  -5.671  -0.667  0.00  0.00    -0.153 OA
ATOM     15  O   UNL     1       4.506  -4.267   1.222  0.00  0.00    -0.153 OA
BRANCH  13  16
ATOM     16  N   UNL     1       3.254  -6.351   1.668  0.00  0.00    -0.193 NA
ATOM     17  C   UNL     1       2.261  -7.377   1.343  0.00  0.00    +0.127 C 
ATOM     18  H   UNL     1       3.756  -6.406   2.496  0.00  0.00    +0.148 HD
ENDBRANCH  13  16
ENDBRANCH  10  13
ENDBRANCH   6   7
BRANCH   1  20
ATOM     19  C   UNL     1       0.386  -0.807  -1.604  0.00  0.00    -0.012 C 
ATOM     20  C   UNL     1      -0.004  -0.077  -0.317  0.00  0.00    -0.058 C 
BRANCH  20  21
ATOM     21  N   UNL     1       0.057   1.374  -0.539  0.00  0.00    +0.381 N 
ATOM     22  H   UNL     1      -0.486   1.612  -1.356  0.00  0.00    -0.090 HD
ATOM     23  H   UNL     1      -0.318   1.854   0.266  0.00  0.00    -0.090 HD
ATOM     24  H   UNL     1       1.016   1.652  -0.681  0.00  0.00    -0.090 HD
ENDBRANCH  20  21
ENDBRANCH   1  20
TORSDOF 5
