REMARK  Name = ZINC39576817
REMARK  7 active torsions:
REMARK  status: ('A' for Active; 'I' for Inactive)
REMARK    1  A    between atoms: C_1  and  C_2
REMARK    2  A    between atoms: C_4  and  S_9
REMARK    3  A    between atoms: C_5  and  C_8
REMARK    4  A    between atoms: S_9  and  N_12
REMARK    5  A    between atoms: N_12  and  C_13
REMARK    6  A    between atoms: C_13  and  C_20
REMARK    7  A    between atoms: C_20  and  N_21
REMARK                            x       y       z     vdW  Elec       q    Type
REMARK                         _______ _______ _______ _____ _____    ______ ____
ROOT
ATOM      1  N   UNL     1      -3.425  -2.101  -3.064  0.00  0.00    -0.186 NA
ATOM      2  H   UNL     1      -2.779  -1.414  -2.836  0.00  0.00    +0.149 HD
ENDROOT
BRANCH   1   3
ATOM      3  C   UNL     1      -3.353  -3.415  -2.420  0.00  0.00    +0.025 C 
ATOM      4  C   UNL     1      -2.179  -3.454  -1.480  0.00  0.00    +0.022 C 
ATOM      5  C   UNL     1      -1.070  -2.462  -1.880  0.00  0.00    +0.002 C 
ATOM      6  C   UNL     1      -0.815  -2.432  -3.399  0.00  0.00    +0.000 C 
ATOM      7  C   UNL     1      -0.825  -3.806  -4.011  0.00  0.00    +0.000 C 
ATOM      8  C   UNL     1      -2.243  -4.094  -4.545  0.00  0.00    +0.002 C 
ATOM      9  C   UNL     1      -3.159  -4.507  -3.492  0.00  0.00    +0.022 C 
BRANCH   3  10
ATOM     10  C   UNL     1      -4.646  -3.679  -1.645  0.00  0.00    -0.062 C 
BRANCH  10  11
ATOM     11  N   UNL     1      -4.846  -2.617  -0.651  0.00  0.00    +0.379 N 
ATOM     12  H   UNL     1      -4.144  -2.694   0.069  0.00  0.00    -0.090 HD
ATOM     13  H   UNL     1      -4.771  -1.717  -1.100  0.00  0.00    -0.090 HD
ATOM     14  H   UNL     1      -5.762  -2.711  -0.238  0.00  0.00    -0.090 HD
ENDBRANCH  10  11
ENDBRANCH   3  10
ENDBRANCH   1   3
BRANCH   1  15
ATOM     15  S   UNL     1      -4.607  -1.789  -4.180  0.00  0.00    +0.059 S 
ATOM     16  O   UNL     1      -4.640  -2.905  -5.060  0.00  0.00    -0.153 OA
ATOM     17  O   UNL     1      -4.392  -0.462  -4.640  0.00  0.00    -0.153 OA
BRANCH  15  20
ATOM     18  C   UNL     1      -6.817   0.620  -3.043  0.00  0.00    +0.041 C 
ATOM     19  C   UNL     1      -6.669  -0.736  -2.351  0.00  0.00    +0.176 C 
ATOM     20  C   UNL     1      -6.145  -1.781  -3.321  0.00  0.00    +0.131 C 
ATOM     21  C   UNL     1      -7.121  -2.690  -3.371  0.00  0.00    +0.084 C 
ATOM     22  N   UNL     1      -8.150  -2.336  -2.570  0.00  0.00    -0.157 NA
ATOM     23  N   UNL     1      -7.987  -1.269  -1.964  0.00  0.00    -0.178 NA
ATOM     24  C   UNL     1      -7.080  -3.943  -4.208  0.00  0.00    +0.069 C 
ENDBRANCH  15  20
ENDBRANCH   1  15
TORSDOF 5
