REMARK  Name = ZINC07007808
REMARK  4 active torsions:
REMARK  status: ('A' for Active; 'I' for Inactive)
REMARK    1  A    between atoms: C_1  and  C_2
REMARK    2  A    between atoms: N_4  and  C_5
REMARK    3  A    between atoms: C_9  and  C_16
REMARK    4  A    between atoms: C_16  and  N_17
REMARK                            x       y       z     vdW  Elec       q    Type
REMARK                         _______ _______ _______ _____ _____    ______ ____
ROOT
ATOM      1  C   UNL     1       3.871   1.851   0.043  0.00  0.00    +0.154 C 
ENDROOT
BRANCH   1   2
ATOM      2  N   UNL     1       4.115   2.456   1.355  0.00  0.00    -0.220 N 
ATOM      3  C   UNL     1       4.002   3.776   1.615  0.00  0.00    +0.251 C 
ATOM      4  O   UNL     1       3.689   4.655   0.841  0.00  0.00    -0.272 OA
ATOM      5  C   UNL     1       4.343   3.923   3.075  0.00  0.00    +0.138 C 
ATOM      6  C   UNL     1       3.174   4.525   3.865  0.00  0.00    +0.045 C 
ATOM      7  C   UNL     1       3.544   6.025   3.903  0.00  0.00    +0.038 C 
ATOM      8  C   UNL     1       5.052   6.066   3.760  0.00  0.00    -0.042 A 
ATOM      9  C   UNL     1       5.510   4.851   3.278  0.00  0.00    -0.012 A 
ATOM     10  C   UNL     1       6.866   4.665   3.065  0.00  0.00    +0.006 A 
ATOM     11  C   UNL     1       7.760   5.683   3.332  0.00  0.00    +0.000 A 
ATOM     12  C   UNL     1       7.301   6.895   3.815  0.00  0.00    +0.000 A 
ATOM     13  C   UNL     1       5.950   7.084   4.027  0.00  0.00    +0.004 A 
ATOM     14  N   UNL     1       4.646   2.563   3.522  0.00  0.00    -0.281 N 
ATOM     15  C   UNL     1       4.485   1.769   2.443  0.00  0.00    +0.310 C 
ATOM     16  O   UNL     1       4.658   0.566   2.458  0.00  0.00    -0.252 OA
ATOM     17  H   UNL     1       4.908   2.288   4.414  0.00  0.00    +0.152 HD
ENDBRANCH   1   2
BRANCH   1  22
ATOM     18  C   UNL     1       0.835  -0.154  -3.644  0.00  0.00    +0.037 A 
ATOM     19  C   UNL     1       2.189   0.172  -3.570  0.00  0.00    +0.024 A 
ATOM     20  C   UNL     1       2.710   0.700  -2.425  0.00  0.00    +0.014 A 
ATOM     21  C   UNL     1       1.881   0.917  -1.318  0.00  0.00    +0.022 A 
ATOM     22  C   UNL     1       2.414   1.485  -0.078  0.00  0.00    -0.012 A 
ATOM     23  C   UNL     1       1.559   1.672   0.961  0.00  0.00    +0.098 A 
ATOM     24  C   UNL     1       0.200   1.322   0.824  0.00  0.00    +0.338 A 
ATOM     25  O   UNL     1      -0.555   1.495   1.763  0.00  0.00    -0.245 OA
ATOM     26  O   UNL     1      -0.282   0.802  -0.316  0.00  0.00    -0.422 OA
ATOM     27  C   UNL     1       0.514   0.591  -1.386  0.00  0.00    +0.141 A 
ATOM     28  C   UNL     1      -0.001   0.059  -2.558  0.00  0.00    +0.070 A 
BRANCH  18  32
ATOM     29  C   UNL     1      -1.137  -2.289  -6.031  0.00  0.00    +0.109 C 
ATOM     30  C   UNL     1      -0.649  -1.632  -4.765  0.00  0.00    +0.214 C 
ATOM     31  O   UNL     1      -1.127  -1.947  -3.696  0.00  0.00    -0.276 OA
ATOM     32  N   UNL     1       0.316  -0.693  -4.822  0.00  0.00    -0.286 N 
ATOM     33  H   UNL     1       0.651  -0.393  -5.681  0.00  0.00    +0.155 HD
ENDBRANCH  18  32
ENDBRANCH   1  22
TORSDOF 3
