REMARK  Name = ZINC09259775
REMARK  2 active torsions:
REMARK  status: ('A' for Active; 'I' for Inactive)
REMARK    1  A    between atoms: C_3  and  N_8
REMARK    2  A    between atoms: C_12  and  C_13
REMARK                            x       y       z     vdW  Elec       q    Type
REMARK                         _______ _______ _______ _____ _____    ______ ____
ROOT
ATOM      1  N   UNL     1       2.444   1.098   0.331  0.00  0.00    -0.190 N 
ATOM      2  C   UNL     1       3.559   1.785   0.007  0.00  0.00    +0.263 C 
ATOM      3  O   UNL     1       3.497   2.953  -0.329  0.00  0.00    -0.269 OA
ATOM      4  C   UNL     1       4.852   1.084   0.072  0.00  0.00    +0.100 C 
ATOM      5  C   UNL     1       6.041   1.726  -0.246  0.00  0.00    +0.028 C 
ATOM      6  C   UNL     1       4.830  -0.329   0.490  0.00  0.00    +0.257 C 
ATOM      7  O   UNL     1       5.858  -0.974   0.567  0.00  0.00    -0.270 OA
ATOM      8  N   UNL     1       3.638  -0.887   0.785  0.00  0.00    -0.235 N 
ATOM      9  C   UNL     1       2.498  -0.187   0.709  0.00  0.00    +0.320 C 
ATOM     10  O   UNL     1       1.458  -0.747   0.993  0.00  0.00    -0.251 OA
ATOM     11  H   UNL     1       3.606  -1.817   1.061  0.00  0.00    +0.159 HD
ENDROOT
BRANCH   5  12
ATOM     12  C   UNL     1       7.234   0.985  -0.362  0.00  0.00    +0.001 A 
ATOM     13  C   UNL     1       7.405  -0.221  -1.022  0.00  0.00    +0.091 A 
ATOM     14  N   UNL     1       8.686  -0.615  -0.915  0.00  0.00    -0.360 N 
ATOM     15  H   UNL     1       9.046  -1.430  -1.299  0.00  0.00    +0.165 HD
ATOM     16  C   UNL     1       9.419   0.294  -0.177  0.00  0.00    +0.047 A 
ATOM     17  C   UNL     1       8.555   1.332   0.203  0.00  0.00    +0.008 A 
ATOM     18  C   UNL     1       9.030   2.396   0.962  0.00  0.00    +0.025 A 
ATOM     19  C   UNL     1      10.357   2.427   1.339  0.00  0.00    +0.019 A 
ATOM     20  C   UNL     1      11.213   1.401   0.965  0.00  0.00    +0.017 A 
ATOM     21  C   UNL     1      10.753   0.342   0.213  0.00  0.00    +0.027 A 
ATOM     22 BR   UNL     1      11.010   3.871   2.371  0.00  0.00    -0.050 Br
ENDBRANCH   5  12
BRANCH   1  25
ATOM     23  C   UNL     1      -0.515   3.038   1.341  0.00  0.00    +0.003 A 
ATOM     24  C   UNL     1       0.710   2.402   1.397  0.00  0.00    +0.024 A 
ATOM     25  C   UNL     1       1.201   1.744   0.277  0.00  0.00    +0.047 A 
ATOM     26  C   UNL     1       0.459   1.728  -0.896  0.00  0.00    +0.039 A 
ATOM     27  C   UNL     1      -0.763   2.370  -0.947  0.00  0.00    +0.020 A 
ATOM     28  C   UNL     1      -1.252   3.021   0.172  0.00  0.00    +0.015 A 
ATOM     29 BR   UNL     1      -1.772   2.354  -2.547  0.00  0.00    -0.050 Br
ENDBRANCH   1  25
TORSDOF 2
