REMARK  Name = ZINC61767140
REMARK  5 active torsions:
REMARK  status: ('A' for Active; 'I' for Inactive)
REMARK    1  A    between atoms: C_1  and  C_2
REMARK    2  A    between atoms: C_5  and  O_9
REMARK    3  A    between atoms: C_6  and  N_8
REMARK    4  A    between atoms: O_9  and  C_10
REMARK    5  A    between atoms: N_13  and  C_17
REMARK                            x       y       z     vdW  Elec       q    Type
REMARK                         _______ _______ _______ _____ _____    ______ ____
ROOT
ATOM      1  O   UNL     1       0.057  -4.134  -0.034  0.00  0.00    -0.432 OA
ENDROOT
BRANCH   1   6
ATOM      2  C   UNL     1      -0.055   1.502   0.019  0.00  0.00    +0.044 C 
ATOM      3  C   UNL     1      -0.029  -0.005   0.005  0.00  0.00    -0.048 A 
ATOM      4  C   UNL     1       1.181  -0.674   0.046  0.00  0.00    +0.007 A 
ATOM      5  C   UNL     1       1.211  -2.056   0.034  0.00  0.00    +0.048 A 
ATOM      6  C   UNL     1       0.028  -2.775  -0.021  0.00  0.00    +0.151 A 
ATOM      7  C   UNL     1      -1.191  -2.101  -0.062  0.00  0.00    +0.068 A 
ATOM      8  C   UNL     1      -1.214  -0.714  -0.043  0.00  0.00    +0.029 A 
BRANCH   7   9
ATOM      9  N   UNL     1      -2.389  -2.822  -0.118  0.00  0.00    -0.355 N 
ATOM     10  H   UNL     1      -2.372  -3.792  -0.128  0.00  0.00    +0.142 HD
ATOM     11  H   UNL     1      -3.237  -2.352  -0.147  0.00  0.00    +0.142 HD
ENDBRANCH   7   9
ENDBRANCH   1   6
BRANCH   1  12
ATOM     12  C   UNL     1      -0.045  -4.761  -1.232  0.00  0.00    +0.287 A 
ATOM     13  C   UNL     1      -0.148  -6.222  -1.299  0.00  0.00    +0.314 A 
ATOM     14  O   UNL     1      -0.144  -6.895  -0.282  0.00  0.00    -0.262 OA
ATOM     15  N   UNL     1      -0.248  -6.805  -2.515  0.00  0.00    -0.306 N 
ATOM     16  C   UNL     1      -0.250  -6.020  -3.628  0.00  0.00    +0.109 A 
ATOM     17  C   UNL     1      -0.154  -4.677  -3.529  0.00  0.00    +0.132 A 
ATOM     18  N   UNL     1      -0.059  -4.067  -2.349  0.00  0.00    -0.215 NA
BRANCH  15  19
ATOM     19  C   UNL     1      -0.353  -8.262  -2.633  0.00  0.00    +0.091 C 
ATOM     20  C   UNL     1      -0.260  -8.865  -4.036  0.00  0.00    +0.027 C 
ATOM     21  C   UNL     1      -1.605  -8.828  -3.307  0.00  0.00    +0.027 C 
ENDBRANCH  15  19
ENDBRANCH   1  12
TORSDOF 4
