REMARK  Name = ZINC44254602
REMARK  7 active torsions:
REMARK  status: ('A' for Active; 'I' for Inactive)
REMARK    1  A    between atoms: C_1  and  C_2
REMARK    2  A    between atoms: C_5  and  S_8
REMARK    3  A    between atoms: S_8  and  C_9
REMARK    4  A    between atoms: C_10  and  C_20
REMARK    5  A    between atoms: C_20  and  C_22
REMARK    6  A    between atoms: C_20  and  N_26
REMARK    7  A    between atoms: C_22  and  C_23
REMARK                            x       y       z     vdW  Elec       q    Type
REMARK                         _______ _______ _______ _____ _____    ______ ____
ROOT
ATOM      1  C   UNL     1       0.227  -4.966   1.677  0.00  0.00    +0.111 A 
ATOM      2  C   UNL     1       0.391  -6.300   2.046  0.00  0.00    +0.036 A 
ATOM      3  C   UNL     1       0.518  -6.613   3.397  0.00  0.00    +0.261 A 
ATOM      4  O   UNL     1       0.663  -7.773   3.752  0.00  0.00    -0.267 OA
ATOM      5  N   UNL     1       0.478  -5.619   4.309  0.00  0.00    -0.268 N 
ATOM      6  C   UNL     1       0.602  -5.917   5.633  0.00  0.00    +0.096 A 
ATOM      7  C   UNL     1       0.566  -4.942   6.567  0.00  0.00    +0.018 A 
ATOM      8  C   UNL     1       0.401  -3.603   6.183  0.00  0.00    +0.005 A 
ATOM      9  C   UNL     1       0.276  -3.293   4.863  0.00  0.00    +0.047 A 
ATOM     10  C   UNL     1       0.316  -4.323   3.903  0.00  0.00    +0.141 A 
ATOM     11  N   UNL     1       0.200  -4.020   2.613  0.00  0.00    -0.222 NA
ENDROOT
BRANCH   1  12
ATOM     12  S   UNL     1       0.063  -4.533  -0.023  0.00  0.00    -0.069 S 
BRANCH  12  17
ATOM     13  C   UNL     1      -0.032   1.503   0.010  0.00  0.00    +0.044 C 
ATOM     14  C   UNL     1      -0.008  -0.004   0.002  0.00  0.00    -0.050 A 
ATOM     15  C   UNL     1       1.201  -0.675  -0.008  0.00  0.00    +0.004 A 
ATOM     16  C   UNL     1       1.227  -2.056  -0.015  0.00  0.00    +0.015 A 
ATOM     17  C   UNL     1       0.035  -2.771  -0.013  0.00  0.00    +0.014 A 
ATOM     18  C   UNL     1      -1.178  -2.094  -0.003  0.00  0.00    +0.015 A 
ATOM     19  C   UNL     1      -1.196  -0.713   0.009  0.00  0.00    +0.004 A 
ENDBRANCH  12  17
ENDBRANCH   1  12
BRANCH   2  20
ATOM     20  C   UNL     1       0.430  -7.385   1.000  0.00  0.00    -0.027 C 
BRANCH  20  21
ATOM     21  N   UNL     1       1.664  -8.166   1.151  0.00  0.00    +0.383 N 
ATOM     22  H   UNL     1       1.688  -8.583   2.070  0.00  0.00    -0.089 HD
ATOM     23  H   UNL     1       1.690  -8.893   0.451  0.00  0.00    -0.089 HD
ATOM     24  H   UNL     1       2.462  -7.560   1.036  0.00  0.00    -0.089 HD
ENDBRANCH  20  21
BRANCH  20  25
ATOM     25  C   UNL     1      -0.781  -8.305   1.175  0.00  0.00    +0.084 C 
BRANCH  25  26
ATOM     26  C   UNL     1      -0.809  -9.315   0.057  0.00  0.00    +0.209 C 
ATOM     27  O   UNL     1       0.054  -9.300  -0.796  0.00  0.00    -0.276 OA
ATOM     28  N   UNL     1      -1.793 -10.234   0.004  0.00  0.00    -0.329 N 
ATOM     29  H   UNL     1      -2.483 -10.245   0.686  0.00  0.00    +0.145 HD
ATOM     30  H   UNL     1      -1.812 -10.884  -0.716  0.00  0.00    +0.145 HD
ENDBRANCH  25  26
ENDBRANCH  20  25
ENDBRANCH   2  20
TORSDOF 6
