REMARK  Name = ZINC67129446
REMARK  7 active torsions:
REMARK  status: ('A' for Active; 'I' for Inactive)
REMARK    1  A    between atoms: C_1  and  C_2
REMARK    2  A    between atoms: C_2  and  C_4
REMARK    3  A    between atoms: C_2  and  N_14
REMARK    4  A    between atoms: C_15  and  C_17
REMARK    5  A    between atoms: C_17  and  N_18
REMARK    6  A    between atoms: C_20  and  O_28
REMARK    7  A    between atoms: C_23  and  C_25
REMARK                            x       y       z     vdW  Elec       q    Type
REMARK                         _______ _______ _______ _____ _____    ______ ____
ROOT
ATOM      1  N   UNL     1       0.837  -0.826  -1.377  0.00  0.00    -0.310 N 
ATOM      2  C   UNL     1       2.169  -0.964  -1.223  0.00  0.00    +0.197 C 
ATOM      3  O   UNL     1       2.664  -0.881  -0.119  0.00  0.00    -0.278 OA
ATOM      4  H   UNL     1       0.441  -0.892  -2.260  0.00  0.00    +0.149 HD
ENDROOT
BRANCH   1   6
ATOM      5  C   UNL     1      -0.126   0.933   0.023  0.00  0.00    +0.033 C 
ATOM      6  C   UNL     1      -0.012  -0.575  -0.210  0.00  0.00    +0.101 C 
BRANCH   6   7
ATOM      7  C   UNL     1      -1.383  -1.151  -0.453  0.00  0.00    -0.020 A 
ATOM      8  C   UNL     1      -1.856  -1.278  -1.724  0.00  0.00    +0.006 A 
ATOM      9  C   UNL     1      -3.121  -1.808  -1.968  0.00  0.00    +0.001 A 
ATOM     10  C   UNL     1      -3.921  -2.213  -0.945  0.00  0.00    +0.008 A 
ATOM     11  C   UNL     1      -3.468  -2.097   0.380  0.00  0.00    -0.018 A 
ATOM     12  C   UNL     1      -2.178  -1.564   0.629  0.00  0.00    -0.013 A 
ATOM     13  C   UNL     1      -1.722  -1.453   1.954  0.00  0.00    +0.009 A 
ATOM     14  C   UNL     1      -2.520  -1.863   2.977  0.00  0.00    +0.001 A 
ATOM     15  C   UNL     1      -3.786  -2.394   2.732  0.00  0.00    +0.001 A 
ATOM     16  C   UNL     1      -4.266  -2.504   1.463  0.00  0.00    +0.008 A 
ENDBRANCH   6   7
ENDBRANCH   1   6
BRANCH   2  17
ATOM     17  C   UNL     1       3.043  -1.222  -2.424  0.00  0.00    +0.020 C 
BRANCH  17  18
ATOM     18  N   UNL     1       4.444  -1.333  -1.995  0.00  0.00    +0.395 N 
ATOM     19  C   UNL     1       4.926  -0.018  -1.523  0.00  0.00    -0.045 C 
ATOM     20  C   UNL     1       6.405   0.048  -1.978  0.00  0.00    +0.097 C 
ATOM     21  C   UNL     1       6.341  -0.662  -3.357  0.00  0.00    +0.023 C 
ATOM     22  C   UNL     1       5.279  -1.759  -3.134  0.00  0.00    +0.022 C 
ATOM     23  H   UNL     1       4.518  -2.008  -1.248  0.00  0.00    -0.080 HD
BRANCH  22  24
ATOM     24  C   UNL     1       4.426  -1.906  -4.368  0.00  0.00    +0.197 C 
ATOM     25  O   UNL     1       3.764  -0.970  -4.763  0.00  0.00    -0.278 OA
ATOM     26  N   UNL     1       4.400  -3.078  -5.033  0.00  0.00    -0.331 N 
ATOM     27  H   UNL     1       4.930  -3.827  -4.717  0.00  0.00    +0.145 HD
ATOM     28  H   UNL     1       3.852  -3.172  -5.827  0.00  0.00    +0.145 HD
ENDBRANCH  22  24
BRANCH  20  29
ATOM     29  O   UNL     1       6.837   1.403  -2.119  0.00  0.00    -0.394 OA
ATOM     30  H   UNL     1       7.757   1.494  -2.402  0.00  0.00    +0.210 HD
ENDBRANCH  20  29
ENDBRANCH  17  18
ENDBRANCH   2  17
TORSDOF 6
