REMARK  Name = ZINC41155451
REMARK  3 active torsions:
REMARK  status: ('A' for Active; 'I' for Inactive)
REMARK    1  A    between atoms: C_3  and  C_9
REMARK    2  A    between atoms: C_11  and  C_14
REMARK    3  A    between atoms: C_14  and  N_21
REMARK                            x       y       z     vdW  Elec       q    Type
REMARK                         _______ _______ _______ _____ _____    ______ ____
ROOT
ATOM      1  C   UNL     1       3.656   2.591  -0.267  0.00  0.00    +0.261 A 
ATOM      2  N   UNL     1       4.794   1.933  -0.228  0.00  0.00    -0.193 NA
ATOM      3  C   UNL     1       5.812   2.791  -0.134  0.00  0.00    +0.161 A 
ATOM      4  N   UNL     1       5.346   4.007  -0.111  0.00  0.00    -0.062 NA
ATOM      5  O   UNL     1       3.933   3.905  -0.203  0.00  0.00    -0.333 OA
ENDROOT
BRANCH   1   8
ATOM      6  C   UNL     1      -0.075   2.242  -0.506  0.00  0.00    +0.016 A 
ATOM      7  C   UNL     1       1.179   2.808  -0.409  0.00  0.00    +0.017 A 
ATOM      8  C   UNL     1       2.310   1.991  -0.370  0.00  0.00    +0.075 A 
ATOM      9  C   UNL     1       2.163   0.601  -0.431  0.00  0.00    +0.137 A 
ATOM     10  C   UNL     1       0.901   0.048  -0.528  0.00  0.00    +0.054 A 
ATOM     11  C   UNL     1      -0.215   0.866  -0.565  0.00  0.00    +0.021 A 
ATOM     12 BR   UNL     1      -1.939   0.100  -0.698  0.00  0.00    -0.050 Br
ATOM     13  F   UNL     1       3.252  -0.198  -0.395  0.00  0.00    -0.205 F 
ENDBRANCH   1   8
BRANCH   3  14
ATOM     14  C   UNL     1       7.270   2.413  -0.064  0.00  0.00    -0.006 C 
ATOM     15  C   UNL     1       7.483   1.471   1.136  0.00  0.00    -0.005 C 
ATOM     16  C   UNL     1       8.961   1.366   1.558  0.00  0.00    -0.001 C 
ATOM     17  C   UNL     1       9.892   1.274   0.379  0.00  0.00    -0.000 C 
ATOM     18  C   UNL     1      10.388   2.694   0.035  0.00  0.00    -0.000 C 
ATOM     19  C   UNL     1       9.412   3.450  -0.736  0.00  0.00    -0.001 C 
ATOM     20  C   UNL     1       8.094   3.668   0.035  0.00  0.00    -0.005 C 
BRANCH  14  21
ATOM     21  N   UNL     1       7.635   1.700  -1.296  0.00  0.00    +0.387 N 
ATOM     22  H   UNL     1       7.282   2.207  -2.094  0.00  0.00    -0.089 HD
ATOM     23  H   UNL     1       8.639   1.631  -1.359  0.00  0.00    -0.089 HD
ATOM     24  H   UNL     1       7.233   0.775  -1.280  0.00  0.00    -0.089 HD
ENDBRANCH  14  21
ENDBRANCH   3  14
TORSDOF 3
