REMARK  Name = ZINC09135615
REMARK  9 active torsions:
REMARK  status: ('A' for Active; 'I' for Inactive)
REMARK    1  A    between atoms: C_1  and  N_2
REMARK    2  A    between atoms: C_10  and  C_12
REMARK    3  A    between atoms: C_12  and  C_14
REMARK    4  A    between atoms: C_12  and  N_64
REMARK    5  A    between atoms: C_14  and  N_15
REMARK    6  A    between atoms: C_16  and  C_18
REMARK    7  A    between atoms: N_20  and  C_21
REMARK    8  A    between atoms: C_24  and  O_27
REMARK    9  A    between atoms: O_27  and  C_28
REMARK                            x       y       z     vdW  Elec       q    Type
REMARK                         _______ _______ _______ _____ _____    ______ ____
ROOT
ATOM      1  C   UNL     1       2.675   0.714   1.822  0.00  0.00    +0.094 C 
ENDROOT
BRANCH   1   2
ATOM      2  N   UNL     1       2.958   1.976   2.509  0.00  0.00    -0.309 N 
ATOM      3  C   UNL     1       3.318   1.971   3.808  0.00  0.00    +0.299 C 
ATOM      4  O   UNL     1       3.406   0.920   4.409  0.00  0.00    -0.265 OA
ATOM      5  H   UNL     1       2.887   2.816   2.029  0.00  0.00    +0.149 HD
BRANCH   3   6
ATOM      6  C   UNL     1       3.607   3.258   4.508  0.00  0.00    +0.303 C 
ATOM      7  O   UNL     1       3.518   4.309   3.907  0.00  0.00    -0.265 OA
ATOM      8  N   UNL     1       3.966   3.253   5.807  0.00  0.00    -0.278 N 
ATOM      9  H   UNL     1       3.963   2.422   6.308  0.00  0.00    +0.155 HD
BRANCH   8  10
ATOM     10  C   UNL     1       4.344   4.445   6.433  0.00  0.00    +0.034 A 
ATOM     11  C   UNL     1       5.339   4.436   7.403  0.00  0.00    +0.027 A 
ATOM     12  C   UNL     1       5.714   5.614   8.017  0.00  0.00    +0.048 A 
ATOM     13  C   UNL     1       5.091   6.805   7.673  0.00  0.00    +0.130 A 
ATOM     14  C   UNL     1       4.094   6.814   6.708  0.00  0.00    +0.048 A 
ATOM     15  C   UNL     1       3.720   5.638   6.090  0.00  0.00    +0.027 A 
BRANCH  13  16
ATOM     16  O   UNL     1       5.458   7.964   8.281  0.00  0.00    -0.406 OA
BRANCH  16  17
ATOM     17  C   UNL     1       6.492   7.882   9.265  0.00  0.00    +0.575 C 
ATOM     18  F   UNL     1       7.657   7.381   8.675  0.00  0.00    -0.133 F 
ATOM     19  F   UNL     1       6.743   9.156   9.786  0.00  0.00    -0.133 F 
ATOM     20  F   UNL     1       6.087   7.028  10.296  0.00  0.00    -0.133 F 
ENDBRANCH  16  17
ENDBRANCH  13  16
ENDBRANCH   8  10
ENDBRANCH   3   6
ENDBRANCH   1   2
BRANCH   1  21
ATOM     21  C   UNL     1       2.412   0.987   0.340  0.00  0.00    -0.020 C 
BRANCH  21  31
ATOM     22  C   UNL     1      -3.328   3.608   0.650  0.00  0.00    +0.129 C 
ATOM     23  N   UNL     1      -2.267   4.153  -0.206  0.00  0.00    -0.333 N 
ATOM     24  C   UNL     1      -2.082   5.586   0.035  0.00  0.00    +0.105 C 
ATOM     25  C   UNL     1      -0.947   6.092  -0.865  0.00  0.00    +0.024 C 
ATOM     26  C   UNL     1       0.361   5.472  -0.367  0.00  0.00    +0.038 C 
ATOM     27  C   UNL     1       0.168   3.992  -0.147  0.00  0.00    -0.026 A 
ATOM     28  C   UNL     1      -1.089   3.419  -0.071  0.00  0.00    +0.033 A 
ATOM     29  C   UNL     1      -1.204   2.044   0.140  0.00  0.00    +0.023 A 
ATOM     30  C   UNL     1      -0.076   1.263   0.278  0.00  0.00    +0.004 A 
ATOM     31  C   UNL     1       1.177   1.840   0.198  0.00  0.00    -0.059 A 
ATOM     32  C   UNL     1       1.297   3.200  -0.013  0.00  0.00    +0.007 A 
ENDBRANCH  21  31
BRANCH  21  37
ATOM     33  C   UNL     1       1.978  -0.061  -1.814  0.00  0.00    -0.078 C 
ATOM     34  C   UNL     1       2.314  -1.436  -2.445  0.00  0.00    -0.020 C 
ATOM     35  C   UNL     1       3.515  -1.919  -1.600  0.00  0.00    -0.020 C 
ATOM     36  C   UNL     1       3.417  -1.137  -0.277  0.00  0.00    -0.078 C 
ATOM     37  N   UNL     1       2.217  -0.306  -0.383  0.00  0.00    +0.385 N 
ATOM     38  H   UNL     1       1.415  -0.801   0.023  0.00  0.00    -0.081 HD
ENDBRANCH  21  37
ENDBRANCH   1  21
TORSDOF 8
