REMARK  Name = ZINC16024984
REMARK  8 active torsions:
REMARK  status: ('A' for Active; 'I' for Inactive)
REMARK    1  A    between atoms: C_1  and  O_2
REMARK    2  A    between atoms: O_2  and  C_3
REMARK    3  A    between atoms: C_3  and  C_4
REMARK    4  A    between atoms: C_4  and  C_5
REMARK    5  A    between atoms: C_5  and  N_6
REMARK    6  A    between atoms: C_11  and  C_28
REMARK    7  A    between atoms: C_28  and  C_29
REMARK    8  A    between atoms: C_32  and  O_35
REMARK                            x       y       z     vdW  Elec       q    Type
REMARK                         _______ _______ _______ _____ _____    ______ ____
ROOT
ATOM      1  N   UNL     1       1.272  -4.165  -2.169  0.00  0.00    -0.241 N 
ATOM      2  C   UNL     1       2.230  -4.876  -1.565  0.00  0.00    +0.227 C 
ATOM      3  O   UNL     1       3.217  -4.412  -1.034  0.00  0.00    -0.275 OA
ATOM      4  C   UNL     1       1.892  -6.347  -1.646  0.00  0.00    +0.107 C 
ATOM      5  C   UNL     1       2.902  -7.047  -2.579  0.00  0.00    +0.072 C 
ATOM      6  N   UNL     1       2.072  -7.904  -3.467  0.00  0.00    -0.295 NA
ATOM      7  C   UNL     1       0.875  -7.086  -3.741  0.00  0.00    +0.136 C 
ATOM      8  C   UNL     1       0.540  -6.361  -2.413  0.00  0.00    +0.122 C 
ATOM      9  C   UNL     1       0.273  -4.897  -2.676  0.00  0.00    +0.228 C 
ATOM     10  O   UNL     1      -0.693  -4.454  -3.259  0.00  0.00    -0.275 OA
ATOM     11  C   UNL     1      -0.275  -7.934  -4.205  0.00  0.00    +0.003 A 
ATOM     12  C   UNL     1      -0.964  -8.986  -3.645  0.00  0.00    +0.008 A 
ATOM     13  C   UNL     1      -2.005  -9.579  -4.337  0.00  0.00    +0.000 A 
ATOM     14  C   UNL     1      -2.352  -9.113  -5.592  0.00  0.00    +0.002 A 
ATOM     15  C   UNL     1      -1.665  -8.058  -6.157  0.00  0.00    +0.023 A 
ATOM     16  C   UNL     1      -0.616  -7.455  -5.467  0.00  0.00    +0.039 A 
ATOM     17  N   UNL     1       0.217  -6.391  -5.820  0.00  0.00    -0.283 N 
ATOM     18  C   UNL     1       1.120  -6.112  -4.861  0.00  0.00    +0.243 C 
ATOM     19  O   UNL     1       1.967  -5.244  -4.893  0.00  0.00    -0.273 OA
ATOM     20  H   UNL     1       2.563  -8.123  -4.321  0.00  0.00    +0.124 HD
ATOM     21  H   UNL     1       0.152  -5.909  -6.660  0.00  0.00    +0.155 HD
ENDROOT
BRANCH   1  22
ATOM     22  C   UNL     1       1.309  -2.703  -2.261  0.00  0.00    +0.118 C 
BRANCH  22  23
ATOM     23  C   UNL     1       0.613  -2.097  -1.041  0.00  0.00    +0.047 C 
BRANCH  23  24
ATOM     24  C   UNL     1       0.652  -0.570  -1.138  0.00  0.00    +0.161 C 
BRANCH  24  26
ATOM     25  C   UNL     1      -0.017   1.425   0.010  0.00  0.00    +0.193 C 
ATOM     26  O   UNL     1       0.002  -0.004   0.002  0.00  0.00    -0.383 OA
ENDBRANCH  24  26
ENDBRANCH  23  24
ENDBRANCH  22  23
ENDBRANCH   1  22
BRANCH   5  27
ATOM     27  C   UNL     1       3.873  -7.905  -1.765  0.00  0.00    +0.054 C 
BRANCH  27  28
ATOM     28  C   UNL     1       4.924  -8.480  -2.680  0.00  0.00    -0.046 A 
ATOM     29  C   UNL     1       4.712  -9.702  -3.292  0.00  0.00    +0.007 A 
ATOM     30  C   UNL     1       5.674 -10.231  -4.131  0.00  0.00    +0.045 A 
ATOM     31  C   UNL     1       6.852  -9.536  -4.359  0.00  0.00    +0.117 A 
ATOM     32  C   UNL     1       7.062  -8.310  -3.744  0.00  0.00    +0.045 A 
ATOM     33  C   UNL     1       6.095  -7.782  -2.911  0.00  0.00    +0.007 A 
BRANCH  31  34
ATOM     34  O   UNL     1       7.800 -10.055  -5.184  0.00  0.00    -0.507 OA
ATOM     35  H   UNL     1       7.700  -9.797  -6.110  0.00  0.00    +0.292 HD
ENDBRANCH  31  34
ENDBRANCH  27  28
ENDBRANCH   5  27
TORSDOF 7
