REMARK  Name = ZINC04944263
REMARK  5 active torsions:
REMARK  status: ('A' for Active; 'I' for Inactive)
REMARK    1  A    between atoms: C_1  and  C_2
REMARK    2  A    between atoms: C_2  and  C_3
REMARK    3  A    between atoms: C_3  and  S_4
REMARK    4  A    between atoms: S_4  and  C_5
REMARK    5  A    between atoms: C_17  and  C_19
REMARK                            x       y       z     vdW  Elec       q    Type
REMARK                         _______ _______ _______ _____ _____    ______ ____
ROOT
ATOM      1  C   UNL     1       1.688  -2.499   2.752  0.00  0.00    +0.171 A 
ATOM      2  N   UNL     1       1.827  -3.832   2.995  0.00  0.00    -0.302 N 
ATOM      3  H   UNL     1       1.458  -4.479   2.374  0.00  0.00    +0.171 HD
ATOM      4  C   UNL     1       2.480  -4.253   4.100  0.00  0.00    +0.258 A 
ATOM      5  O   UNL     1       2.612  -5.445   4.329  0.00  0.00    -0.267 OA
ATOM      6  C   UNL     1       3.001  -3.296   4.976  0.00  0.00    +0.065 A 
ATOM      7  C   UNL     1       2.833  -1.953   4.684  0.00  0.00    +0.137 A 
ATOM      8  N   UNL     1       2.182  -1.594   3.572  0.00  0.00    -0.208 NA
ATOM      9  N   UNL     1       3.341  -0.991   5.540  0.00  0.00    -0.270 N 
ATOM     10  C   UNL     1       4.293  -1.305   6.438  0.00  0.00    +0.219 C 
ATOM     11  O   UNL     1       4.712  -0.451   7.189  0.00  0.00    -0.275 OA
ATOM     12  C   UNL     1       4.843  -2.703   6.522  0.00  0.00    +0.109 C 
ATOM     13  C   UNL     1       3.736  -3.715   6.220  0.00  0.00    +0.071 C 
ATOM     14  H   UNL     1       3.009  -0.081   5.492  0.00  0.00    +0.156 HD
ENDROOT
BRANCH  13  15
ATOM     15  C   UNL     1       2.774  -3.767   7.378  0.00  0.00    +0.014 A 
ATOM     16  C   UNL     1       1.469  -3.334   7.215  0.00  0.00    +0.129 A 
ATOM     17  C   UNL     1       0.586  -3.382   8.280  0.00  0.00    +0.039 A 
ATOM     18  C   UNL     1       1.008  -3.864   9.506  0.00  0.00    +0.004 A 
ATOM     19  C   UNL     1       2.310  -4.296   9.669  0.00  0.00    +0.020 A 
ATOM     20  C   UNL     1       3.192  -4.254   8.603  0.00  0.00    +0.047 A 
ATOM     21 CL   UNL     1       4.826  -4.804   8.807  0.00  0.00    -0.083 Cl
ATOM     22  F   UNL     1       1.058  -2.863   6.017  0.00  0.00    -0.205 F 
ENDBRANCH  13  15
BRANCH   1  23
ATOM     23  S   UNL     1       0.834  -1.973   1.303  0.00  0.00    -0.088 S 
BRANCH  23  24
ATOM     24  C   UNL     1       0.900  -0.162   1.388  0.00  0.00    +0.077 C 
BRANCH  24  26
ATOM     25  C   UNL     1       0.240   1.960   0.245  0.00  0.00    +0.004 C 
ATOM     26  C   UNL     1       0.184   0.432   0.173  0.00  0.00    +0.008 C 
ENDBRANCH  24  26
ENDBRANCH  23  24
ENDBRANCH   1  23
TORSDOF 4
