REMARK  Name = ZINC38970867
REMARK  3 active torsions:
REMARK  status: ('A' for Active; 'I' for Inactive)
REMARK    1  A    between atoms: C_1  and  C_2
REMARK    2  A    between atoms: C_5  and  C_13
REMARK    3  A    between atoms: C_16  and  C_19
REMARK                            x       y       z     vdW  Elec       q    Type
REMARK                         _______ _______ _______ _____ _____    ______ ____
ROOT
ATOM      1  C   UNL     1      -0.018   1.503   0.010  0.00  0.00    +0.063 C 
ATOM      2  C   UNL     1       0.002  -0.004   0.002  0.00  0.00    +0.044 C 
ATOM      3  N   UNL     1       0.004  -0.556  -1.133  0.00  0.00    -0.189 NA
ATOM      4  N   UNL     1      -0.021  -1.929  -1.340  0.00  0.00    -0.207 N 
ATOM      5  C   UNL     1      -0.460  -2.687  -2.519  0.00  0.00    +0.206 C 
ATOM      6  N   UNL     1      -1.104  -3.889  -1.916  0.00  0.00    -0.231 NA
ATOM      7  N   UNL     1      -0.215  -4.225  -0.793  0.00  0.00    -0.225 NA
ATOM      8  C   UNL     1       0.323  -2.941  -0.313  0.00  0.00    +0.234 C 
ATOM      9  S   UNL     1      -0.539  -2.401   1.198  0.00  0.00    -0.114 S 
ATOM     10  C   UNL     1       0.024  -0.674   1.342  0.00  0.00    +0.124 C 
ATOM     11  H   UNL     1      -2.034  -3.675  -1.589  0.00  0.00    +0.143 HD
ATOM     12  H   UNL     1      -0.720  -4.702  -0.062  0.00  0.00    +0.143 HD
ENDROOT
BRANCH   5  13
ATOM     13  C   UNL     1      -1.468  -1.880  -3.339  0.00  0.00    +0.190 C 
ATOM     14  C   UNL     1      -1.970  -2.691  -4.521  0.00  0.00    +0.034 C 
ATOM     15  C   UNL     1      -1.581  -1.974  -5.592  0.00  0.00    +0.091 C 
ATOM     16  N   UNL     1      -0.920  -0.853  -5.199  0.00  0.00    -0.154 NA
ATOM     17  N   UNL     1      -0.815  -0.723  -3.974  0.00  0.00    -0.176 NA
BRANCH  15  18
ATOM     18  C   UNL     1      -1.837  -2.353  -7.003  0.00  0.00    +0.002 A 
ATOM     19  C   UNL     1      -2.532  -3.525  -7.297  0.00  0.00    +0.010 A 
ATOM     20  C   UNL     1      -2.768  -3.874  -8.611  0.00  0.00    +0.001 A 
ATOM     21  C   UNL     1      -2.317  -3.062  -9.636  0.00  0.00    +0.000 A 
ATOM     22  C   UNL     1      -1.627  -1.897  -9.351  0.00  0.00    +0.001 A 
ATOM     23  C   UNL     1      -1.390  -1.537  -8.040  0.00  0.00    +0.010 A 
ENDBRANCH  15  18
ENDBRANCH   5  13
TORSDOF 2
