REMARK  Name = ZINC65238004
REMARK  5 active torsions:
REMARK  status: ('A' for Active; 'I' for Inactive)
REMARK    1  A    between atoms: C_1  and  C_2
REMARK    2  A    between atoms: C_2  and  C_3
REMARK    3  A    between atoms: C_3  and  C_4
REMARK    4  A    between atoms: C_4  and  N_5
REMARK    5  A    between atoms: C_11  and  C_13
REMARK                            x       y       z     vdW  Elec       q    Type
REMARK                         _______ _______ _______ _____ _____    ______ ____
ROOT
ATOM      1  C   UNL     1       0.958  -4.303  -7.039  0.00  0.00    +0.153 C 
ATOM      2  N   UNL     1       0.540  -3.091  -7.267  0.00  0.00    -0.166 NA
ATOM      3  N   UNL     1      -0.114  -2.989  -8.501  0.00  0.00    -0.184 N 
ATOM      4  N   UNL     1       0.085  -4.165  -9.211  0.00  0.00    -0.218 N 
ATOM      5  C   UNL     1       0.552  -5.157  -8.214  0.00  0.00    +0.236 C 
ATOM      6  C   UNL     1       1.738  -5.862  -8.821  0.00  0.00    +0.246 C 
ATOM      7  O   UNL     1       2.586  -6.345  -8.100  0.00  0.00    -0.273 OA
ATOM      8  N   UNL     1       1.861  -5.960 -10.160  0.00  0.00    -0.282 N 
ATOM      9  C   UNL     1       0.919  -5.420 -11.042  0.00  0.00    +0.059 A 
ATOM     10  C   UNL     1      -0.007  -4.476 -10.565  0.00  0.00    +0.072 A 
ATOM     11  C   UNL     1      -0.929  -3.908 -11.415  0.00  0.00    +0.029 A 
ATOM     12  C   UNL     1      -0.962  -4.290 -12.747  0.00  0.00    +0.040 A 
ATOM     13  C   UNL     1      -0.071  -5.240 -13.218  0.00  0.00    +0.125 A 
ATOM     14  C   UNL     1       0.876  -5.797 -12.372  0.00  0.00    +0.063 A 
ATOM     15  F   UNL     1      -0.114  -5.614 -14.515  0.00  0.00    -0.205 F 
ATOM     16  H   UNL     1      -0.622  -2.222  -8.810  0.00  0.00    +0.193 HD
ATOM     17  H   UNL     1       2.632  -6.422 -10.526  0.00  0.00    +0.155 HD
ENDROOT
BRANCH   1  24
ATOM     18  N   UNL     1       1.401  -2.537  -2.452  0.00  0.00    -0.299 NA
ATOM     19  C   UNL     1       0.627  -2.191  -3.652  0.00  0.00    +0.103 C 
ATOM     20  C   UNL     1       1.457  -2.509  -4.900  0.00  0.00    +0.123 C 
ATOM     21  N   UNL     1       1.895  -3.911  -4.826  0.00  0.00    -0.294 N 
ATOM     22  C   UNL     1       2.558  -4.368  -3.595  0.00  0.00    +0.123 C 
ATOM     23  C   UNL     1       1.685  -3.977  -2.398  0.00  0.00    +0.103 C 
ATOM     24  C   UNL     1       1.696  -4.754  -5.858  0.00  0.00    +0.265 C 
ATOM     25  O   UNL     1       2.128  -5.891  -5.808  0.00  0.00    -0.269 OA
BRANCH  18  26
ATOM     26  C   UNL     1       0.713  -2.090  -1.234  0.00  0.00    +0.084 C 
BRANCH  26  27
ATOM     27  C   UNL     1       0.656  -0.561  -1.212  0.00  0.00    +0.015 C 
BRANCH  27  29
ATOM     28  C   UNL     1      -0.117   1.434   0.078  0.00  0.00    +0.004 C 
ATOM     29  C   UNL     1      -0.061  -0.095   0.056  0.00  0.00    -0.002 C 
ENDBRANCH  27  29
ENDBRANCH  26  27
ENDBRANCH  18  26
ENDBRANCH   1  24
TORSDOF 4
