REMARK  Name = ZINC59037228
REMARK  10 active torsions:
REMARK  status: ('A' for Active; 'I' for Inactive)
REMARK    1  A    between atoms: C_1  and  C_2
REMARK    2  A    between atoms: C_2  and  C_3
REMARK    3  A    between atoms: C_2  and  O_4
REMARK    4  A    between atoms: O_4  and  C_5
REMARK    5  A    between atoms: C_8  and  C_11
REMARK    6  A    between atoms: C_11  and  N_12
REMARK    7  A    between atoms: N_15  and  C_16
REMARK    8  A    between atoms: C_16  and  C_17
REMARK    9  A    between atoms: C_17  and  C_19
REMARK   10  A    between atoms: C_17  and  N_24
REMARK                            x       y       z     vdW  Elec       q    Type
REMARK                         _______ _______ _______ _____ _____    ______ ____
ROOT
ATOM      1  N   UNL     1      -1.788  -6.646  -1.041  0.00  0.00    -0.295 N 
ATOM      2  C   UNL     1      -2.065  -7.935  -1.323  0.00  0.00    +0.300 C 
ATOM      3  O   UNL     1      -2.402  -8.252  -2.447  0.00  0.00    -0.253 OA
ATOM      4  N   UNL     1      -1.968  -8.871  -0.359  0.00  0.00    -0.301 N 
ATOM      5  H   UNL     1      -1.520  -6.393  -0.144  0.00  0.00    +0.151 HD
ATOM      6  H   UNL     1      -1.700  -8.618   0.538  0.00  0.00    +0.150 HD
ENDROOT
BRANCH   1   7
ATOM      7  C   UNL     1      -1.893  -5.628  -2.090  0.00  0.00    +0.141 C 
BRANCH   7  11
ATOM      8  C   UNL     1      -0.873  -1.807  -0.472  0.00  0.00    +0.121 A 
ATOM      9  C   UNL     1       0.111  -2.611  -1.028  0.00  0.00    +0.046 A 
ATOM     10  C   UNL     1      -0.221  -3.846  -1.550  0.00  0.00    +0.009 A 
ATOM     11  C   UNL     1      -1.533  -4.281  -1.519  0.00  0.00    -0.030 A 
ATOM     12  C   UNL     1      -2.516  -3.481  -0.966  0.00  0.00    +0.009 A 
ATOM     13  C   UNL     1      -2.188  -2.247  -0.437  0.00  0.00    +0.046 A 
BRANCH   8  14
ATOM     14  O   UNL     1      -0.549  -0.591   0.043  0.00  0.00    -0.489 OA
BRANCH  14  16
ATOM     15  C   UNL     1      -0.987   0.950   1.851  0.00  0.00    +0.051 C 
ATOM     16  C   UNL     1      -1.587   0.129   0.709  0.00  0.00    +0.167 C 
ATOM     17  C   UNL     1      -2.276   1.067  -0.285  0.00  0.00    +0.051 C 
ENDBRANCH  14  16
ENDBRANCH   8  14
ENDBRANCH   7  11
ENDBRANCH   1   7
BRANCH   4  18
ATOM     18  C   UNL     1      -2.269 -10.272  -0.665  0.00  0.00    +0.098 C 
BRANCH  18  19
ATOM     19  C   UNL     1      -2.205 -11.100   0.620  0.00  0.00    +0.016 C 
BRANCH  19  20
ATOM     20  N   UNL     1      -0.904 -10.895   1.270  0.00  0.00    +0.387 N 
ATOM     21  C   UNL     1       0.171 -11.215   0.323  0.00  0.00    -0.078 C 
ATOM     22  C   UNL     1       1.528 -10.925   0.969  0.00  0.00    -0.019 C 
ATOM     23  C   UNL     1       1.682 -11.784   2.228  0.00  0.00    -0.004 C 
ATOM     24  C   UNL     1       0.514 -11.496   3.176  0.00  0.00    -0.019 C 
ATOM     25  C   UNL     1      -0.805 -11.764   2.449  0.00  0.00    -0.078 C 
ATOM     26  H   UNL     1      -0.821  -9.931   1.557  0.00  0.00    -0.081 HD
ENDBRANCH  19  20
BRANCH  19  27
ATOM     27  C   UNL     1      -3.307 -10.667   1.552  0.00  0.00    +0.093 A 
ATOM     28  C   UNL     1      -4.479 -11.302   1.733  0.00  0.00    +0.043 A 
ATOM     29  C   UNL     1      -5.205 -10.555   2.689  0.00  0.00    +0.041 A 
ATOM     30  C   UNL     1      -4.434  -9.509   3.036  0.00  0.00    +0.195 A 
ATOM     31  O   UNL     1      -3.282  -9.586   2.348  0.00  0.00    -0.469 OA
ENDBRANCH  19  27
ENDBRANCH  18  19
ENDBRANCH   4  18
TORSDOF 8
