REMARK  Name = ZINC40686141
REMARK  5 active torsions:
REMARK  status: ('A' for Active; 'I' for Inactive)
REMARK    1  A    between atoms: C_3  and  N_8
REMARK    2  A    between atoms: C_10  and  N_26
REMARK    3  A    between atoms: C_11  and  N_15
REMARK    4  A    between atoms: N_15  and  C_16
REMARK    5  A    between atoms: C_16  and  C_17
REMARK                            x       y       z     vdW  Elec       q    Type
REMARK                         _______ _______ _______ _____ _____    ______ ____
ROOT
ATOM      1  N   UNL     1       3.583   2.124  -0.021  0.00  0.00    -0.298 N 
ATOM      2  C   UNL     1       4.794   1.448   0.069  0.00  0.00    +0.149 A 
ATOM      3  C   UNL     1       5.994   2.155   0.172  0.00  0.00    +0.105 A 
ATOM      4  C   UNL     1       7.182   1.427   0.260  0.00  0.00    +0.145 A 
ATOM      5  N   UNL     1       7.126   0.097   0.242  0.00  0.00    -0.219 NA
ATOM      6  C   UNL     1       5.972  -0.531   0.143  0.00  0.00    +0.225 A 
ATOM      7  N   UNL     1       4.828   0.118   0.063  0.00  0.00    -0.219 NA
ATOM      8  H   UNL     1       3.571   3.091  -0.094  0.00  0.00    +0.154 HD
ENDROOT
BRANCH   1  11
ATOM      9  C   UNL     1       1.089  -0.466   0.745  0.00  0.00    +0.003 A 
ATOM     10  C   UNL     1       2.277   0.238   0.732  0.00  0.00    +0.023 A 
ATOM     11  C   UNL     1       2.381   1.410  -0.007  0.00  0.00    +0.034 A 
ATOM     12  C   UNL     1       1.289   1.871  -0.730  0.00  0.00    +0.043 A 
ATOM     13  C   UNL     1       0.102   1.163  -0.713  0.00  0.00    +0.043 A 
ATOM     14  C   UNL     1       0.003  -0.005   0.024  0.00  0.00    +0.020 A 
ATOM     15 CL   UNL     1      -1.264   1.738  -1.616  0.00  0.00    -0.083 Cl
ENDBRANCH   1  11
BRANCH   3  16
ATOM     16  N   UNL     1       6.006   3.558   0.187  0.00  0.00    -0.353 N 
ATOM     17  H   UNL     1       5.172   4.051   0.125  0.00  0.00    +0.143 HD
ATOM     18  H   UNL     1       6.847   4.036   0.259  0.00  0.00    +0.143 HD
ENDBRANCH   3  16
BRANCH   4  19
ATOM     19  N   UNL     1       8.404   2.080   0.364  0.00  0.00    -0.323 N 
ATOM     20  H   UNL     1       8.436   3.050   0.376  0.00  0.00    +0.148 HD
BRANCH  19  21
ATOM     21  C   UNL     1       9.644   1.305   0.456  0.00  0.00    +0.138 C 
BRANCH  21  22
ATOM     22  C   UNL     1      10.818   2.245   0.559  0.00  0.00    -0.027 A 
ATOM     23  C   UNL     1      11.447   2.691  -0.588  0.00  0.00    +0.009 A 
ATOM     24  C   UNL     1      12.523   3.554  -0.499  0.00  0.00    +0.050 A 
ATOM     25  C   UNL     1      12.975   3.973   0.742  0.00  0.00    +0.166 A 
ATOM     26  C   UNL     1      12.341   3.523   1.898  0.00  0.00    +0.167 A 
ATOM     27  C   UNL     1      11.259   2.663   1.800  0.00  0.00    +0.054 A 
ATOM     28  O   UNL     1      12.966   4.072   2.980  0.00  0.00    -0.453 OA
ATOM     29  C   UNL     1      14.239   4.536   2.494  0.00  0.00    +0.466 C 
ATOM     30  O   UNL     1      13.997   4.804   1.100  0.00  0.00    -0.453 OA
ENDBRANCH  21  22
ENDBRANCH  19  21
ENDBRANCH   4  19
TORSDOF 5
