REMARK  Name = ZINC43746465
REMARK  11 active torsions:
REMARK  status: ('A' for Active; 'I' for Inactive)
REMARK    1  A    between atoms: CB_1  and  CA_2
REMARK    2  A    between atoms: CA_2  and  C_4
REMARK    3  A    between atoms: CA_2  and  N_7
REMARK    4  A    between atoms: C_8  and  CA_10
REMARK    5  A    between atoms: CA_10  and  CB_12
REMARK    6  A    between atoms: CA_10  and  N_15
REMARK    7  A    between atoms: CB_12  and  CG1_13
REMARK    8  A    between atoms: CB_12  and  CG2_14
REMARK    9  A    between atoms: C_16  and  C_18
REMARK   10  A    between atoms: C_20  and  C_33
REMARK   11  A    between atoms: C_20  and  C_34
REMARK                            x       y       z     vdW  Elec       q    Type
REMARK                         _______ _______ _______ _____ _____    ______ ____
ROOT
ATOM      1  N   VAL A   1      -0.131  -0.847  -4.928  0.00  0.00    -0.302 N 
ATOM      2  C   UNK A   0       0.235  -1.118  -6.197  0.00  0.00    +0.236 C 
ATOM      3  O   UNK A   0       1.261  -1.728  -6.415  0.00  0.00    -0.274 OA
ATOM      4  H   VAL A   1      -0.986  -0.424  -4.750  0.00  0.00    +0.150 HD
ENDROOT
BRANCH   2   5
ATOM      5  C   UNK A   0      -0.629  -0.663  -7.344  0.00  0.00    +0.179 C 
ATOM      6  C   UNK A   0      -0.206   0.770  -7.745  0.00  0.00    +0.040 C 
ATOM      7  S   UNK A   0       0.490   0.493  -9.431  0.00  0.00    -0.125 S 
ATOM      8  C   UNK A   0       0.669  -1.337  -9.299  0.00  0.00    +0.167 C 
ATOM      9  N   UNK A   0      -0.507  -1.631  -8.435  0.00  0.00    -0.269 N 
ATOM     10  C   UNK A   0      -1.096  -2.718  -8.979  0.00  0.00    +0.249 C 
ATOM     11  O   UNK A   0      -1.833  -3.484  -8.390  0.00  0.00    -0.270 OA
ATOM     12  C   UNK A   0      -0.709  -2.833 -10.399  0.00  0.00    +0.043 A 
ATOM     13  C   UNK A   0       0.390  -1.984 -10.625  0.00  0.00    -0.005 A 
ATOM     14  C   UNK A   0       0.965  -1.885 -11.871  0.00  0.00    +0.007 A 
ATOM     15  C   UNK A   0       0.478  -2.645 -12.921  0.00  0.00    +0.000 A 
ATOM     16  C   UNK A   0      -0.585  -3.508 -12.721  0.00  0.00    +0.001 A 
ATOM     17  C   UNK A   0      -1.196  -3.608 -11.451  0.00  0.00    +0.013 A 
ATOM     18  C   UNK A   0      -1.417   1.704  -7.798  0.00  0.00    +0.025 C 
ATOM     19  C   UNK A   0       0.861   1.314  -6.793  0.00  0.00    +0.025 C 
ENDBRANCH   2   5
BRANCH   1  20
ATOM     20  CA  VAL A   1       0.761  -1.192  -3.818  0.00  0.00    +0.161 C 
BRANCH  20  22
ATOM     21  N   VAL A   1       0.531  -1.933  -1.470  0.00  0.00    -0.301 N 
ATOM     22  C   VAL A   1      -0.055  -1.427  -2.573  0.00  0.00    +0.234 C 
ATOM     23  O   VAL A   1      -1.238  -1.161  -2.564  0.00  0.00    -0.274 OA
ATOM     24  H   VAL A   1       1.469  -2.178  -1.488  0.00  0.00    +0.150 HD
BRANCH  21  26
ATOM     25  CB  VAL A   1      -0.268  -0.801   0.546  0.00  0.00    +0.040 C 
ATOM     26  CA  VAL A   1      -0.250  -2.112  -0.243  0.00  0.00    +0.183 C 
BRANCH  26  27
ATOM     27  C   VAL A   1       0.377  -3.195   0.597  0.00  0.00    +0.376 C 
ATOM     28  O   VAL A   1      -0.214  -3.630   1.571  0.00  0.00    -0.244 OA
ATOM     29  OXT VAL A   1       1.474  -3.637   0.303  0.00  0.00    -0.244 OA
ENDBRANCH  26  27
ENDBRANCH  21  26
ENDBRANCH  20  22
BRANCH  20  30
ATOM     30  CB  VAL A   1       1.742  -0.043  -3.576  0.00  0.00    +0.012 C 
ATOM     31  CG1 VAL A   1       0.970   1.201  -3.132  0.00  0.00    +0.009 C 
ATOM     32  CG2 VAL A   1       2.736  -0.443  -2.485  0.00  0.00    +0.009 C 
ENDBRANCH  20  30
ENDBRANCH   1  20
TORSDOF 6
