REMARK  Name = ZINC39669136
REMARK  9 active torsions:
REMARK  status: ('A' for Active; 'I' for Inactive)
REMARK    1  A    between atoms: C_1  and  C_2
REMARK    2  A    between atoms: C_4  and  C_11
REMARK    3  A    between atoms: N_5  and  C_7
REMARK    4  A    between atoms: C_7  and  C_8
REMARK    5  A    between atoms: C_7  and  C_9
REMARK    6  A    between atoms: C_7  and  C_10
REMARK    7  A    between atoms: C_15  and  C_24
REMARK    8  A    between atoms: N_26  and  C_27
REMARK    9  A    between atoms: C_27  and  C_28
REMARK                            x       y       z     vdW  Elec       q    Type
REMARK                         _______ _______ _______ _____ _____    ______ ____
ROOT
ATOM      1  C   UNL     1      -0.592  -4.011  -1.479  0.00  0.00    +0.265 C 
ATOM      2  O   UNL     1      -0.832  -3.822  -2.656  0.00  0.00    -0.268 OA
ATOM      3  N   UNL     1      -0.693  -5.252  -0.962  0.00  0.00    -0.295 N 
ATOM      4  C   UNL     1      -0.574  -5.656   0.459  0.00  0.00    +0.121 C 
ATOM      5  C   UNL     1      -1.656  -6.742   0.648  0.00  0.00    +0.100 C 
ATOM      6  C   UNL     1      -1.897  -7.306  -0.762  0.00  0.00    -0.004 C 
ATOM      7  C   UNL     1      -0.955  -6.519  -1.685  0.00  0.00    +0.115 C 
ATOM      8  C   UNL     1      -3.346  -7.081  -1.181  0.00  0.00    -0.010 C 
ATOM      9  C   UNL     1      -3.575  -7.701  -2.563  0.00  0.00    -0.082 C 
ATOM     10  N   UNL     1      -3.277  -9.138  -2.512  0.00  0.00    +0.379 N 
ATOM     11  C   UNL     1      -1.858  -9.344  -2.199  0.00  0.00    -0.082 C 
ATOM     12  C   UNL     1      -1.556  -8.793  -0.802  0.00  0.00    -0.010 C 
ATOM     13  H   UNL     1      -3.844  -9.572  -1.800  0.00  0.00    -0.086 HD
ATOM     14  H   UNL     1      -3.487  -9.555  -3.406  0.00  0.00    -0.086 HD
ENDROOT
BRANCH   1  18
ATOM     15  C   UNL     1       1.019  -1.181   2.409  0.00  0.00    +0.067 C 
ATOM     16  C   UNL     1       0.509  -1.637   1.066  0.00  0.00    +0.061 A 
ATOM     17  C   UNL     1       0.259  -2.958   0.687  0.00  0.00    +0.057 A 
ATOM     18  C   UNL     1      -0.192  -2.886  -0.619  0.00  0.00    +0.124 A 
ATOM     19  N   UNL     1      -0.190  -1.561  -0.951  0.00  0.00    -0.254 N 
ATOM     20  N   UNL     1       0.217  -0.867   0.050  0.00  0.00    -0.175 NA
BRANCH  19  21
ATOM     21  C   UNL     1      -0.596  -1.015  -2.248  0.00  0.00    +0.056 C 
ATOM     22  C   UNL     1      -2.013  -1.489  -2.580  0.00  0.00    +0.036 C 
ATOM     23  C   UNL     1      -0.570   0.513  -2.189  0.00  0.00    +0.036 C 
ATOM     24  C   UNL     1       0.370  -1.500  -3.330  0.00  0.00    +0.036 C 
ENDBRANCH  19  21
ENDBRANCH   1  18
BRANCH   5  25
ATOM     25  C   UNL     1      -1.158  -7.825   1.571  0.00  0.00    +0.218 C 
ATOM     26  O   UNL     1       0.031  -8.046   1.659  0.00  0.00    -0.275 OA
ATOM     27  N   UNL     1      -2.034  -8.546   2.298  0.00  0.00    -0.312 N 
ATOM     28  H   UNL     1      -2.988  -8.423   2.170  0.00  0.00    +0.149 HD
BRANCH  27  29
ATOM     29  C   UNL     1      -1.546  -9.516   3.281  0.00  0.00    +0.140 C 
BRANCH  29  30
ATOM     30  C   UNL     1      -2.736 -10.194   3.963  0.00  0.00    +0.165 C 
ATOM     31  C   UNL     1      -2.236 -11.094   5.062  0.00  0.00    -0.014 A 
ATOM     32  C   UNL     1      -1.236 -10.627   5.902  0.00  0.00    +0.006 A 
ATOM     33  C   UNL     1      -0.755 -11.422   6.923  0.00  0.00    +0.000 A 
ATOM     34  C   UNL     1      -1.274 -12.690   7.111  0.00  0.00    +0.000 A 
ATOM     35  C   UNL     1      -2.268 -13.158   6.274  0.00  0.00    +0.004 A 
ATOM     36  C   UNL     1      -2.748 -12.361   5.247  0.00  0.00    -0.040 A 
ATOM     37  C   UNL     1      -3.825 -12.910   4.346  0.00  0.00    +0.063 C 
ATOM     38  C   UNL     1      -4.491 -11.766   3.579  0.00  0.00    +0.165 C 
ATOM     39  O   UNL     1      -3.463 -10.955   2.998  0.00  0.00    -0.370 OA
ENDBRANCH  29  30
ENDBRANCH  27  29
ENDBRANCH   5  25
TORSDOF 5
