REMARK  Name = ZINC02946104
REMARK  12 active torsions:
REMARK  status: ('A' for Active; 'I' for Inactive)
REMARK    1  A    between atoms: C_1  and  C_2
REMARK    2  A    between atoms: C_2  and  O_3
REMARK    3  A    between atoms: O_3  and  C_4
REMARK    4  A    between atoms: C_7  and  C_26
REMARK    5  A    between atoms: C_9  and  C_10
REMARK    6  A    between atoms: C_10  and  N_74
REMARK    7  A    between atoms: N_27  and  N_28
REMARK    8  A    between atoms: C_29  and  C_31
REMARK    9  A    between atoms: C_33  and  C_37
REMARK   10  A    between atoms: C_37  and  C_38
REMARK   11  A    between atoms: C_37  and  C_39
REMARK   12  A    between atoms: C_37  and  C_40
REMARK                            x       y       z     vdW  Elec       q    Type
REMARK                         _______ _______ _______ _____ _____    ______ ____
ROOT
ATOM      1  C   UNL     1      -4.271  -0.885   1.458  0.00  0.00    +0.122 A 
ATOM      2  C   UNL     1      -4.373  -2.260   1.625  0.00  0.00    +0.046 A 
ATOM      3  C   UNL     1      -4.605  -3.073   0.536  0.00  0.00    +0.013 A 
ATOM      4  C   UNL     1      -4.739  -2.511  -0.736  0.00  0.00    -0.005 A 
ATOM      5  C   UNL     1      -4.641  -1.127  -0.898  0.00  0.00    +0.014 A 
ATOM      6  C   UNL     1      -4.403  -0.322   0.195  0.00  0.00    -0.022 A 
ENDROOT
BRANCH   4   7
ATOM      7  C   UNL     1      -4.988  -3.376  -1.904  0.00  0.00    +0.138 C 
ATOM      8  N   UNL     1      -5.083  -4.662  -1.750  0.00  0.00    -0.187 NA
BRANCH   8   9
ATOM      9  N   UNL     1      -5.320  -5.484  -2.860  0.00  0.00    -0.202 N 
ATOM     10  C   UNL     1      -5.419  -6.819  -2.700  0.00  0.00    +0.283 C 
ATOM     11  O   UNL     1      -5.303  -7.309  -1.594  0.00  0.00    -0.267 OA
ATOM     12  H   UNL     1      -5.412  -5.093  -3.743  0.00  0.00    +0.178 HD
BRANCH  10  13
ATOM     13  C   UNL     1      -5.668  -7.685  -3.870  0.00  0.00    +0.149 A 
ATOM     14  C   UNL     1      -5.790  -9.095  -3.862  0.00  0.00    +0.058 A 
ATOM     15  C   UNL     1      -6.015  -9.445  -5.151  0.00  0.00    +0.042 A 
ATOM     16  N   UNL     1      -6.017  -8.309  -5.880  0.00  0.00    -0.280 N 
ATOM     17  H   UNL     1      -6.156  -8.264  -6.869  0.00  0.00    +0.189 HD
ATOM     18  N   UNL     1      -5.814  -7.293  -5.120  0.00  0.00    -0.169 NA
BRANCH  15  19
ATOM     19  C   UNL     1      -6.219 -10.844  -5.674  0.00  0.00    +0.004 C 
ATOM     20  C   UNL     1      -6.309 -10.809  -7.201  0.00  0.00    +0.017 C 
ATOM     21  C   UNL     1      -5.040 -11.723  -5.253  0.00  0.00    +0.017 C 
ATOM     22  C   UNL     1      -7.515 -11.419  -5.100  0.00  0.00    +0.017 C 
ENDBRANCH  15  19
ENDBRANCH  10  13
ENDBRANCH   8   9
ENDBRANCH   4   7
BRANCH   1  23
ATOM     23  O   UNL     1      -4.041  -0.087   2.534  0.00  0.00    -0.492 OA
BRANCH  23  25
ATOM     24  C   UNL     1      -3.661   0.320   4.886  0.00  0.00    +0.048 C 
ATOM     25  C   UNL     1      -3.916  -0.731   3.803  0.00  0.00    +0.225 C 
ENDBRANCH  23  25
ENDBRANCH   1  23
BRANCH   6  26
ATOM     26  C   UNL     1      -4.292   1.171   0.021  0.00  0.00    -0.039 C 
BRANCH  26  40
ATOM     27  C   UNL     1      -2.203   1.140   1.240  0.00  0.00    -0.073 C 
ATOM     28  C   UNL     1      -0.748   1.589   1.253  0.00  0.00    -0.007 C 
ATOM     29  C   UNL     1      -0.013   1.086   0.008  0.00  0.00    +0.011 C 
ATOM     30  C   UNL     1      -0.773   1.603  -1.219  0.00  0.00    +0.020 C 
ATOM     31  C   UNL     1      -2.194   1.016  -1.180  0.00  0.00    -0.069 C 
ATOM     32  C   UNL     1      -0.901   3.107  -1.127  0.00  0.00    +0.023 A 
ATOM     33  C   UNL     1      -1.021   3.795  -2.293  0.00  0.00    +0.022 A 
ATOM     34  C   UNL     1      -1.206   5.182  -2.285  0.00  0.00    +0.007 A 
ATOM     35  C   UNL     1      -1.283   5.829  -1.086  0.00  0.00    +0.070 A 
ATOM     36  C   UNL     1      -1.152   5.090   0.099  0.00  0.00    +0.251 A 
ATOM     37  O   UNL     1      -1.265   5.651   1.177  0.00  0.00    -0.268 OA
ATOM     38  N   UNL     1      -0.901   3.757   0.061  0.00  0.00    -0.312 N 
ATOM     39  C   UNL     1      -0.621   3.100   1.338  0.00  0.00    +0.126 C 
ATOM     40  N   UNL     1      -2.875   1.587   0.004  0.00  0.00    +0.383 N 
ATOM     41  H   UNL     1      -2.829   2.612  -0.048  0.00  0.00    -0.081 HD
ENDBRANCH  26  40
ENDBRANCH   6  26
TORSDOF 8
