REMARK  Name = ZINC57218541
REMARK  2 active torsions:
REMARK  status: ('A' for Active; 'I' for Inactive)
REMARK    1  A    between atoms: C_1  and  C_2
REMARK    2  A    between atoms: C_2  and  C_9
REMARK                            x       y       z     vdW  Elec       q    Type
REMARK                         _______ _______ _______ _____ _____    ______ ____
ROOT
ATOM      1  C   UNL     1       0.052   1.525   0.040  0.00  0.00    +0.047 C 
ATOM      2  C   UNL     1       0.002  -0.004   0.002  0.00  0.00    +0.136 C 
ATOM      3  C   UNL     1      -1.414  -0.497   0.226  0.00  0.00    +0.248 C 
ATOM      4  O   UNL     1      -2.385  -0.273  -0.465  0.00  0.00    -0.273 OA
ATOM      5  N   UNL     1      -1.369  -1.235   1.352  0.00  0.00    -0.238 N 
ATOM      6  C   UNL     1      -0.134  -1.277   1.866  0.00  0.00    +0.307 C 
ATOM      7  O   UNL     1       0.156  -1.882   2.880  0.00  0.00    -0.252 OA
ATOM      8  N   UNL     1       0.751  -0.576   1.135  0.00  0.00    -0.281 N 
ATOM      9  H   UNL     1      -2.137  -1.681   1.743  0.00  0.00    +0.159 HD
ATOM     10  H   UNL     1       1.697  -0.468   1.317  0.00  0.00    +0.152 HD
ENDROOT
BRANCH   2  11
ATOM     11  C   UNL     1       0.545  -0.518  -1.306  0.00  0.00    -0.001 A 
ATOM     12  C   UNL     1       1.619  -1.389  -1.314  0.00  0.00    +0.010 A 
ATOM     13  C   UNL     1       2.118  -1.862  -2.513  0.00  0.00    +0.039 A 
ATOM     14  C   UNL     1       1.542  -1.463  -3.708  0.00  0.00    +0.124 A 
ATOM     15  C   UNL     1       0.467  -0.591  -3.700  0.00  0.00    +0.054 A 
ATOM     16  C   UNL     1      -0.034  -0.123  -2.498  0.00  0.00    +0.026 A 
ATOM     17 BR   UNL     1      -1.507   1.063  -2.486  0.00  0.00    -0.050 Br
ATOM     18  F   UNL     1       2.029  -1.924  -4.880  0.00  0.00    -0.205 F 
ENDBRANCH   2  11
TORSDOF 1
