REMARK  Name = ZINC06542725
REMARK  10 active torsions:
REMARK  status: ('A' for Active; 'I' for Inactive)
REMARK    1  A    between atoms: C_1  and  C_2
REMARK    2  A    between atoms: C_7  and  N_12
REMARK    3  A    between atoms: C_9  and  C_11
REMARK    4  A    between atoms: C_13  and  C_15
REMARK    5  A    between atoms: C_15  and  C_17
REMARK    6  A    between atoms: C_15  and  O_18
REMARK    7  A    between atoms: O_18  and  C_19
REMARK    8  A    between atoms: C_19  and  C_21
REMARK    9  A    between atoms: C_23  and  S_28
REMARK   10  A    between atoms: S_28  and  N_31
REMARK                            x       y       z     vdW  Elec       q    Type
REMARK                         _______ _______ _______ _____ _____    ______ ____
ROOT
ATOM      1  O   UNL     1      -3.051   0.498   6.009  0.00  0.00    -0.449 OA
ENDROOT
BRANCH   1   2
ATOM      2  C   UNL     1      -3.432   1.327   4.879  0.00  0.00    +0.259 C 
ATOM      3  C   UNL     1      -4.946   1.241   4.671  0.00  0.00    +0.062 C 
BRANCH   2   5
ATOM      4  N   UNL     1      -2.850   1.522   2.483  0.00  0.00    -0.309 N 
ATOM      5  C   UNL     1      -2.727   0.841   3.639  0.00  0.00    +0.254 C 
ATOM      6  O   UNL     1      -2.049  -0.164   3.682  0.00  0.00    -0.272 OA
ATOM      7  H   UNL     1      -3.393   2.325   2.449  0.00  0.00    +0.149 HD
BRANCH   4  13
ATOM      8  C   UNL     1      -2.928   1.570  -2.460  0.00  0.00    +0.008 C 
ATOM      9  C   UNL     1      -2.188   1.063  -1.221  0.00  0.00    -0.009 C 
ATOM     10  C   UNL     1      -0.753   1.593  -1.232  0.00  0.00    +0.003 C 
ATOM     11  C   UNL     1      -0.013   1.086   0.008  0.00  0.00    +0.002 C 
ATOM     12  C   UNL     1      -0.729   1.579   1.267  0.00  0.00    +0.022 C 
ATOM     13  C   UNL     1      -2.164   1.050   1.278  0.00  0.00    +0.076 C 
ATOM     14  C   UNL     1      -2.904   1.556   0.038  0.00  0.00    +0.009 C 
ATOM     15  C   UNL     1      -4.340   1.027   0.049  0.00  0.00    +0.009 C 
ENDBRANCH   4  13
ENDBRANCH   2   5
ENDBRANCH   1   2
BRANCH   1  16
ATOM     16  C   UNL     1      -3.045   1.084   7.222  0.00  0.00    +0.341 C 
ATOM     17  O   UNL     1      -3.349   2.255   7.333  0.00  0.00    -0.245 OA
BRANCH  16  18
ATOM     18  C   UNL     1      -2.667   0.302   8.417  0.00  0.00    +0.079 A 
ATOM     19  C   UNL     1      -2.322  -1.045   8.294  0.00  0.00    +0.045 A 
ATOM     20  C   UNL     1      -1.967  -1.768   9.413  0.00  0.00    +0.106 A 
ATOM     21  C   UNL     1      -1.961  -1.164  10.659  0.00  0.00    +0.030 A 
ATOM     22  C   UNL     1      -2.306   0.169  10.790  0.00  0.00    +0.023 A 
ATOM     23  C   UNL     1      -2.659   0.907   9.677  0.00  0.00    +0.055 A 
ATOM     24 CL   UNL     1      -3.093   2.579   9.843  0.00  0.00    -0.083 Cl
BRANCH  20  25
ATOM     25  S   UNL     1      -1.525  -3.467   9.259  0.00  0.00    +0.056 S 
ATOM     26  O   UNL     1      -1.082  -3.651   7.921  0.00  0.00    -0.153 OA
ATOM     27  O   UNL     1      -0.711  -3.778  10.381  0.00  0.00    -0.153 OA
BRANCH  25  28
ATOM     28  N   UNL     1      -2.916  -4.351   9.423  0.00  0.00    -0.204 NA
ATOM     29  H   UNL     1      -3.762  -3.900   9.574  0.00  0.00    +0.144 HD
ATOM     30  H   UNL     1      -2.885  -5.319   9.368  0.00  0.00    +0.144 HD
ENDBRANCH  25  28
ENDBRANCH  20  25
ENDBRANCH  16  18
ENDBRANCH   1  16
TORSDOF 7
