REMARK  Name = ZINC04422355
REMARK  4 active torsions:
REMARK  status: ('A' for Active; 'I' for Inactive)
REMARK    1  A    between atoms: C_4  and  N_7
REMARK    2  A    between atoms: C_8  and  C_10
REMARK    3  A    between atoms: N_20  and  C_21
REMARK    4  A    between atoms: C_24  and  C_27
REMARK                            x       y       z     vdW  Elec       q    Type
REMARK                         _______ _______ _______ _____ _____    ______ ____
ROOT
ATOM      1  C   UNL     1       2.276   6.005   0.142  0.00  0.00    +0.098 A 
ATOM      2  C   UNL     1       2.381   4.625   0.036  0.00  0.00    +0.030 A 
ATOM      3  C   UNL     1       1.136   3.853   0.039  0.00  0.00    +0.021 A 
ATOM      4  C   UNL     1       1.156   2.462   0.207  0.00  0.00    +0.031 A 
ATOM      5  C   UNL     1      -0.029   1.761   0.213  0.00  0.00    +0.043 A 
ATOM      6  C   UNL     1      -1.239   2.423   0.047  0.00  0.00    +0.043 A 
ATOM      7  C   UNL     1      -1.274   3.794  -0.116  0.00  0.00    +0.085 A 
ATOM      8  C   UNL     1      -0.091   4.521  -0.126  0.00  0.00    +0.156 A 
ATOM      9  O   UNL     1      -0.110   5.865  -0.297  0.00  0.00    -0.437 OA
ATOM     10  C   UNL     1       0.915   6.570   0.247  0.00  0.00    +0.212 A 
ATOM     11  N   UNL     1       0.703   7.720   0.850  0.00  0.00    -0.325 N 
ATOM     12 CL   UNL     1      -2.795   4.607  -0.313  0.00  0.00    -0.080 Cl
ATOM     13 CL   UNL     1      -0.011   0.037   0.421  0.00  0.00    -0.083 Cl
ATOM     14  H   UNL     1       1.530   8.233   1.362  0.00  0.00    +0.169 HD
ENDROOT
BRANCH  11  15
ATOM     15  C   UNL     1      -0.546   8.276   0.840  0.00  0.00    +0.042 A 
ATOM     16  C   UNL     1      -0.950   9.076  -0.232  0.00  0.00    +0.026 A 
ATOM     17  C   UNL     1      -2.213   9.630  -0.237  0.00  0.00    +0.014 A 
ATOM     18  C   UNL     1      -3.075   9.404   0.821  0.00  0.00    +0.055 A 
ATOM     19  C   UNL     1      -2.680   8.617   1.889  0.00  0.00    +0.014 A 
ATOM     20  C   UNL     1      -1.423   8.052   1.905  0.00  0.00    +0.026 A 
BRANCH  18  21
ATOM     21  C   UNL     1      -4.452  10.019   0.811  0.00  0.00    +0.417 C 
ATOM     22  F   UNL     1      -4.405  11.277   1.421  0.00  0.00    -0.166 F 
ATOM     23  F   UNL     1      -4.891  10.156  -0.510  0.00  0.00    -0.166 F 
ATOM     24  F   UNL     1      -5.336   9.193   1.513  0.00  0.00    -0.166 F 
ENDBRANCH  18  21
ENDBRANCH  11  15
BRANCH   1  26
ATOM     25  N   UNL     1       4.697   6.322   0.053  0.00  0.00    -0.281 N 
ATOM     26  C   UNL     1       3.469   6.869   0.150  0.00  0.00    +0.253 C 
ATOM     27  O   UNL     1       3.345   8.075   0.245  0.00  0.00    -0.270 OA
ATOM     28  H   UNL     1       4.806   5.241  -0.118  0.00  0.00    +0.155 HD
BRANCH  25  32
ATOM     29  C   UNL     1       8.080   8.727   0.398  0.00  0.00    +0.000 A 
ATOM     30  C   UNL     1       6.940   9.032   1.119  0.00  0.00    +0.002 A 
ATOM     31  C   UNL     1       5.817   8.237   1.007  0.00  0.00    +0.023 A 
ATOM     32  C   UNL     1       5.832   7.130   0.168  0.00  0.00    +0.034 A 
ATOM     33  C   UNL     1       6.981   6.823  -0.550  0.00  0.00    +0.023 A 
ATOM     34  C   UNL     1       8.099   7.625  -0.438  0.00  0.00    +0.002 A 
ENDBRANCH  25  32
ENDBRANCH   1  26
TORSDOF 4
