REMARK  Name = ZINC43406600
REMARK  4 active torsions:
REMARK  status: ('A' for Active; 'I' for Inactive)
REMARK    1  A    between atoms: C_6  and  C_7
REMARK    2  A    between atoms: N_13  and  C_16
REMARK    3  A    between atoms: C_16  and  C_17
REMARK    4  A    between atoms: C_17  and  O_18
REMARK                            x       y       z     vdW  Elec       q    Type
REMARK                         _______ _______ _______ _____ _____    ______ ____
ROOT
ATOM      1  C   UNL     1      -0.017   1.404   0.090  0.00  0.00    +0.020 A 
ATOM      2  C   UNL     1       1.171   2.072  -0.154  0.00  0.00    -0.025 A 
ATOM      3  C   UNL     1       2.352   1.358  -0.247  0.00  0.00    +0.047 A 
ATOM      4  N   UNL     1       2.357   0.042  -0.105  0.00  0.00    -0.236 NA
ATOM      5  C   UNL     1       1.252  -0.645   0.129  0.00  0.00    +0.132 A 
ATOM      6  C   UNL     1       0.015   0.014   0.236  0.00  0.00    +0.052 A 
ATOM      7  N   UNL     1       1.313  -2.019   0.269  0.00  0.00    -0.312 N 
ATOM      8  C   UNL     1       1.301  -2.899  -0.910  0.00  0.00    +0.122 C 
ATOM      9  C   UNL     1       2.479  -3.874  -0.801  0.00  0.00    +0.103 C 
ATOM     10  N   UNL     1       2.419  -4.567   0.492  0.00  0.00    -0.297 NA
ATOM     11  C   UNL     1       2.565  -3.625   1.609  0.00  0.00    +0.103 C 
ATOM     12  C   UNL     1       1.397  -2.640   1.599  0.00  0.00    +0.122 C 
ATOM     13  C   UNL     1       3.501   2.310  -0.515  0.00  0.00    +0.056 C 
ATOM     14  C   UNL     1       2.839   3.613  -1.010  0.00  0.00    +0.011 C 
ATOM     15  C   UNL     1       1.444   3.547  -0.354  0.00  0.00    +0.037 C 
ENDROOT
BRANCH   6  16
ATOM     16  C   UNL     1      -1.223  -0.745   0.498  0.00  0.00    +0.098 C 
ATOM     17  N   UNL     1      -1.978  -0.444   1.554  0.00  0.00    -0.387 N 
ATOM     18  N   UNL     1      -1.585  -1.732  -0.321  0.00  0.00    -0.344 N 
ATOM     19  H   UNL     1      -1.035  -1.951  -1.090  0.00  0.00    +0.144 HD
ATOM     20  H   UNL     1      -2.399  -2.231  -0.149  0.00  0.00    +0.144 HD
ATOM     21  H   UNL     1      -1.752   0.317   2.111  0.00  0.00    +0.157 HD
ATOM     22  H   UNL     1      -2.755  -0.987   1.765  0.00  0.00    +0.157 HD
ENDBRANCH   6  16
BRANCH  10  23
ATOM     23  C   UNL     1       3.428  -5.632   0.566  0.00  0.00    +0.112 C 
BRANCH  23  24
ATOM     24  C   UNL     1       3.177  -6.488   1.809  0.00  0.00    +0.171 C 
BRANCH  24  25
ATOM     25  O   UNL     1       1.924  -7.163   1.677  0.00  0.00    -0.394 OA
ATOM     26  H   UNL     1       1.699  -7.726   2.431  0.00  0.00    +0.209 HD
ENDBRANCH  24  25
ENDBRANCH  23  24
ENDBRANCH  10  23
TORSDOF 4
