REMARK  Name = ZINC43736155
REMARK  7 active torsions:
REMARK  status: ('A' for Active; 'I' for Inactive)
REMARK    1  A    between atoms: C_1  and  C_2
REMARK    2  A    between atoms: C_13  and  O_30
REMARK    3  A    between atoms: C_17  and  C_29
REMARK    4  A    between atoms: C_22  and  C_28
REMARK    5  A    between atoms: C_23  and  C_24
REMARK    6  A    between atoms: C_23  and  O_27
REMARK    7  A    between atoms: C_24  and  C_26
REMARK                            x       y       z     vdW  Elec       q    Type
REMARK                         _______ _______ _______ _____ _____    ______ ____
ROOT
ATOM      1  C   UNL     1      -0.036   1.561   0.222  0.00  0.00    +0.011 C 
ATOM      2  C   UNL     1       0.008   0.035   0.118  0.00  0.00    +0.026 C 
ATOM      3  C   UNL     1      -1.430  -0.546   0.195  0.00  0.00    +0.011 C 
ATOM      4  C   UNL     1      -1.235  -1.839   0.994  0.00  0.00    +0.002 C 
ATOM      5  C   UNL     1      -2.474  -2.384   1.682  0.00  0.00    +0.000 C 
ATOM      6  C   UNL     1      -3.502  -2.805   0.626  0.00  0.00    +0.031 C 
ATOM      7  C   UNL     1      -4.650  -3.496   1.304  0.00  0.00    -0.027 C 
ATOM      8  C   UNL     1      -4.531  -4.120   2.439  0.00  0.00    -0.065 C 
ATOM      9  C   UNL     1      -5.762  -4.792   3.023  0.00  0.00    +0.062 C 
ATOM     10  C   UNL     1      -5.407  -6.243   3.360  0.00  0.00    +0.119 C 
ATOM     11  C   UNL     1      -4.189  -6.267   4.286  0.00  0.00    +0.032 C 
ATOM     12  C   UNL     1      -2.976  -5.686   3.558  0.00  0.00    +0.014 C 
ATOM     13  C   UNL     1      -3.247  -4.220   3.208  0.00  0.00    -0.008 C 
ATOM     14  C   UNL     1      -2.051  -3.619   2.488  0.00  0.00    +0.003 C 
ATOM     15  C   UNL     1      -0.937  -3.296   3.480  0.00  0.00    +0.005 C 
ATOM     16  C   UNL     1       0.263  -2.627   2.791  0.00  0.00    +0.010 C 
ATOM     17  C   UNL     1      -0.240  -1.382   2.094  0.00  0.00    +0.007 C 
ATOM     18  C   UNL     1       0.785  -0.557   1.319  0.00  0.00    +0.131 C 
ATOM     19  C   UNL     1      -0.963  -0.498   3.113  0.00  0.00    +0.015 C 
ATOM     20  C   UNL     1      -3.412  -3.442   4.514  0.00  0.00    +0.016 C 
ENDROOT
BRANCH  18  21
ATOM     21  C   UNL     1       1.329   0.549   2.187  0.00  0.00    +0.162 C 
ATOM     22  O   UNL     1       0.575   1.343   2.696  0.00  0.00    -0.295 OA
ATOM     23  C   UNL     1       2.814   0.664   2.418  0.00  0.00    +0.089 C 
ENDBRANCH  18  21
BRANCH  18  24
ATOM     24  O   UNL     1       1.848  -1.394   0.858  0.00  0.00    -0.380 OA
ATOM     25  H   UNL     1       2.508  -0.932   0.324  0.00  0.00    +0.211 HD
ENDBRANCH  18  24
BRANCH  10  26
ATOM     26  O   UNL     1      -5.104  -6.952   2.157  0.00  0.00    -0.391 OA
ATOM     27  H   UNL     1      -5.833  -6.977   1.522  0.00  0.00    +0.210 HD
ENDBRANCH  10  26
TORSDOF 3
