REMARK  Name = ZINC07653511
REMARK  3 active torsions:
REMARK  status: ('A' for Active; 'I' for Inactive)
REMARK    1  A    between atoms: C_5  and  C_7
REMARK    2  A    between atoms: N_9  and  N_10
REMARK    3  A    between atoms: C_11  and  C_13
REMARK                            x       y       z     vdW  Elec       q    Type
REMARK                         _______ _______ _______ _____ _____    ______ ____
ROOT
ATOM      1  C   UNL     1       2.279   4.241   0.003  0.00  0.00    +0.262 C 
ATOM      2  O   UNL     1       3.340   3.648  -0.010  0.00  0.00    -0.269 OA
ATOM      3  N   UNL     1       1.121   3.551   0.010  0.00  0.00    -0.230 N 
ATOM      4  H   UNL     1       0.275   4.025   0.021  0.00  0.00    +0.173 HD
ENDROOT
BRANCH   1   9
ATOM      5  C   UNL     1       1.031   7.782   0.034  0.00  0.00    +0.001 A 
ATOM      6  C   UNL     1       2.221   8.488   0.026  0.00  0.00    +0.001 A 
ATOM      7  C   UNL     1       3.430   7.818   0.011  0.00  0.00    +0.021 A 
ATOM      8  C   UNL     1       3.457   6.437   0.004  0.00  0.00    +0.053 A 
ATOM      9  C   UNL     1       2.259   5.718   0.011  0.00  0.00    +0.056 A 
ATOM     10  C   UNL     1       1.042   6.403   0.021  0.00  0.00    +0.014 A 
ATOM     11 CL   UNL     1       4.976   5.596  -0.016  0.00  0.00    -0.083 Cl
ENDBRANCH   1   9
BRANCH   3  12
ATOM     12  N   UNL     1       1.140   2.150   0.003  0.00  0.00    -0.230 N 
ATOM     13  C   UNL     1      -0.018   1.461   0.010  0.00  0.00    +0.267 C 
ATOM     14  O   UNL     1      -1.080   2.055   0.018  0.00  0.00    -0.268 OA
ATOM     15  H   UNL     1       1.987   1.677  -0.008  0.00  0.00    +0.173 HD
BRANCH  13  16
ATOM     16  C   UNL     1       0.002  -0.004   0.002  0.00  0.00    +0.076 A 
ATOM     17  C   UNL     1      -1.062  -0.892   0.007  0.00  0.00    +0.022 A 
ATOM     18  C   UNL     1      -0.760  -2.231  -0.003  0.00  0.00    +0.024 A 
ATOM     19  C   UNL     1       0.545  -2.616  -0.019  0.00  0.00    +0.056 A 
ATOM     20  S   UNL     1       1.402  -1.109  -0.025  0.00  0.00    -0.077 S 
ATOM     21 BR   UNL     1       1.251  -4.370  -0.036  0.00  0.00    -0.043 Br
ENDBRANCH  13  16
ENDBRANCH   3  12
TORSDOF 3
