REMARK  Name = ZINC16627626
REMARK  10 active torsions:
REMARK  status: ('A' for Active; 'I' for Inactive)
REMARK    1  A    between atoms: C_1  and  C_2
REMARK    2  A    between atoms: C_2  and  C_3
REMARK    3  A    between atoms: C_3  and  N_58
REMARK    4  A    between atoms: C_4  and  C_5
REMARK    5  A    between atoms: C_4  and  N_58
REMARK    6  A    between atoms: N_7  and  C_8
REMARK    7  A    between atoms: C_16  and  C_17
REMARK    8  A    between atoms: C_16  and  N_58
REMARK    9  A    between atoms: C_29  and  C_30
REMARK   10  A    between atoms: C_29  and  C_31
REMARK                            x       y       z     vdW  Elec       q    Type
REMARK                         _______ _______ _______ _____ _____    ______ ____
ROOT
ATOM      1  N   UNL     1      -1.587  -1.494  -2.254  0.00  0.00    +0.391 N 
ATOM      2  H   UNL     1      -2.407  -1.044  -2.677  0.00  0.00    -0.080 HD
ENDROOT
BRANCH   1   3
ATOM      3  C   UNL     1      -2.008  -2.759  -1.616  0.00  0.00    -0.078 C 
BRANCH   3   5
ATOM      4  C   UNL     1      -3.492  -4.751  -1.882  0.00  0.00    +0.002 C 
ATOM      5  C   UNL     1      -2.926  -3.514  -2.581  0.00  0.00    -0.022 C 
ENDBRANCH   3   5
ENDBRANCH   1   3
BRANCH   1   6
ATOM      6  C   UNL     1      -0.592  -1.769  -3.312  0.00  0.00    +0.020 C 
BRANCH   6   7
ATOM      7  C   UNL     1      -0.502  -0.566  -4.216  0.00  0.00    +0.201 C 
ATOM      8  O   UNL     1      -1.159   0.424  -3.974  0.00  0.00    -0.278 OA
ATOM      9  N   UNL     1       0.308  -0.591  -5.293  0.00  0.00    -0.286 N 
ATOM     10  H   UNL     1       0.778  -1.406  -5.527  0.00  0.00    +0.155 HD
BRANCH   9  11
ATOM     11  C   UNL     1       0.471   0.560  -6.073  0.00  0.00    +0.052 A 
ATOM     12  C   UNL     1      -0.544   1.506  -6.138  0.00  0.00    +0.026 A 
ATOM     13  C   UNL     1      -0.381   2.641  -6.908  0.00  0.00    +0.022 A 
ATOM     14  C   UNL     1       0.793   2.837  -7.614  0.00  0.00    +0.042 A 
ATOM     15  C   UNL     1       1.806   1.897  -7.552  0.00  0.00    +0.041 A 
ATOM     16  C   UNL     1       1.650   0.761  -6.779  0.00  0.00    +0.064 A 
ATOM     17 CL   UNL     1       2.924  -0.415  -6.696  0.00  0.00    -0.082 Cl
ATOM     18 CL   UNL     1       0.994   4.265  -8.581  0.00  0.00    -0.083 Cl
ENDBRANCH   9  11
ENDBRANCH   6   7
ENDBRANCH   1   6
BRANCH   1  19
ATOM     19  C   UNL     1      -1.010  -0.585  -1.242  0.00  0.00    +0.020 C 
BRANCH  19  20
ATOM     20  C   UNL     1      -2.104  -0.148  -0.302  0.00  0.00    +0.204 C 
ATOM     21  O   UNL     1      -3.144  -0.769  -0.250  0.00  0.00    -0.277 OA
ATOM     22  N   UNL     1      -1.926   0.934   0.482  0.00  0.00    -0.257 N 
ATOM     23  C   UNL     1      -0.689   1.597   0.532  0.00  0.00    +0.058 A 
ATOM     24  C   UNL     1       0.495   0.916   0.317  0.00  0.00    +0.025 A 
ATOM     25  C   UNL     1       1.699   1.596   0.378  0.00  0.00    +0.002 A 
ATOM     26  C   UNL     1       1.718   2.950   0.659  0.00  0.00    +0.002 A 
ATOM     27  C   UNL     1       0.538   3.636   0.878  0.00  0.00    +0.025 A 
ATOM     28  C   UNL     1      -0.672   2.963   0.817  0.00  0.00    +0.055 A 
ATOM     29  N   UNL     1      -1.879   3.640   1.026  0.00  0.00    -0.282 N 
ATOM     30  C   UNL     1      -3.022   2.963   1.232  0.00  0.00    +0.241 C 
ATOM     31  O   UNL     1      -4.064   3.570   1.363  0.00  0.00    -0.273 OA
ATOM     32  C   UNL     1      -3.021   1.458   1.312  0.00  0.00    +0.113 C 
ATOM     33  C   UNL     1      -4.357   0.917   0.798  0.00  0.00    +0.042 C 
ATOM     34  C   UNL     1      -2.816   1.022   2.764  0.00  0.00    +0.042 C 
ATOM     35  H   UNL     1      -1.893   4.610   1.011  0.00  0.00    +0.155 HD
ENDBRANCH  19  20
ENDBRANCH   1  19
TORSDOF 7
