REMARK  Name = ZINC58096189
REMARK  9 active torsions:
REMARK  status: ('A' for Active; 'I' for Inactive)
REMARK    1  A    between atoms: C_1  and  C_2
REMARK    2  A    between atoms: C_4  and  C_14
REMARK    3  A    between atoms: C_11  and  C_12
REMARK    4  A    between atoms: C_11  and  C_13
REMARK    5  A    between atoms: C_14  and  C_16
REMARK    6  A    between atoms: C_14  and  O_20
REMARK    7  A    between atoms: C_16  and  C_17
REMARK    8  A    between atoms: C_16  and  C_18
REMARK    9  A    between atoms: C_16  and  C_19
REMARK                            x       y       z     vdW  Elec       q    Type
REMARK                         _______ _______ _______ _____ _____    ______ ____
ROOT
ATOM      1  C   UNL     1      -0.018   1.503   0.010  0.00  0.00    +0.045 C 
ATOM      2  C   UNL     1       0.002  -0.004   0.002  0.00  0.00    -0.029 A 
ATOM      3  C   UNL     1       0.006  -0.686  -1.198  0.00  0.00    +0.011 A 
ATOM      4  C   UNL     1       0.024  -2.068  -1.216  0.00  0.00    -0.018 A 
ATOM      5  C   UNL     1       0.039  -2.773  -0.024  0.00  0.00    +0.012 A 
ATOM      6  C   UNL     1       0.036  -2.095   1.174  0.00  0.00    -0.011 A 
ATOM      7  C   UNL     1       0.023  -0.706   1.206  0.00  0.00    +0.041 A 
ATOM      8  N   UNL     1       0.029  -0.253   2.525  0.00  0.00    -0.284 N 
ATOM      9  C   UNL     1       0.052  -1.264   3.410  0.00  0.00    +0.227 C 
ATOM     10  O   UNL     1       0.062  -1.164   4.619  0.00  0.00    -0.275 OA
ATOM     11  C   UNL     1       0.049  -2.553   2.614  0.00  0.00    +0.068 C 
ATOM     12  C   UNL     1       1.318  -3.353   2.911  0.00  0.00    +0.025 C 
ATOM     13  C   UNL     1      -1.197  -3.386   2.923  0.00  0.00    +0.025 C 
ATOM     14  H   UNL     1       0.019   0.684   2.776  0.00  0.00    +0.155 HD
ENDROOT
BRANCH   4  15
ATOM     15  C   UNL     1       0.027  -2.807  -2.530  0.00  0.00    +0.150 C 
BRANCH  15  16
ATOM     16  C   UNL     1       1.463  -2.928  -3.043  0.00  0.00    -0.008 C 
ATOM     17  C   UNL     1       2.306  -3.697  -2.024  0.00  0.00    +0.013 C 
ATOM     18  C   UNL     1       1.466  -3.677  -4.377  0.00  0.00    +0.013 C 
ATOM     19  C   UNL     1       2.053  -1.530  -3.242  0.00  0.00    +0.013 C 
ENDBRANCH  15  16
BRANCH  15  20
ATOM     20  O   UNL     1      -0.761  -2.088  -3.481  0.00  0.00    -0.387 OA
ATOM     21  H   UNL     1      -0.444  -1.192  -3.657  0.00  0.00    +0.210 HD
ENDBRANCH  15  20
ENDBRANCH   4  15
TORSDOF 3
