REMARK  Name = ZINC01165251
REMARK  3 active torsions:
REMARK  status: ('A' for Active; 'I' for Inactive)
REMARK    1  A    between atoms: C_1  and  C_2
REMARK    2  A    between atoms: C_5  and  C_7
REMARK    3  A    between atoms: C_17  and  C_20
REMARK                            x       y       z     vdW  Elec       q    Type
REMARK                         _______ _______ _______ _____ _____    ______ ____
ROOT
ATOM      1  C   UNL     1      -0.883  -3.948  -0.010  0.00  0.00    +0.066 C 
ATOM      2  C   UNL     1      -0.442  -2.677   0.210  0.00  0.00    +0.082 C 
ATOM      3  C   UNL     1       0.907  -2.192   0.570  0.00  0.00    +0.276 C 
ATOM      4  O   UNL     1       1.847  -2.956   0.719  0.00  0.00    -0.267 OA
ATOM      5  N   UNL     1       1.041  -0.891   0.717  0.00  0.00    -0.154 NA
ATOM      6  C   UNL     1       0.029  -0.052   0.565  0.00  0.00    +0.154 C 
ATOM      7  S   UNL     1      -1.334  -1.128   0.146  0.00  0.00    -0.051 S 
ATOM      8  N   UNL     1       0.028   1.313   0.691  0.00  0.00    -0.311 N 
ATOM      9  C   UNL     1      -1.203   2.084   0.469  0.00  0.00    +0.107 C 
ATOM     10  C   UNL     1      -0.926   3.176  -0.563  0.00  0.00    +0.032 C 
ATOM     11  C   UNL     1       0.269   4.016  -0.106  0.00  0.00    +0.078 C 
ATOM     12  C   UNL     1       1.509   3.125   0.002  0.00  0.00    +0.032 C 
ATOM     13  C   UNL     1       1.258   2.033   1.046  0.00  0.00    +0.107 C 
ENDROOT
BRANCH   1  18
ATOM     14  C   UNL     1       3.423  -6.387  -0.339  0.00  0.00    +0.086 C 
ATOM     15  C   UNL     1       1.944  -6.102  -0.279  0.00  0.00    +0.103 A 
ATOM     16  C   UNL     1       0.963  -7.030  -0.344  0.00  0.00    +0.045 A 
ATOM     17  C   UNL     1      -0.260  -6.349  -0.245  0.00  0.00    +0.049 A 
ATOM     18  C   UNL     1       0.046  -5.007  -0.132  0.00  0.00    +0.129 A 
ATOM     19  O   UNL     1       1.390  -4.888  -0.151  0.00  0.00    -0.461 OA
ENDBRANCH   1  18
BRANCH  11  20
ATOM     20  C   UNL     1       0.523   5.112  -1.108  0.00  0.00    +0.214 C 
ATOM     21  O   UNL     1       1.591   5.175  -1.680  0.00  0.00    -0.276 OA
ATOM     22  N   UNL     1      -0.435   6.023  -1.369  0.00  0.00    -0.329 N 
ATOM     23  H   UNL     1      -1.289   5.972  -0.912  0.00  0.00    +0.145 HD
ATOM     24  H   UNL     1      -0.271   6.729  -2.014  0.00  0.00    +0.145 HD
ENDBRANCH  11  20
TORSDOF 2
