REMARK  Name = ZINC00759153
REMARK  6 active torsions:
REMARK  status: ('A' for Active; 'I' for Inactive)
REMARK    1  A    between atoms: C_1  and  C_2
REMARK    2  A    between atoms: C_3  and  C_17
REMARK    3  A    between atoms: C_4  and  C_10
REMARK    4  A    between atoms: C_17  and  O_19
REMARK    5  A    between atoms: O_19  and  C_20
REMARK    6  A    between atoms: C_20  and  C_21
REMARK                            x       y       z     vdW  Elec       q    Type
REMARK                         _______ _______ _______ _____ _____    ______ ____
ROOT
ATOM      1  C   UNL     1       1.095   0.772  -7.323  0.00  0.00    +0.061 C 
ATOM      2  C   UNL     1      -0.151   1.615  -7.237  0.00  0.00    +0.021 C 
ATOM      3  C   UNL     1      -0.828   1.683  -6.071  0.00  0.00    +0.078 C 
ATOM      4  C   UNL     1      -2.079   2.537  -6.030  0.00  0.00    +0.144 C 
ATOM      5  N   UNL     1      -2.450   3.236  -7.272  0.00  0.00    -0.288 N 
ATOM      6  C   UNL     1      -1.672   3.069  -8.359  0.00  0.00    +0.304 C 
ATOM      7  O   UNL     1      -1.973   3.637  -9.391  0.00  0.00    -0.252 OA
ATOM      8  N   UNL     1      -0.578   2.297  -8.341  0.00  0.00    -0.273 N 
ATOM      9  H   UNL     1      -3.344   3.877  -7.296  0.00  0.00    +0.151 HD
ATOM     10  H   UNL     1      -0.013   2.229  -9.282  0.00  0.00    +0.156 HD
ENDROOT
BRANCH   4  11
ATOM     11  C   UNL     1      -1.897   3.576  -4.954  0.00  0.00    -0.021 A 
ATOM     12  C   UNL     1      -2.479   3.394  -3.712  0.00  0.00    +0.006 A 
ATOM     13  C   UNL     1      -2.312   4.347  -2.725  0.00  0.00    +0.001 A 
ATOM     14  C   UNL     1      -1.565   5.482  -2.977  0.00  0.00    +0.015 A 
ATOM     15  C   UNL     1      -0.982   5.664  -4.219  0.00  0.00    +0.018 A 
ATOM     16  C   UNL     1      -1.145   4.708  -5.205  0.00  0.00    +0.021 A 
ATOM     17 BR   UNL     1       0.041   7.216  -4.565  0.00  0.00    -0.050 Br
ENDBRANCH   4  11
BRANCH   3  18
ATOM     18  C   UNL     1      -0.387   0.977  -4.927  0.00  0.00    +0.339 C 
ATOM     19  O   UNL     1       0.647   0.337  -4.968  0.00  0.00    -0.245 OA
BRANCH  18  20
ATOM     20  O   UNL     1      -1.114   1.012  -3.791  0.00  0.00    -0.461 OA
BRANCH  20  21
ATOM     21  C   UNL     1      -0.609   0.276  -2.675  0.00  0.00    +0.236 C 
BRANCH  21  22
ATOM     22  C   UNL     1      -1.560   0.434  -1.487  0.00  0.00    +0.027 C 
ATOM     23  C   UNL     1      -0.959  -0.250  -0.258  0.00  0.00    +0.007 C 
ATOM     24  C   UNL     1      -1.910  -0.091   0.930  0.00  0.00    +0.000 C 
ATOM     25  C   UNL     1      -3.257  -0.736   0.595  0.00  0.00    +0.000 C 
ATOM     26  C   UNL     1      -3.858  -0.052  -0.634  0.00  0.00    +0.000 C 
ATOM     27  C   UNL     1      -2.906  -0.211  -1.822  0.00  0.00    +0.007 C 
ENDBRANCH  21  22
ENDBRANCH  20  21
ENDBRANCH  18  20
ENDBRANCH   3  18
TORSDOF 5
