REMARK  Name = ZINC40797324
REMARK  5 active torsions:
REMARK  status: ('A' for Active; 'I' for Inactive)
REMARK    1  A    between atoms: C_3  and  N_8
REMARK    2  A    between atoms: C_10  and  N_24
REMARK    3  A    between atoms: C_11  and  N_15
REMARK    4  A    between atoms: N_15  and  C_16
REMARK    5  A    between atoms: C_16  and  C_17
REMARK                            x       y       z     vdW  Elec       q    Type
REMARK                         _______ _______ _______ _____ _____    ______ ____
ROOT
ATOM      1  N   UNL     1       3.583   2.124  -0.021  0.00  0.00    -0.298 N 
ATOM      2  C   UNL     1       4.794   1.448   0.069  0.00  0.00    +0.149 A 
ATOM      3  C   UNL     1       5.994   2.154   0.172  0.00  0.00    +0.105 A 
ATOM      4  C   UNL     1       7.182   1.425   0.260  0.00  0.00    +0.145 A 
ATOM      5  N   UNL     1       7.126   0.096   0.242  0.00  0.00    -0.219 NA
ATOM      6  C   UNL     1       5.972  -0.532   0.143  0.00  0.00    +0.225 A 
ATOM      7  N   UNL     1       4.828   0.117   0.063  0.00  0.00    -0.219 NA
ATOM      8  H   UNL     1       3.571   3.091  -0.094  0.00  0.00    +0.154 HD
ENDROOT
BRANCH   1  11
ATOM      9  C   UNL     1       1.088  -0.465   0.744  0.00  0.00    +0.003 A 
ATOM     10  C   UNL     1       2.277   0.238   0.732  0.00  0.00    +0.023 A 
ATOM     11  C   UNL     1       2.381   1.410  -0.007  0.00  0.00    +0.033 A 
ATOM     12  C   UNL     1       1.289   1.871  -0.730  0.00  0.00    +0.038 A 
ATOM     13  C   UNL     1       0.102   1.163  -0.713  0.00  0.00    +0.020 A 
ATOM     14  C   UNL     1       0.002  -0.004   0.024  0.00  0.00    +0.015 A 
ATOM     15 BR   UNL     1      -1.386   1.790  -1.697  0.00  0.00    -0.050 Br
ENDBRANCH   1  11
BRANCH   3  16
ATOM     16  N   UNL     1       6.006   3.558   0.187  0.00  0.00    -0.353 N 
ATOM     17  H   UNL     1       5.173   4.050   0.125  0.00  0.00    +0.143 HD
ATOM     18  H   UNL     1       6.847   4.035   0.259  0.00  0.00    +0.143 HD
ENDBRANCH   3  16
BRANCH   4  19
ATOM     19  N   UNL     1       8.404   2.079   0.364  0.00  0.00    -0.323 N 
ATOM     20  H   UNL     1       8.436   3.048   0.376  0.00  0.00    +0.148 HD
BRANCH  19  21
ATOM     21  C   UNL     1       9.644   1.303   0.456  0.00  0.00    +0.138 C 
BRANCH  21  22
ATOM     22  C   UNL     1      10.818   2.243   0.559  0.00  0.00    -0.030 A 
ATOM     23  C   UNL     1      11.447   2.690  -0.588  0.00  0.00    +0.008 A 
ATOM     24  C   UNL     1      12.524   3.552  -0.494  0.00  0.00    +0.038 A 
ATOM     25  C   UNL     1      12.971   3.968   0.748  0.00  0.00    +0.123 A 
ATOM     26  C   UNL     1      12.339   3.520   1.896  0.00  0.00    +0.038 A 
ATOM     27  C   UNL     1      11.260   2.662   1.800  0.00  0.00    +0.008 A 
ATOM     28  F   UNL     1      14.023   4.810   0.841  0.00  0.00    -0.205 F 
ENDBRANCH  21  22
ENDBRANCH  19  21
ENDBRANCH   4  19
TORSDOF 5
