REMARK  Name = ZINC04125126
REMARK  5 active torsions:
REMARK  status: ('A' for Active; 'I' for Inactive)
REMARK    1  A    between atoms: C_1  and  C_2
REMARK    2  A    between atoms: C_6  and  O_28
REMARK    3  A    between atoms: C_10  and  O_27
REMARK    4  A    between atoms: C_13  and  C_26
REMARK    5  A    between atoms: C_22  and  C_25
REMARK                            x       y       z     vdW  Elec       q    Type
REMARK                         _______ _______ _______ _____ _____    ______ ____
ROOT
ATOM      1  C   UNL     1      -0.019   1.526   0.010  0.00  0.00    +0.007 C 
ATOM      2  C   UNL     1       0.002  -0.004   0.002  0.00  0.00    -0.013 C 
ATOM      3  C   UNL     1      -1.433  -0.534   0.014  0.00  0.00    +0.008 C 
ATOM      4  C   UNL     1      -1.409  -2.064  -0.002  0.00  0.00    +0.065 C 
ATOM      5  C   UNL     1      -0.665  -2.579   1.230  0.00  0.00    +0.173 C 
ATOM      6  C   UNL     1       0.768  -2.041   1.232  0.00  0.00    +0.080 C 
ATOM      7  C   UNL     1       0.741  -0.511   1.242  0.00  0.00    +0.015 C 
ATOM      8  C   UNL     1       1.479  -2.539   2.494  0.00  0.00    +0.079 C 
ATOM      9  C   UNL     1       2.893  -1.961   2.562  0.00  0.00    +0.036 C 
ATOM     10  C   UNL     1       3.584  -2.468   3.830  0.00  0.00    +0.006 C 
ATOM     11  C   UNL     1       2.789  -2.030   5.061  0.00  0.00    -0.014 C 
ATOM     12  C   UNL     1       1.369  -2.596   4.987  0.00  0.00    +0.012 C 
ATOM     13  C   UNL     1       0.686  -2.077   3.721  0.00  0.00    +0.053 C 
ATOM     14  C   UNL     1      -0.739  -2.624   3.628  0.00  0.00    +0.078 C 
ATOM     15  O   UNL     1      -1.341  -2.163   2.416  0.00  0.00    -0.342 OA
ATOM     16  C   UNL     1      -0.700  -4.153   3.629  0.00  0.00    +0.036 C 
ATOM     17  C   UNL     1      -2.126  -4.700   3.534  0.00  0.00    +0.006 C 
ATOM     18  C   UNL     1      -2.940  -4.210   4.733  0.00  0.00    -0.014 C 
ATOM     19  C   UNL     1      -2.981  -2.680   4.730  0.00  0.00    +0.006 C 
ATOM     20  C   UNL     1      -1.556  -2.132   4.824  0.00  0.00    +0.036 C 
ATOM     21  C   UNL     1      -4.366  -4.758   4.640  0.00  0.00    +0.007 C 
ATOM     22  C   UNL     1       2.725  -0.502   5.108  0.00  0.00    +0.007 C 
ENDROOT
BRANCH   8  23
ATOM     23  O   UNL     1       1.542  -3.967   2.475  0.00  0.00    -0.388 OA
ATOM     24  H   UNL     1       2.020  -4.330   1.717  0.00  0.00    +0.210 HD
ENDBRANCH   8  23
BRANCH   5  25
ATOM     25  O   UNL     1      -0.618  -4.007   1.190  0.00  0.00    -0.364 OA
ATOM     26  H   UNL     1      -1.488  -4.428   1.183  0.00  0.00    +0.213 HD
ENDBRANCH   5  25
TORSDOF 2
