REMARK  Name = ZINC35737379
REMARK  5 active torsions:
REMARK  status: ('A' for Active; 'I' for Inactive)
REMARK    1  A    between atoms: C_1  and  N_2
REMARK    2  A    between atoms: C_4  and  N_7
REMARK    3  A    between atoms: N_7  and  S_8
REMARK    4  A    between atoms: S_8  and  C_11
REMARK    5  A    between atoms: C_13  and  N_18
REMARK                            x       y       z     vdW  Elec       q    Type
REMARK                         _______ _______ _______ _____ _____    ______ ____
ROOT
ATOM      1  S   UNL     1       1.048  -4.462  -1.043  0.00  0.00    +0.074 S 
ATOM      2  O   UNL     1       0.993  -5.528  -1.981  0.00  0.00    -0.150 OA
ATOM      3  O   UNL     1       2.255  -3.775  -0.741  0.00  0.00    -0.150 OA
ENDROOT
BRANCH   1   4
ATOM      4  C   UNL     1       0.436  -5.099   0.481  0.00  0.00    +0.128 A 
ATOM      5  C   UNL     1       0.058  -6.425   0.572  0.00  0.00    +0.053 A 
ATOM      6  C   UNL     1      -0.424  -6.927   1.774  0.00  0.00    +0.027 A 
ATOM      7  C   UNL     1      -0.525  -6.094   2.881  0.00  0.00    +0.024 A 
ATOM      8  C   UNL     1      -0.146  -4.769   2.784  0.00  0.00    +0.024 A 
ATOM      9  C   UNL     1       0.339  -4.273   1.587  0.00  0.00    +0.068 A 
ATOM     10 CL   UNL     1       0.821  -2.609   1.470  0.00  0.00    -0.082 Cl
BRANCH   6  11
ATOM     11  N   UNL     1      -0.807  -8.267   1.869  0.00  0.00    -0.358 N 
ATOM     12  H   UNL     1      -0.737  -8.848   1.095  0.00  0.00    +0.142 HD
ATOM     13  H   UNL     1      -1.144  -8.617   2.709  0.00  0.00    +0.142 HD
ENDBRANCH   6  11
ENDBRANCH   1   4
BRANCH   1  14
ATOM     14  N   UNL     1      -0.029  -3.317  -1.563  0.00  0.00    -0.213 N 
ATOM     15  H   UNL     1       0.251  -2.393  -1.655  0.00  0.00    +0.174 HD
BRANCH  14  19
ATOM     16  C   UNL     1      -4.951  -3.344  -1.822  0.00  0.00    +0.172 C 
ATOM     17  N   UNL     1      -3.541  -3.704  -1.992  0.00  0.00    -0.273 N 
ATOM     18  C   UNL     1      -2.476  -3.026  -1.490  0.00  0.00    +0.132 A 
ATOM     19  C   UNL     1      -1.353  -3.685  -1.872  0.00  0.00    +0.085 A 
ATOM     20  C   UNL     1      -1.745  -4.798  -2.629  0.00  0.00    +0.158 A 
ATOM     21  N   UNL     1      -3.052  -4.813  -2.695  0.00  0.00    -0.178 NA
ENDBRANCH  14  19
ENDBRANCH   1  14
TORSDOF 4
