REMARK  Name = ZINC54492801
REMARK  3 active torsions:
REMARK  status: ('A' for Active; 'I' for Inactive)
REMARK    1  A    between atoms: N_3  and  C_10
REMARK    2  A    between atoms: C_6  and  C_7
REMARK    3  A    between atoms: C_17  and  N_19
REMARK                            x       y       z     vdW  Elec       q    Type
REMARK                         _______ _______ _______ _____ _____    ______ ____
ROOT
ATOM      1  C   UNL     1      -0.078   1.736   0.112  0.00  0.00    +0.028 C 
ATOM      2  C   UNL     1       1.372   2.223   0.065  0.00  0.00    +0.085 C 
ATOM      3  N   UNL     1       2.057   1.615  -1.083  0.00  0.00    -0.296 NA
ATOM      4  C   UNL     1       2.095   0.151  -0.965  0.00  0.00    +0.085 C 
ATOM      5  C   UNL     1       0.666  -0.397  -0.949  0.00  0.00    +0.028 C 
ATOM      6  C   UNL     1      -0.095   0.209   0.233  0.00  0.00    +0.077 C 
ENDROOT
BRANCH   3   7
ATOM      7  C   UNL     1       3.410   2.165  -1.241  0.00  0.00    +0.096 C 
ATOM      8  C   UNL     1       4.130   1.433  -2.408  0.00  0.00    +0.186 C 
ATOM      9  S   UNL     1       5.440   2.677  -2.789  0.00  0.00    -0.028 S 
ATOM     10  O   UNL     1       5.711   2.658  -4.184  0.00  0.00    -0.174 OA
ATOM     11  O   UNL     1       6.508   2.530  -1.864  0.00  0.00    -0.174 OA
ATOM     12  C   UNL     1       4.487   4.198  -2.379  0.00  0.00    +0.186 C 
ATOM     13  C   UNL     1       3.316   3.662  -1.534  0.00  0.00    +0.091 C 
BRANCH  13  14
ATOM     14  N   UNL     1       2.060   3.923  -2.250  0.00  0.00    -0.325 NA
ATOM     15  H   UNL     1       1.975   4.901  -2.486  0.00  0.00    +0.119 HD
ATOM     16  H   UNL     1       1.986   3.345  -3.073  0.00  0.00    +0.119 HD
ENDBRANCH  13  14
ENDBRANCH   3   7
BRANCH   6  17
ATOM     17  C   UNL     1      -1.520  -0.281   0.220  0.00  0.00    +0.214 C 
ATOM     18  O   UNL     1      -2.433   0.511   0.123  0.00  0.00    -0.276 OA
ATOM     19  N   UNL     1      -1.780  -1.600   0.316  0.00  0.00    -0.329 N 
ATOM     20  H   UNL     1      -1.049  -2.234   0.393  0.00  0.00    +0.145 HD
ATOM     21  H   UNL     1      -2.697  -1.915   0.307  0.00  0.00    +0.145 HD
ENDBRANCH   6  17
TORSDOF 3
