REMARK  Name = ZINC12548616
REMARK  6 active torsions:
REMARK  status: ('A' for Active; 'I' for Inactive)
REMARK    1  A    between atoms: C_3  and  S_6
REMARK    2  A    between atoms: S_6  and  N_9
REMARK    3  A    between atoms: N_9  and  C_10
REMARK    4  A    between atoms: C_13  and  C_16
REMARK    5  A    between atoms: N_18  and  N_19
REMARK    6  A    between atoms: C_20  and  C_22
REMARK                            x       y       z     vdW  Elec       q    Type
REMARK                         _______ _______ _______ _____ _____    ______ ____
ROOT
ATOM      1  C   UNL     1      -4.782  -0.660  -0.012  0.00  0.00    +0.048 A 
ATOM      2  C   UNL     1      -4.682   0.728   0.024  0.00  0.00    +0.025 A 
ATOM      3  C   UNL     1      -3.445   1.331  -0.013  0.00  0.00    +0.015 A 
ATOM      4  C   UNL     1      -2.289   0.548  -0.087  0.00  0.00    +0.038 A 
ATOM      5  C   UNL     1      -2.394  -0.845  -0.129  0.00  0.00    +0.015 A 
ATOM      6  C   UNL     1      -3.633  -1.442  -0.085  0.00  0.00    +0.025 A 
ENDROOT
BRANCH   4   7
ATOM      7  C   UNL     1      -0.962   1.191  -0.127  0.00  0.00    +0.260 C 
ATOM      8  O   UNL     1      -0.873   2.404  -0.095  0.00  0.00    -0.269 OA
ATOM      9  N   UNL     1       0.151   0.435  -0.198  0.00  0.00    -0.230 N 
ATOM     10  H   UNL     1       0.080  -0.532  -0.223  0.00  0.00    +0.173 HD
BRANCH   9  11
ATOM     11  N   UNL     1       1.411   1.046  -0.241  0.00  0.00    -0.230 N 
ATOM     12  C   UNL     1       2.524   0.290  -0.318  0.00  0.00    +0.262 C 
ATOM     13  O   UNL     1       2.435  -0.923  -0.350  0.00  0.00    -0.269 OA
ATOM     14  H   UNL     1       1.482   2.013  -0.216  0.00  0.00    +0.173 HD
BRANCH  12  15
ATOM     15  C   UNL     1       3.847   0.931  -0.364  0.00  0.00    +0.065 A 
ATOM     16  C   UNL     1       3.990   2.366  -0.329  0.00  0.00    +0.042 A 
ATOM     17  C   UNL     1       5.245   2.858  -0.375  0.00  0.00    +0.080 A 
ATOM     18  S   UNL     1       6.251   1.391  -0.468  0.00  0.00    -0.064 S 
ATOM     19  C   UNL     1       5.008   0.187  -0.437  0.00  0.00    +0.092 A 
ATOM     20 CL   UNL     1       5.179  -1.540  -0.488  0.00  0.00    -0.075 Cl
ATOM     21 CL   UNL     1       5.755   4.517  -0.351  0.00  0.00    -0.076 Cl
ENDBRANCH  12  15
ENDBRANCH   9  11
ENDBRANCH   4   7
BRANCH   1  22
ATOM     22  N   UNL     1      -6.033  -1.266   0.026  0.00  0.00    -0.216 N 
ATOM     23  H   UNL     1      -6.340  -1.695   0.840  0.00  0.00    +0.174 HD
BRANCH  22  24
ATOM     24  S   UNL     1      -6.999  -1.256  -1.319  0.00  0.00    +0.079 S 
ATOM     25  O   UNL     1      -8.172  -1.983  -0.982  0.00  0.00    -0.149 OA
ATOM     26  O   UNL     1      -7.042   0.088  -1.778  0.00  0.00    -0.149 OA
BRANCH  24  29
ATOM     27  C   UNL     1      -5.545  -4.019  -3.912  0.00  0.00    +0.010 A 
ATOM     28  C   UNL     1      -6.310  -3.496  -2.886  0.00  0.00    +0.036 A 
ATOM     29  C   UNL     1      -6.169  -2.187  -2.563  0.00  0.00    +0.146 A 
ATOM     30  S   UNL     1      -4.931  -1.650  -3.732  0.00  0.00    -0.077 S 
ATOM     31  C   UNL     1      -4.678  -3.208  -4.565  0.00  0.00    +0.047 A 
ENDBRANCH  24  29
ENDBRANCH  22  24
ENDBRANCH   1  22
TORSDOF 6
