REMARK  Name = ZINC09252856
REMARK  9 active torsions:
REMARK  status: ('A' for Active; 'I' for Inactive)
REMARK    1  A    between atoms: C_1  and  C_2
REMARK    2  A    between atoms: C_6  and  O_8
REMARK    3  A    between atoms: O_8  and  C_9
REMARK    4  A    between atoms: C_9  and  C_10
REMARK    5  A    between atoms: N_12  and  N_13
REMARK    6  A    between atoms: C_14  and  C_16
REMARK    7  A    between atoms: C_16  and  C_17
REMARK    8  A    between atoms: C_17  and  C_19
REMARK    9  A    between atoms: C_17  and  N_26
REMARK                            x       y       z     vdW  Elec       q    Type
REMARK                         _______ _______ _______ _____ _____    ______ ____
ROOT
ATOM      1  N   UNL     1      -5.111  -2.865  -0.045  0.00  0.00    -0.234 N 
ATOM      2  C   UNL     1      -5.282  -4.201  -0.006  0.00  0.00    +0.231 C 
ATOM      3  O   UNL     1      -4.324  -4.931   0.142  0.00  0.00    -0.274 OA
ATOM      4  H   UNL     1      -5.876  -2.281  -0.164  0.00  0.00    +0.173 HD
ENDROOT
BRANCH   1   7
ATOM      5  C   UNL     1      -3.656  -0.982   0.049  0.00  0.00    +0.267 C 
ATOM      6  O   UNL     1      -4.614  -0.252  -0.100  0.00  0.00    -0.271 OA
ATOM      7  N   UNL     1      -3.827  -2.318   0.087  0.00  0.00    -0.232 N 
ATOM      8  H   UNL     1      -3.062  -2.902   0.207  0.00  0.00    +0.173 HD
BRANCH   5   9
ATOM      9  C   UNL     1      -2.276  -0.395   0.191  0.00  0.00    +0.326 C 
BRANCH   9  10
ATOM     10  O   UNL     1      -2.355   1.030   0.119  0.00  0.00    -0.483 OA
BRANCH  10  16
ATOM     11  C   UNL     1      -0.008   5.309   0.213  0.00  0.00    +0.044 C 
ATOM     12  C   UNL     1      -0.005   3.803   0.281  0.00  0.00    -0.047 A 
ATOM     13  C   UNL     1       1.186   3.121   0.451  0.00  0.00    +0.003 A 
ATOM     14  C   UNL     1       1.192   1.740   0.513  0.00  0.00    +0.004 A 
ATOM     15  C   UNL     1       0.007   1.038   0.406  0.00  0.00    +0.045 A 
ATOM     16  C   UNL     1      -1.189   1.719   0.230  0.00  0.00    +0.121 A 
ATOM     17  C   UNL     1      -1.192   3.106   0.173  0.00  0.00    +0.049 A 
ENDBRANCH  10  16
ENDBRANCH   9  10
ENDBRANCH   5   9
ENDBRANCH   1   7
BRANCH   2  18
ATOM     18  C   UNL     1      -6.662  -4.788  -0.149  0.00  0.00    +0.124 C 
BRANCH  18  19
ATOM     19  C   UNL     1      -6.578  -6.314  -0.071  0.00  0.00    +0.115 C 
BRANCH  19  20
ATOM     20  C   UNL     1      -7.968  -6.896  -0.089  0.00  0.00    -0.008 A 
ATOM     21  C   UNL     1      -9.041  -6.110  -0.465  0.00  0.00    +0.007 A 
ATOM     22  C   UNL     1     -10.316  -6.644  -0.486  0.00  0.00    +0.000 A 
ATOM     23  C   UNL     1     -10.519  -7.963  -0.123  0.00  0.00    +0.001 A 
ATOM     24  C   UNL     1      -9.447  -8.748   0.258  0.00  0.00    +0.020 A 
ATOM     25  C   UNL     1      -8.171  -8.215   0.275  0.00  0.00    +0.046 A 
ATOM     26 CL   UNL     1      -6.824  -9.200   0.753  0.00  0.00    -0.083 Cl
ENDBRANCH  19  20
BRANCH  19  27
ATOM     27  N   UNL     1      -5.821  -6.820  -1.218  0.00  0.00    -0.292 N 
ATOM     28  C   UNL     1      -6.302  -6.660  -2.467  0.00  0.00    +0.298 C 
ATOM     29  O   UNL     1      -7.317  -6.016  -2.649  0.00  0.00    -0.253 OA
ATOM     30  N   UNL     1      -5.659  -7.213  -3.514  0.00  0.00    -0.313 N 
ATOM     31  H   UNL     1      -4.973  -7.271  -1.080  0.00  0.00    +0.151 HD
ATOM     32  H   UNL     1      -4.849  -7.727  -3.369  0.00  0.00    +0.146 HD
ATOM     33  H   UNL     1      -6.005  -7.098  -4.412  0.00  0.00    +0.146 HD
ENDBRANCH  19  27
ENDBRANCH  18  19
ENDBRANCH   2  18
TORSDOF 8
