REMARK  Name = ZINC40817251
REMARK  3 active torsions:
REMARK  status: ('A' for Active; 'I' for Inactive)
REMARK    1  A    between atoms: C_4  and  N_25
REMARK    2  A    between atoms: C_5  and  C_7
REMARK    3  A    between atoms: C_13  and  C_16
REMARK                            x       y       z     vdW  Elec       q    Type
REMARK                         _______ _______ _______ _____ _____    ______ ____
ROOT
ATOM      1  C   UNL     1       1.244  -2.147  -0.034  0.00  0.00    +0.248 C 
ATOM      2  O   UNL     1       2.300  -2.743   0.061  0.00  0.00    -0.270 OA
ATOM      3  N   UNL     1       0.090  -2.835  -0.138  0.00  0.00    -0.297 N 
ATOM      4  C   UNL     1      -1.183  -2.132  -0.352  0.00  0.00    +0.108 C 
ATOM      5  C   UNL     1      -2.176  -2.572   0.729  0.00  0.00    +0.020 C 
ATOM      6  C   UNL     1      -2.291  -4.098   0.720  0.00  0.00    +0.014 C 
ATOM      7  C   UNL     1      -0.928  -4.716   1.038  0.00  0.00    +0.075 C 
ATOM      8  C   UNL     1       0.081  -4.301  -0.045  0.00  0.00    +0.119 C 
ENDROOT
BRANCH   7   9
ATOM      9  C   UNL     1      -1.049  -6.218   1.062  0.00  0.00    +0.142 A 
ATOM     10  N   UNL     1      -1.425  -6.979   0.067  0.00  0.00    -0.133 NA
ATOM     11  N   UNL     1      -1.419  -8.215   0.424  0.00  0.00    -0.129 NA
ATOM     12  C   UNL     1      -1.033  -8.308   1.686  0.00  0.00    +0.161 A 
ATOM     13  N   UNL     1      -0.782  -7.029   2.120  0.00  0.00    -0.286 N 
ATOM     14  C   UNL     1      -0.356  -6.804   3.396  0.00  0.00    +0.094 A 
ATOM     15  C   UNL     1      -0.173  -7.833   4.250  0.00  0.00    +0.018 A 
ATOM     16  C   UNL     1      -0.419  -9.153   3.834  0.00  0.00    +0.005 A 
ATOM     17  C   UNL     1      -0.851  -9.392   2.566  0.00  0.00    +0.048 A 
ENDBRANCH   7   9
BRANCH   1  22
ATOM     18  C   UNL     1       0.606   1.399  -1.080  0.00  0.00    +0.001 A 
ATOM     19  C   UNL     1       1.195   2.102  -0.040  0.00  0.00    +0.002 A 
ATOM     20  C   UNL     1       1.800   1.431   1.002  0.00  0.00    +0.023 A 
ATOM     21  C   UNL     1       1.823   0.041   1.015  0.00  0.00    +0.037 A 
ATOM     22  C   UNL     1       1.227  -0.673  -0.035  0.00  0.00    +0.057 A 
ATOM     23  C   UNL     1       0.618   0.022  -1.084  0.00  0.00    +0.015 A 
BRANCH  21  24
ATOM     24  N   UNL     1       2.432  -0.637   2.063  0.00  0.00    -0.357 N 
ATOM     25  H   UNL     1       2.907  -0.143   2.750  0.00  0.00    +0.142 HD
ATOM     26  H   UNL     1       2.384  -1.605   2.108  0.00  0.00    +0.142 HD
ENDBRANCH  21  24
ENDBRANCH   1  22
TORSDOF 3
