REMARK  Name = ZINC52552913
REMARK  14 active torsions:
REMARK  status: ('A' for Active; 'I' for Inactive)
REMARK    1  A    between atoms: C_1  and  C_2
REMARK    2  A    between atoms: C_7  and  C_9
REMARK    3  A    between atoms: C_7  and  N_27
REMARK    4  A    between atoms: C_9  and  N_10
REMARK    5  A    between atoms: N_13  and  C_14
REMARK    6  A    between atoms: C_14  and  C_15
REMARK    7  A    between atoms: C_18  and  O_25
REMARK    8  A    between atoms: C_19  and  O_23
REMARK    9  A    between atoms: C_20  and  O_21
REMARK   10  A    between atoms: O_21  and  C_22
REMARK   11  A    between atoms: O_23  and  C_24
REMARK   12  A    between atoms: O_25  and  C_26
REMARK   13  A    between atoms: N_27  and  C_28
REMARK   14  A    between atoms: N_27  and  C_29
REMARK                            x       y       z     vdW  Elec       q    Type
REMARK                         _______ _______ _______ _____ _____    ______ ____
ROOT
ATOM      1  N   UNL     1       1.172  -3.642   1.825  0.00  0.00    -0.301 N 
ATOM      2  C   UNL     1       1.456  -4.336   2.945  0.00  0.00    +0.300 C 
ATOM      3  O   UNL     1       1.777  -3.747   3.959  0.00  0.00    -0.253 OA
ATOM      4  N   UNL     1       1.382  -5.681   2.942  0.00  0.00    -0.295 N 
ATOM      5  H   UNL     1       0.916  -4.112   1.016  0.00  0.00    +0.150 HD
ATOM      6  H   UNL     1       1.126  -6.151   2.133  0.00  0.00    +0.151 HD
ENDROOT
BRANCH   1   7
ATOM      7  C   UNL     1       1.252  -2.180   1.828  0.00  0.00    +0.094 C 
BRANCH   7  13
ATOM      8  C   UNL     1       0.741   1.929  -0.969  0.00  0.00    +0.007 C 
ATOM      9  C   UNL     1       0.793   0.400  -0.993  0.00  0.00    -0.015 C 
ATOM     10  C   UNL     1      -0.520  -0.147  -1.556  0.00  0.00    +0.003 C 
ATOM     11  C   UNL     1      -0.467  -1.675  -1.580  0.00  0.00    -0.001 C 
ATOM     12  C   UNL     1      -0.264  -2.201  -0.158  0.00  0.00    -0.010 C 
ATOM     13  C   UNL     1       1.049  -1.654   0.406  0.00  0.00    -0.050 C 
ATOM     14  C   UNL     1       0.996  -0.125   0.430  0.00  0.00    -0.007 C 
BRANCH  13  15
ATOM     15  N   UNL     1       2.166  -2.092  -0.442  0.00  0.00    +0.381 N 
ATOM     16  C   UNL     1       3.437  -1.693   0.177  0.00  0.00    -0.096 C 
ATOM     17  C   UNL     1       2.128  -3.554  -0.584  0.00  0.00    -0.096 C 
ATOM     18  H   UNL     1       2.085  -1.664  -1.352  0.00  0.00    -0.082 HD
ENDBRANCH  13  15
ENDBRANCH   7  13
ENDBRANCH   1   7
BRANCH   4  19
ATOM     19  C   UNL     1       1.690  -6.435   4.160  0.00  0.00    +0.145 C 
BRANCH  19  20
ATOM     20  C   UNL     1       1.534  -7.910   3.891  0.00  0.00    +0.015 A 
ATOM     21  C   UNL     1       0.382  -8.565   4.283  0.00  0.00    +0.012 A 
ATOM     22  C   UNL     1       0.234  -9.917   4.039  0.00  0.00    +0.050 A 
ATOM     23  C   UNL     1       1.242 -10.622   3.400  0.00  0.00    +0.165 A 
ATOM     24  C   UNL     1       2.402  -9.967   3.003  0.00  0.00    +0.204 A 
ATOM     25  C   UNL     1       2.545  -8.606   3.246  0.00  0.00    +0.170 A 
BRANCH  25  26
ATOM     26  O   UNL     1       3.675  -7.960   2.856  0.00  0.00    -0.491 OA
ATOM     27  C   UNL     1       4.753  -7.913   3.793  0.00  0.00    +0.277 C 
ENDBRANCH  25  26
BRANCH  24  28
ATOM     28  O   UNL     1       3.394 -10.656   2.375  0.00  0.00    -0.488 OA
ATOM     29  C   UNL     1       3.334 -10.723   0.949  0.00  0.00    +0.277 C 
ENDBRANCH  24  28
BRANCH  23  30
ATOM     30  O   UNL     1       1.096 -11.953   3.161  0.00  0.00    -0.491 OA
ATOM     31  C   UNL     1      -0.122 -12.560   3.596  0.00  0.00    +0.277 C 
ENDBRANCH  23  30
ENDBRANCH  19  20
ENDBRANCH   4  19
TORSDOF 8
