REMARK  Name = ZINC66968653
REMARK  8 active torsions:
REMARK  status: ('A' for Active; 'I' for Inactive)
REMARK    1  A    between atoms: C_1  and  C_2
REMARK    2  A    between atoms: C_2  and  C_3
REMARK    3  A    between atoms: C_3  and  N_4
REMARK    4  A    between atoms: C_10  and  N_13
REMARK    5  A    between atoms: N_13  and  C_14
REMARK    6  A    between atoms: C_14  and  C_16
REMARK    7  A    between atoms: C_14  and  C_17
REMARK    8  A    between atoms: N_19  and  C_20
REMARK                            x       y       z     vdW  Elec       q    Type
REMARK                         _______ _______ _______ _____ _____    ______ ____
ROOT
ATOM      1  N   UNL     1      -5.656  -2.877   1.013  0.00  0.00    -0.333 N 
ATOM      2  H   UNL     1      -5.540  -2.779   0.055  0.00  0.00    +0.147 HD
ENDROOT
BRANCH   1   9
ATOM      3  N   UNL     1      -1.414  -1.976   0.016  0.00  0.00    +0.385 N 
ATOM      4  C   UNL     1      -0.933  -2.486   1.321  0.00  0.00    -0.042 C 
ATOM      5  C   UNL     1      -2.172  -2.674   2.167  0.00  0.00    -0.061 A 
ATOM      6  C   UNL     1      -2.341  -2.814   3.532  0.00  0.00    +0.002 A 
ATOM      7  C   UNL     1      -3.608  -2.974   4.063  0.00  0.00    +0.002 A 
ATOM      8  C   UNL     1      -4.710  -2.996   3.230  0.00  0.00    +0.023 A 
ATOM      9  C   UNL     1      -4.544  -2.855   1.858  0.00  0.00    +0.029 A 
ATOM     10  C   UNL     1      -3.271  -2.694   1.328  0.00  0.00    -0.042 A 
ATOM     11  C   UNL     1      -2.786  -2.520  -0.093  0.00  0.00    -0.040 C 
ATOM     12  H   UNL     1      -0.835  -2.321  -0.735  0.00  0.00    -0.081 HD
BRANCH   3  13
ATOM     13  C   UNL     1      -1.440  -0.507   0.014  0.00  0.00    -0.078 C 
BRANCH  13  15
ATOM     14  C   UNL     1      -0.034   1.558   0.001  0.00  0.00    +0.002 C 
ATOM     15  C   UNL     1      -0.006   0.028   0.003  0.00  0.00    -0.022 C 
ENDBRANCH  13  15
ENDBRANCH   3  13
ENDBRANCH   1   9
BRANCH   1  16
ATOM     16  C   UNL     1      -6.999  -3.048   1.574  0.00  0.00    +0.154 C 
ATOM     17  C   UNL     1      -7.290  -4.539   1.754  0.00  0.00    +0.038 C 
BRANCH  16  18
ATOM     18  C   UNL     1      -8.015  -2.447   0.637  0.00  0.00    +0.237 C 
ATOM     19  O   UNL     1      -7.653  -1.927  -0.398  0.00  0.00    -0.273 OA
ATOM     20  N   UNL     1      -9.325  -2.487   0.948  0.00  0.00    -0.282 N 
ATOM     21  H   UNL     1      -9.623  -2.972   1.734  0.00  0.00    +0.155 HD
BRANCH  20  22
ATOM     22  C   UNL     1     -10.258  -1.829   0.137  0.00  0.00    +0.069 A 
ATOM     23  C   UNL     1      -9.864  -0.751  -0.643  0.00  0.00    +0.026 A 
ATOM     24  C   UNL     1     -10.786  -0.104  -1.443  0.00  0.00    +0.002 A 
ATOM     25  C   UNL     1     -12.102  -0.528  -1.466  0.00  0.00    +0.003 A 
ATOM     26  C   UNL     1     -12.500  -1.601  -0.690  0.00  0.00    +0.040 A 
ATOM     27  C   UNL     1     -11.581  -2.257   0.108  0.00  0.00    +0.144 A 
ATOM     28  F   UNL     1     -11.969  -3.309   0.862  0.00  0.00    -0.204 F 
ENDBRANCH  20  22
ENDBRANCH  16  18
ENDBRANCH   1  16
TORSDOF 6
