REMARK  Name = ZINC06607110
REMARK  4 active torsions:
REMARK  status: ('A' for Active; 'I' for Inactive)
REMARK    1  A    between atoms: C_3  and  N_9
REMARK    2  A    between atoms: C_10  and  C_12
REMARK    3  A    between atoms: C_12  and  S_13
REMARK    4  A    between atoms: S_13  and  C_14
REMARK                            x       y       z     vdW  Elec       q    Type
REMARK                         _______ _______ _______ _____ _____    ______ ____
ROOT
ATOM      1  N   UNL     1       3.584   2.127  -0.021  0.00  0.00    -0.284 N 
ATOM      2  C   UNL     1       3.568   3.471  -0.116  0.00  0.00    +0.228 C 
ATOM      3  O   UNL     1       2.512   4.067  -0.103  0.00  0.00    -0.275 OA
ATOM      4  H   UNL     1       4.429   1.656   0.049  0.00  0.00    +0.155 HD
ENDROOT
BRANCH   1   7
ATOM      5  C   UNL     1       0.065   1.243  -0.620  0.00  0.00    +0.022 A 
ATOM      6  C   UNL     1       1.250   1.953  -0.618  0.00  0.00    +0.026 A 
ATOM      7  C   UNL     1       2.381   1.410  -0.024  0.00  0.00    +0.052 A 
ATOM      8  C   UNL     1       2.318   0.154   0.567  0.00  0.00    +0.064 A 
ATOM      9  C   UNL     1       1.129  -0.551   0.562  0.00  0.00    +0.041 A 
ATOM     10  C   UNL     1       0.004  -0.007  -0.031  0.00  0.00    +0.042 A 
ATOM     11 CL   UNL     1      -1.488  -0.895  -0.035  0.00  0.00    -0.083 Cl
ATOM     12 CL   UNL     1       3.730  -0.528   1.311  0.00  0.00    -0.082 Cl
ENDBRANCH   1   7
BRANCH   2  13
ATOM     13  C   UNL     1       4.862   4.234  -0.238  0.00  0.00    +0.173 C 
BRANCH  13  14
ATOM     14  S   UNL     1       4.509   6.010  -0.346  0.00  0.00    -0.075 S 
BRANCH  14  15
ATOM     15  C   UNL     1       6.101   6.753  -0.483  0.00  0.00    +0.210 A 
ATOM     16  N   UNL     1       6.341   8.066  -0.583  0.00  0.00    -0.188 NA
ATOM     17  C   UNL     1       7.637   8.274  -0.668  0.00  0.00    +0.209 A 
ATOM     18  N   UNL     1       8.256   7.075  -0.621  0.00  0.00    -0.246 N 
ATOM     19  H   UNL     1       9.211   6.913  -0.662  0.00  0.00    +0.192 HD
ATOM     20  N   UNL     1       7.244   6.110  -0.497  0.00  0.00    -0.144 NA
ATOM     21  N   UNL     1       8.257   9.505  -0.784  0.00  0.00    -0.328 N 
ATOM     22  H   UNL     1       7.725  10.315  -0.810  0.00  0.00    +0.145 HD
ATOM     23  H   UNL     1       9.224   9.557  -0.841  0.00  0.00    +0.145 HD
ENDBRANCH  14  15
ENDBRANCH  13  14
ENDBRANCH   2  13
TORSDOF 4
