REMARK  Name = ZINC21050214
REMARK  8 active torsions:
REMARK  status: ('A' for Active; 'I' for Inactive)
REMARK    1  A    between atoms: CE_1  and  SD_2
REMARK    2  A    between atoms: SD_2  and  CG_3
REMARK    3  A    between atoms: CG_3  and  CB_4
REMARK    4  A    between atoms: CB_4  and  CA_5
REMARK    5  A    between atoms: CA_5  and  C_7
REMARK    6  A    between atoms: CA_5  and  N_10
REMARK    7  A    between atoms: N_13  and  C_14
REMARK    8  A    between atoms: C_14  and  C_15
REMARK                            x       y       z     vdW  Elec       q    Type
REMARK                         _______ _______ _______ _____ _____    ______ ____
ROOT
ATOM      1  N   MET A   1       5.912  -1.083  -2.960  0.00  0.00    -0.286 N 
ATOM      2  C   UNK A   0       5.498  -0.951  -1.685  0.00  0.00    +0.301 C 
ATOM      3  O   UNK A   0       6.258  -1.203  -0.769  0.00  0.00    -0.253 OA
ATOM      4  N   UNK A   0       4.242  -0.538  -1.424  0.00  0.00    -0.295 N 
ATOM      5  H   MET A   1       5.225  -0.855  -3.788  0.00  0.00    +0.151 HD
ATOM      6  H   UNK A   0       3.554  -0.310  -2.252  0.00  0.00    +0.151 HD
ENDROOT
BRANCH   1   7
ATOM      7  CA  MET A   1       7.278  -1.532  -3.244  0.00  0.00    +0.188 C 
BRANCH   7   8
ATOM      8  C   MET A   1       8.211  -0.348  -3.216  0.00  0.00    +0.376 C 
ATOM      9  O   MET A   1       7.779   0.756  -2.983  0.00  0.00    -0.244 OA
ATOM     10  OXT MET A   1       9.521  -0.521  -3.451  0.00  0.00    -0.244 OA
ENDBRANCH   7   8
BRANCH   7  11
ATOM     11  CB  MET A   1       7.323  -2.184  -4.627  0.00  0.00    +0.044 C 
BRANCH  11  12
ATOM     12  CG  MET A   1       6.473  -3.457  -4.619  0.00  0.00    +0.071 C 
BRANCH  12  14
ATOM     13  CE  MET A   1       5.485  -5.705  -6.082  0.00  0.00    +0.084 C 
ATOM     14  SD  MET A   1       6.527  -4.231  -6.258  0.00  0.00    -0.164 S 
ENDBRANCH  12  14
ENDBRANCH  11  12
ENDBRANCH   7  11
ENDBRANCH   1   7
BRANCH   4  15
ATOM     15  C   UNK A   0       3.791  -0.394  -0.037  0.00  0.00    +0.148 C 
BRANCH  15  16
ATOM     16  C   UNK A   0       2.360   0.076  -0.020  0.00  0.00    +0.008 A 
ATOM     17  C   UNK A   0       1.220  -0.657  -0.013  0.00  0.00    +0.014 A 
ATOM     18  C   UNK A   0       0.002  -0.004   0.002  0.00  0.00    +0.023 A 
ATOM     19  C   UNK A   0      -0.016   1.352   0.009  0.00  0.00    +0.055 A 
ATOM     20  S   UNK A   0       1.725   1.745  -0.005  0.00  0.00    -0.085 S 
ATOM     21 BR   UNK A   0      -1.501   2.523   0.023  0.00  0.00    -0.043 Br
ENDBRANCH  15  16
ENDBRANCH   4  15
TORSDOF 7
