REMARK  Name = ZINC42238859
REMARK  3 active torsions:
REMARK  status: ('A' for Active; 'I' for Inactive)
REMARK    1  A    between atoms: C_6  and  C_7
REMARK    2  A    between atoms: C_7  and  N_8
REMARK    3  A    between atoms: C_9  and  N_17
REMARK                            x       y       z     vdW  Elec       q    Type
REMARK                         _______ _______ _______ _____ _____    ______ ____
ROOT
ATOM      1  N   UNL     1      -1.726  -1.017  -1.368  0.00  0.00    -0.278 N 
ATOM      2  C   UNL     1      -2.533  -0.103  -2.001  0.00  0.00    +0.105 A 
ATOM      3  C   UNL     1      -2.932  -0.338  -3.288  0.00  0.00    +0.111 A 
ATOM      4  C   UNL     1      -2.505  -1.511  -3.931  0.00  0.00    +0.256 A 
ATOM      5  O   UNL     1      -2.848  -1.740  -5.078  0.00  0.00    -0.268 OA
ATOM      6  N   UNL     1      -1.714  -2.381  -3.273  0.00  0.00    -0.275 N 
ATOM      7  H   UNL     1      -1.418  -3.191  -3.716  0.00  0.00    +0.173 HD
ATOM      8  C   UNL     1      -1.326  -2.131  -2.009  0.00  0.00    +0.331 A 
ATOM      9  O   UNL     1      -0.607  -2.927  -1.435  0.00  0.00    -0.246 OA
ENDROOT
BRANCH   2  10
ATOM     10  N   UNL     1      -2.934   1.034  -1.349  0.00  0.00    -0.344 N 
ATOM     11  H   UNL     1      -2.649   1.196  -0.436  0.00  0.00    +0.144 HD
ATOM     12  H   UNL     1      -3.504   1.676  -1.800  0.00  0.00    +0.144 HD
ENDBRANCH   2  10
BRANCH   1  13
ATOM     13  C   UNL     1      -1.293  -0.775   0.010  0.00  0.00    +0.163 C 
BRANCH  13  19
ATOM     14  C   UNL     1      -0.017   1.378   0.010  0.00  0.00    +0.006 A 
ATOM     15  C   UNL     1       1.171   2.086   0.002  0.00  0.00    +0.015 A 
ATOM     16  C   UNL     1       2.378   1.411  -0.013  0.00  0.00    +0.018 A 
ATOM     17  C   UNL     1       2.396   0.027  -0.021  0.00  0.00    +0.015 A 
ATOM     18  C   UNL     1       1.208  -0.679  -0.013  0.00  0.00    +0.006 A 
ATOM     19  C   UNL     1       0.002  -0.004   0.002  0.00  0.00    -0.027 A 
ATOM     20 BR   UNL     1       4.003   2.378  -0.024  0.00  0.00    -0.050 Br
ENDBRANCH  13  19
ENDBRANCH   1  13
TORSDOF 3
