REMARK  Name = ZINC32809197
REMARK  7 active torsions:
REMARK  status: ('A' for Active; 'I' for Inactive)
REMARK    1  A    between atoms: C_1  and  C_2
REMARK    2  A    between atoms: C_10  and  C_11
REMARK    3  A    between atoms: N_13  and  N_14
REMARK    4  A    between atoms: N_17  and  C_18
REMARK    5  A    between atoms: C_18  and  C_20
REMARK    6  A    between atoms: C_18  and  C_27
REMARK    7  A    between atoms: C_20  and  N_21
REMARK                            x       y       z     vdW  Elec       q    Type
REMARK                         _______ _______ _______ _____ _____    ______ ____
ROOT
ATOM      1  N   UNL     1      -1.554  -0.884  -3.218  0.00  0.00    -0.218 N 
ATOM      2  C   UNL     1      -0.660  -0.429  -2.318  0.00  0.00    +0.316 C 
ATOM      3  O   UNL     1       0.408   0.014  -2.693  0.00  0.00    -0.251 OA
ATOM      4  N   UNL     1      -0.950  -0.466  -1.002  0.00  0.00    -0.290 N 
ATOM      5  H   UNL     1      -1.318  -0.855  -4.291  0.00  0.00    +0.174 HD
ATOM      6  H   UNL     1      -1.917  -0.867  -0.663  0.00  0.00    +0.151 HD
ENDROOT
BRANCH   1   9
ATOM      7  C   UNL     1      -3.679  -1.850  -3.685  0.00  0.00    +0.296 C 
ATOM      8  O   UNL     1      -3.418  -1.817  -4.873  0.00  0.00    -0.265 OA
ATOM      9  N   UNL     1      -2.785  -1.395  -2.785  0.00  0.00    -0.227 N 
ATOM     10  H   UNL     1      -3.022  -1.425  -1.712  0.00  0.00    +0.173 HD
BRANCH   7  20
ATOM     11  C   UNL     1      -5.914  -2.948  -5.550  0.00  0.00    +0.048 C 
ATOM     12  C   UNL     1      -5.947  -2.866  -4.045  0.00  0.00    +0.008 A 
ATOM     13  C   UNL     1      -7.036  -3.289  -3.166  0.00  0.00    +0.024 A 
ATOM     14  C   UNL     1      -8.295  -3.856  -3.378  0.00  0.00    +0.012 A 
ATOM     15  C   UNL     1      -9.100  -4.136  -2.310  0.00  0.00    +0.001 A 
ATOM     16  C   UNL     1      -8.675  -3.861  -1.018  0.00  0.00    +0.004 A 
ATOM     17  C   UNL     1      -7.438  -3.301  -0.787  0.00  0.00    +0.047 A 
ATOM     18  C   UNL     1      -6.601  -3.007  -1.857  0.00  0.00    +0.136 A 
ATOM     19  O   UNL     1      -5.367  -2.471  -1.945  0.00  0.00    -0.450 OA
ATOM     20  C   UNL     1      -4.971  -2.386  -3.232  0.00  0.00    +0.195 A 
ENDBRANCH   7  20
ENDBRANCH   1   9
BRANCH   4  21
ATOM     21  C   UNL     1       0.022   0.029  -0.024  0.00  0.00    +0.119 C 
BRANCH  21  22
ATOM     22  C   UNL     1      -0.142   1.518   0.139  0.00  0.00    -0.026 A 
ATOM     23  C   UNL     1      -1.407   2.076   0.158  0.00  0.00    +0.005 A 
ATOM     24  C   UNL     1      -1.557   3.441   0.311  0.00  0.00    +0.000 A 
ATOM     25  C   UNL     1      -0.443   4.250   0.436  0.00  0.00    +0.000 A 
ATOM     26  C   UNL     1       0.822   3.692   0.411  0.00  0.00    +0.000 A 
ATOM     27  C   UNL     1       0.972   2.326   0.263  0.00  0.00    +0.005 A 
ENDBRANCH  21  22
BRANCH  21  28
ATOM     28  C   UNL     1      -0.214  -0.660   1.322  0.00  0.00    +0.111 C 
BRANCH  28  29
ATOM     29  N   UNL     1      -0.164  -2.117   1.142  0.00  0.00    -0.296 NA
ATOM     30  C   UNL     1      -0.795  -2.810   2.275  0.00  0.00    +0.112 C 
ATOM     31  C   UNL     1      -0.774  -4.319   2.018  0.00  0.00    +0.175 C 
ATOM     32  O   UNL     1       0.575  -4.744   1.808  0.00  0.00    -0.377 OA
ATOM     33  C   UNL     1       1.220  -4.089   0.712  0.00  0.00    +0.175 C 
ATOM     34  C   UNL     1       1.220  -2.578   0.955  0.00  0.00    +0.112 C 
ENDBRANCH  28  29
ENDBRANCH  21  28
ENDBRANCH   4  21
TORSDOF 6
