REMARK  Name = ZINC55174096
REMARK  4 active torsions:
REMARK  status: ('A' for Active; 'I' for Inactive)
REMARK    1  A    between atoms: C_1  and  C_2
REMARK    2  A    between atoms: C_3  and  C_8
REMARK    3  A    between atoms: C_12  and  C_19
REMARK    4  A    between atoms: C_16  and  C_18
REMARK                            x       y       z     vdW  Elec       q    Type
REMARK                         _______ _______ _______ _____ _____    ______ ____
ROOT
ATOM      1  C   UNL     1       0.450  -0.294  -2.564  0.00  0.00    +0.255 C 
ATOM      2  O   UNL     1       0.295   0.898  -2.757  0.00  0.00    -0.269 OA
ATOM      3  N   UNL     1       0.362  -1.161  -3.592  0.00  0.00    -0.294 N 
ATOM      4  C   UNL     1       0.423  -2.610  -3.358  0.00  0.00    +0.121 C 
ATOM      5  C   UNL     1       1.518  -3.208  -4.247  0.00  0.00    +0.092 C 
ATOM      6  C   UNL     1       1.256  -2.817  -5.704  0.00  0.00    +0.016 C 
ATOM      7  C   UNL     1       1.301  -1.294  -5.841  0.00  0.00    +0.023 C 
ATOM      8  C   UNL     1       0.198  -0.674  -4.969  0.00  0.00    +0.073 C 
ATOM      9  C   UNL     1       0.319   0.851  -4.992  0.00  0.00    +0.028 C 
ENDROOT
BRANCH   1  12
ATOM     10  C   UNL     1       2.558   0.840  -0.562  0.00  0.00    +0.067 C 
ATOM     11  C   UNL     1       1.649  -0.330  -0.280  0.00  0.00    +0.060 A 
ATOM     12  C   UNL     1       0.732  -0.785  -1.216  0.00  0.00    +0.098 A 
ATOM     13  S   UNL     1      -0.010  -2.139  -0.317  0.00  0.00    -0.048 S 
ATOM     14  C   UNL     1       0.884  -1.995   1.102  0.00  0.00    +0.156 A 
ATOM     15  N   UNL     1       1.687  -0.973   0.860  0.00  0.00    -0.230 NA
ATOM     16  N   UNL     1       0.803  -2.764   2.243  0.00  0.00    -0.337 N 
ATOM     17  H   UNL     1       0.167  -3.494   2.291  0.00  0.00    +0.144 HD
ATOM     18  H   UNL     1       1.382  -2.574   2.998  0.00  0.00    +0.144 HD
ENDBRANCH   1  12
BRANCH   5  19
ATOM     19  C   UNL     1       1.506  -4.709  -4.118  0.00  0.00    +0.215 C 
ATOM     20  O   UNL     1       1.311  -5.400  -5.096  0.00  0.00    -0.276 OA
ATOM     21  N   UNL     1       1.714  -5.284  -2.917  0.00  0.00    -0.329 N 
ATOM     22  H   UNL     1       1.870  -4.731  -2.135  0.00  0.00    +0.145 HD
ATOM     23  H   UNL     1       1.706  -6.250  -2.834  0.00  0.00    +0.145 HD
ENDBRANCH   5  19
TORSDOF 2
