REMARK  Name = ZINC36268402
REMARK  4 active torsions:
REMARK  status: ('A' for Active; 'I' for Inactive)
REMARK    1  A    between atoms: C_1  and  C_2
REMARK    2  A    between atoms: C_4  and  C_20
REMARK    3  A    between atoms: C_7  and  C_8
REMARK    4  A    between atoms: N_11  and  C_12
REMARK                            x       y       z     vdW  Elec       q    Type
REMARK                         _______ _______ _______ _____ _____    ______ ____
ROOT
ATOM      1  C   UNL     1      -0.018   1.503   0.010  0.00  0.00    +0.045 C 
ATOM      2  C   UNL     1       0.002  -0.004   0.002  0.00  0.00    -0.033 A 
ATOM      3  C   UNL     1       0.006  -0.706  -1.190  0.00  0.00    +0.027 A 
ATOM      4  C   UNL     1       0.025  -2.089  -1.166  0.00  0.00    +0.041 A 
ATOM      5  N   UNL     1       0.039  -2.753  -0.027  0.00  0.00    -0.237 NA
ATOM      6  C   UNL     1       0.036  -2.132   1.142  0.00  0.00    +0.132 A 
ATOM      7  C   UNL     1       0.023  -0.727   1.200  0.00  0.00    +0.079 A 
ATOM      8  N   UNL     1       0.051  -2.868   2.312  0.00  0.00    -0.325 N 
ATOM      9  C   UNL     1       0.029  -2.852  -2.466  0.00  0.00    +0.065 C 
ATOM     10  H   UNL     1       0.049  -2.415   3.170  0.00  0.00    +0.148 HD
ENDROOT
BRANCH   8  11
ATOM     11  C   UNL     1       0.071  -4.332   2.257  0.00  0.00    +0.075 C 
ATOM     12  C   UNL     1      -0.862  -5.086   3.207  0.00  0.00    -0.005 C 
ATOM     13  C   UNL     1       0.661  -5.075   3.457  0.00  0.00    -0.005 C 
ATOM     14  C   UNL     1       1.110  -6.538   3.258  0.00  0.00    -0.077 C 
ATOM     15  N   UNL     1      -0.113  -7.343   3.507  0.00  0.00    +0.380 N 
ATOM     16  C   UNL     1      -1.232  -6.543   2.857  0.00  0.00    -0.077 C 
ATOM     17  H   UNL     1      -0.035  -8.249   3.069  0.00  0.00    -0.086 HD
ATOM     18  H   UNL     1      -0.275  -7.441   4.498  0.00  0.00    -0.086 HD
ENDBRANCH   8  11
BRANCH   7  19
ATOM     19  C   UNL     1       0.026  -0.029   2.498  0.00  0.00    +0.245 C 
ATOM     20  O   UNL     1      -1.026   0.244   3.044  0.00  0.00    -0.270 OA
ATOM     21  N   UNL     1       1.194   0.306   3.081  0.00  0.00    -0.325 N 
ATOM     22  H   UNL     1       2.034   0.087   2.646  0.00  0.00    +0.145 HD
ATOM     23  H   UNL     1       1.196   0.765   3.935  0.00  0.00    +0.145 HD
ENDBRANCH   7  19
TORSDOF 2
