REMARK  Name = ZINC50039487
REMARK  4 active torsions:
REMARK  status: ('A' for Active; 'I' for Inactive)
REMARK    1  A    between atoms: C_1  and  N_2
REMARK    2  A    between atoms: C_3  and  N_20
REMARK    3  A    between atoms: C_4  and  C_12
REMARK    4  A    between atoms: C_5  and  C_7
REMARK                            x       y       z     vdW  Elec       q    Type
REMARK                         _______ _______ _______ _____ _____    ______ ____
ROOT
ATOM      1  C   UNL     1      -0.018   1.461   0.010  0.00  0.00    +0.174 C 
ATOM      2  N   UNL     1       0.002  -0.004   0.002  0.00  0.00    -0.253 N 
ATOM      3  C   UNL     1       0.008  -0.788  -1.100  0.00  0.00    +0.122 A 
ATOM      4  C   UNL     1       0.028  -2.103  -0.673  0.00  0.00    +0.049 A 
ATOM      5  C   UNL     1       0.034  -2.083   0.745  0.00  0.00    +0.105 A 
ATOM      6  N   UNL     1       0.025  -0.828   1.133  0.00  0.00    -0.169 NA
ENDROOT
BRANCH   4   7
ATOM      7  C   UNL     1       0.040  -3.308  -1.536  0.00  0.00    -0.011 A 
ATOM      8  C   UNL     1      -1.044  -4.185  -1.528  0.00  0.00    +0.010 A 
ATOM      9  C   UNL     1      -1.028  -5.305  -2.333  0.00  0.00    +0.022 A 
ATOM     10  C   UNL     1       0.061  -5.560  -3.148  0.00  0.00    +0.059 A 
ATOM     11  C   UNL     1       1.142  -4.692  -3.159  0.00  0.00    +0.060 A 
ATOM     12  C   UNL     1       1.133  -3.565  -2.362  0.00  0.00    +0.030 A 
ATOM     13 CL   UNL     1       2.505  -5.019  -4.183  0.00  0.00    -0.082 Cl
ATOM     14 CL   UNL     1       0.075  -6.971  -4.158  0.00  0.00    -0.082 Cl
ENDBRANCH   4   7
BRANCH   5  15
ATOM     15  C   UNL     1       0.053  -3.271   1.633  0.00  0.00    +0.040 A 
ATOM     16  C   UNL     1       0.727  -3.395   2.931  0.00  0.00    +0.051 A 
ATOM     17  C   UNL     1       0.470  -4.640   3.365  0.00  0.00    +0.195 A 
ATOM     18  O   UNL     1      -0.290  -5.271   2.457  0.00  0.00    -0.470 OA
ATOM     19  C   UNL     1      -0.553  -4.466   1.417  0.00  0.00    +0.204 A 
ENDBRANCH   5  15
BRANCH   3  20
ATOM     20  N   UNL     1      -0.004  -0.352  -2.418  0.00  0.00    -0.343 N 
ATOM     21  H   UNL     1      -0.018   0.597  -2.615  0.00  0.00    +0.144 HD
ATOM     22  H   UNL     1       0.001  -0.998  -3.142  0.00  0.00    +0.144 HD
ENDBRANCH   3  20
TORSDOF 3
