REMARK  Name = ZINC39694364
REMARK  7 active torsions:
REMARK  status: ('A' for Active; 'I' for Inactive)
REMARK    1  A    between atoms: C_1  and  O_2
REMARK    2  A    between atoms: O_2  and  C_3
REMARK    3  A    between atoms: C_4  and  C_9
REMARK    4  A    between atoms: C_13  and  C_22
REMARK    5  A    between atoms: N_24  and  C_25
REMARK    6  A    between atoms: C_25  and  C_26
REMARK    7  A    between atoms: C_31  and  N_32
REMARK                            x       y       z     vdW  Elec       q    Type
REMARK                         _______ _______ _______ _____ _____    ______ ____
ROOT
ATOM      1  C   UNL     1      -1.093  -0.514   2.899  0.00  0.00    +0.251 C 
ATOM      2  O   UNL     1      -1.654  -0.445   1.822  0.00  0.00    -0.270 OA
ATOM      3  N   UNL     1      -1.724  -1.070   3.953  0.00  0.00    -0.296 N 
ATOM      4  C   UNL     1      -3.049  -1.734   3.971  0.00  0.00    +0.121 C 
ATOM      5  C   UNL     1      -2.867  -2.941   4.919  0.00  0.00    +0.100 C 
ATOM      6  C   UNL     1      -1.686  -2.553   5.826  0.00  0.00    -0.004 C 
ATOM      7  C   UNL     1      -1.247  -1.160   5.354  0.00  0.00    +0.115 C 
ATOM      8  C   UNL     1      -0.541  -3.546   5.655  0.00  0.00    -0.010 C 
ATOM      9  C   UNL     1       0.598  -3.173   6.608  0.00  0.00    -0.082 C 
ATOM     10  N   UNL     1       0.108  -3.193   7.992  0.00  0.00    +0.379 N 
ATOM     11  C   UNL     1      -0.930  -2.171   8.170  0.00  0.00    -0.082 C 
ATOM     12  C   UNL     1      -2.133  -2.501   7.283  0.00  0.00    -0.010 C 
ATOM     13  H   UNL     1      -0.279  -4.102   8.197  0.00  0.00    -0.086 HD
ATOM     14  H   UNL     1       0.874  -3.007   8.621  0.00  0.00    -0.086 HD
ENDROOT
BRANCH   1  16
ATOM     15  C   UNL     1       1.257  -0.127   2.002  0.00  0.00    +0.158 A 
ATOM     16  C   UNL     1       0.273   0.008   3.052  0.00  0.00    +0.087 A 
ATOM     17  C   UNL     1       0.675   0.651   4.203  0.00  0.00    +0.063 A 
ATOM     18  S   UNL     1       2.277   1.057   3.912  0.00  0.00    -0.081 S 
ATOM     19  C   UNL     1       2.475   0.392   2.273  0.00  0.00    +0.120 A 
ATOM     20 CL   UNL     1       3.889   0.409   1.266  0.00  0.00    -0.072 Cl
BRANCH  15  22
ATOM     21  C   UNL     1       1.210  -2.152   0.752  0.00  0.00    +0.277 C 
ATOM     22  O   UNL     1       0.977  -0.744   0.821  0.00  0.00    -0.492 OA
ENDBRANCH  15  22
ENDBRANCH   1  16
BRANCH   5  23
ATOM     23  C   UNL     1      -4.112  -3.156   5.740  0.00  0.00    +0.218 C 
ATOM     24  O   UNL     1      -4.685  -2.208   6.233  0.00  0.00    -0.275 OA
ATOM     25  N   UNL     1      -4.590  -4.403   5.925  0.00  0.00    -0.311 N 
ATOM     26  H   UNL     1      -4.132  -5.161   5.531  0.00  0.00    +0.149 HD
BRANCH  25  27
ATOM     27  C   UNL     1      -5.801  -4.612   6.723  0.00  0.00    +0.141 C 
BRANCH  27  28
ATOM     28  C   UNL     1      -6.120  -6.084   6.775  0.00  0.00    -0.009 A 
ATOM     29  C   UNL     1      -7.086  -6.612   5.942  0.00  0.00    +0.007 A 
ATOM     30  C   UNL     1      -7.379  -7.963   5.990  0.00  0.00    +0.000 A 
ATOM     31  C   UNL     1      -6.706  -8.789   6.872  0.00  0.00    +0.002 A 
ATOM     32  C   UNL     1      -5.738  -8.267   7.707  0.00  0.00    +0.023 A 
ATOM     33  C   UNL     1      -5.438  -6.912   7.658  0.00  0.00    +0.035 A 
BRANCH  33  34
ATOM     34  N   UNL     1      -4.456  -6.381   8.498  0.00  0.00    -0.325 N 
ATOM     35  C   UNL     1      -4.796  -5.879   9.838  0.00  0.00    +0.133 C 
ATOM     36  C   UNL     1      -3.838  -6.516  10.851  0.00  0.00    +0.178 C 
ATOM     37  O   UNL     1      -2.491  -6.309  10.419  0.00  0.00    -0.377 OA
ATOM     38  C   UNL     1      -2.177  -6.925   9.168  0.00  0.00    +0.178 C 
ATOM     39  C   UNL     1      -3.049  -6.315   8.071  0.00  0.00    +0.133 C 
ENDBRANCH  33  34
ENDBRANCH  27  28
ENDBRANCH  25  27
ENDBRANCH   5  23
TORSDOF 6
