REMARK  Name = ZINC39843628
REMARK  5 active torsions:
REMARK  status: ('A' for Active; 'I' for Inactive)
REMARK    1  A    between atoms: C_1  and  C_2
REMARK    2  A    between atoms: C_2  and  C_3
REMARK    3  A    between atoms: N_9  and  C_10
REMARK    4  A    between atoms: C_13  and  S_16
REMARK    5  A    between atoms: S_16  and  N_19
REMARK                            x       y       z     vdW  Elec       q    Type
REMARK                         _______ _______ _______ _____ _____    ______ ____
ROOT
ATOM      1  C   UNL     1      -1.148  -3.735   4.522  0.00  0.00    +0.067 A 
ATOM      2  C   UNL     1      -1.444  -4.599   3.466  0.00  0.00    +0.030 A 
ATOM      3  C   UNL     1      -1.505  -5.959   3.688  0.00  0.00    +0.030 A 
ATOM      4  C   UNL     1      -1.276  -6.467   4.955  0.00  0.00    +0.105 A 
ATOM      5  C   UNL     1      -0.982  -5.617   6.006  0.00  0.00    +0.030 A 
ATOM      6  C   UNL     1      -0.912  -4.255   5.796  0.00  0.00    +0.030 A 
ENDROOT
BRANCH   1  12
ATOM      7  C   UNL     1       0.742  -0.511   1.242  0.00  0.00    +0.140 C 
ATOM      8  C   UNL     1       0.812  -2.030   1.259  0.00  0.00    +0.232 C 
ATOM      9  O   UNL     1       1.387  -2.658   0.396  0.00  0.00    -0.274 OA
ATOM     10  N   UNL     1       0.206  -2.622   2.274  0.00  0.00    -0.264 N 
ATOM     11  C   UNL     1      -0.451  -1.914   3.259  0.00  0.00    +0.161 C 
ATOM     12  N   UNL     1      -1.085  -2.384   4.308  0.00  0.00    -0.226 NA
ATOM     13  S   UNL     1      -0.235  -0.208   2.772  0.00  0.00    -0.077 S 
ATOM     14  H   UNL     1       0.223  -3.590   2.327  0.00  0.00    +0.157 HD
BRANCH   7  16
ATOM     15  C   UNL     1      -0.019   1.526   0.010  0.00  0.00    +0.005 C 
ATOM     16  C   UNL     1       0.002  -0.004   0.002  0.00  0.00    +0.020 C 
ENDBRANCH   7  16
ENDBRANCH   1  12
BRANCH   4  17
ATOM     17  S   UNL     1      -1.358  -8.206   5.230  0.00  0.00    +0.056 S 
ATOM     18  O   UNL     1      -1.642  -8.385   6.611  0.00  0.00    -0.153 OA
ATOM     19  O   UNL     1      -2.185  -8.741   4.206  0.00  0.00    -0.153 OA
BRANCH  17  20
ATOM     20  N   UNL     1       0.162  -8.814   4.977  0.00  0.00    -0.204 NA
ATOM     21  H   UNL     1       0.886  -8.220   4.725  0.00  0.00    +0.144 HD
ATOM     22  H   UNL     1       0.327  -9.764   5.080  0.00  0.00    +0.144 HD
ENDBRANCH  17  20
ENDBRANCH   4  17
TORSDOF 4
