REMARK  Name = ZINC44998838
REMARK  9 active torsions:
REMARK  status: ('A' for Active; 'I' for Inactive)
REMARK    1  A    between atoms: C_1  and  C_2
REMARK    2  A    between atoms: C_2  and  C_3
REMARK    3  A    between atoms: C_2  and  C_4
REMARK    4  A    between atoms: C_7  and  O_38
REMARK    5  A    between atoms: C_8  and  C_10
REMARK    6  A    between atoms: C_10  and  N_11
REMARK    7  A    between atoms: C_16  and  C_18
REMARK    8  A    between atoms: N_23  and  C_26
REMARK    9  A    between atoms: O_38  and  C_39
REMARK                            x       y       z     vdW  Elec       q    Type
REMARK                         _______ _______ _______ _____ _____    ______ ____
ROOT
ATOM      1  C   UNL     1       4.918  -4.544  -0.544  0.00  0.00    +0.202 C 
ATOM      2  O   UNL     1       4.118  -4.081   0.240  0.00  0.00    -0.277 OA
ATOM      3  N   UNL     1       6.184  -4.788  -0.151  0.00  0.00    -0.300 N 
ATOM      4  C   UNL     1       7.136  -5.446  -1.057  0.00  0.00    +0.126 C 
ATOM      5  C   UNL     1       8.376  -4.554  -1.197  0.00  0.00    +0.124 C 
ATOM      6  N   UNL     1       8.829  -4.166   0.146  0.00  0.00    -0.327 N 
ATOM      7  C   UNL     1       7.878  -3.509   1.052  0.00  0.00    +0.124 C 
ATOM      8  C   UNL     1       6.639  -4.395   1.190  0.00  0.00    +0.126 C 
ENDROOT
BRANCH   6   9
ATOM      9  C   UNL     1      10.143  -4.419   0.554  0.00  0.00    +0.032 A 
ATOM     10  C   UNL     1      11.068  -4.923  -0.355  0.00  0.00    +0.025 A 
ATOM     11  C   UNL     1      12.366  -5.174   0.042  0.00  0.00    +0.029 A 
ATOM     12  C   UNL     1      12.750  -4.924   1.351  0.00  0.00    +0.067 A 
ATOM     13  C   UNL     1      11.825  -4.418   2.266  0.00  0.00    +0.069 A 
ATOM     14  C   UNL     1      10.523  -4.162   1.863  0.00  0.00    +0.051 A 
ATOM     15  N   UNL     1      12.494  -4.273   3.478  0.00  0.00    -0.306 N 
ATOM     16  H   UNL     1      12.108  -3.942   4.304  0.00  0.00    +0.170 HD
ATOM     17  C   UNL     1      13.769  -4.672   3.310  0.00  0.00    +0.325 A 
ATOM     18  O   UNL     1      14.623  -4.672   4.177  0.00  0.00    -0.247 OA
ATOM     19  N   UNL     1      13.956  -5.070   2.038  0.00  0.00    -0.306 N 
ATOM     20  H   UNL     1      14.787  -5.402   1.663  0.00  0.00    +0.170 HD
ENDBRANCH   6   9
BRANCH   1  26
ATOM     21  N   UNL     1       3.369  -3.985  -2.329  0.00  0.00    +0.390 N 
ATOM     22  C   UNL     1       3.001  -4.220  -3.730  0.00  0.00    -0.077 C 
ATOM     23  C   UNL     1       2.523  -5.663  -3.901  0.00  0.00    -0.019 C 
ATOM     24  C   UNL     1       3.650  -6.619  -3.501  0.00  0.00    -0.003 C 
ATOM     25  C   UNL     1       4.077  -6.316  -2.062  0.00  0.00    -0.006 C 
ATOM     26  C   UNL     1       4.497  -4.848  -1.959  0.00  0.00    +0.020 C 
ATOM     27  H   UNL     1       2.579  -4.193  -1.736  0.00  0.00    -0.080 HD
BRANCH  21  28
ATOM     28  C   UNL     1       3.753  -2.578  -2.154  0.00  0.00    -0.038 C 
BRANCH  28  33
ATOM     29  C   UNL     1       0.677  -0.473  -1.553  0.00  0.00    -0.044 A 
ATOM     30  C   UNL     1       0.354  -0.077  -2.838  0.00  0.00    +0.007 A 
ATOM     31  C   UNL     1       1.128  -0.490  -3.904  0.00  0.00    +0.046 A 
ATOM     32  C   UNL     1       2.232  -1.301  -3.686  0.00  0.00    +0.121 A 
ATOM     33  C   UNL     1       2.555  -1.696  -2.396  0.00  0.00    -0.022 A 
ATOM     34  C   UNL     1       1.780  -1.277  -1.331  0.00  0.00    +0.009 A 
BRANCH  29  36
ATOM     35  C   UNL     1      -0.172   1.507  -0.324  0.00  0.00    +0.012 C 
ATOM     36  C   UNL     1      -0.170  -0.022  -0.391  0.00  0.00    +0.013 C 
ATOM     37  C   UNL     1      -1.603  -0.525  -0.579  0.00  0.00    +0.012 C 
ENDBRANCH  29  36
BRANCH  32  38
ATOM     38  O   UNL     1       2.996  -1.709  -4.733  0.00  0.00    -0.495 OA
ATOM     39  C   UNL     1       2.604  -1.264  -6.033  0.00  0.00    +0.277 C 
ENDBRANCH  32  38
ENDBRANCH  28  33
ENDBRANCH  21  28
ENDBRANCH   1  26
TORSDOF 6
