REMARK  Name = ZINC62824384
REMARK  6 active torsions:
REMARK  status: ('A' for Active; 'I' for Inactive)
REMARK    1  A    between atoms: C_1  and  C_2
REMARK    2  A    between atoms: C_2  and  C_3
REMARK    3  A    between atoms: C_3  and  N_4
REMARK    4  A    between atoms: C_5  and  C_17
REMARK    5  A    between atoms: C_8  and  C_9
REMARK    6  A    between atoms: C_14  and  N_15
REMARK                            x       y       z     vdW  Elec       q    Type
REMARK                         _______ _______ _______ _____ _____    ______ ____
ROOT
ATOM      1  C   UNL     1      -1.540  -2.397  -2.307  0.00  0.00    +0.041 A 
ATOM      2  C   UNL     1      -1.583  -1.455  -3.335  0.00  0.00    +0.027 A 
ATOM      3  C   UNL     1      -2.796  -1.084  -3.878  0.00  0.00    +0.014 A 
ATOM      4  C   UNL     1      -3.973  -1.642  -3.407  0.00  0.00    +0.016 A 
ATOM      5  C   UNL     1      -3.945  -2.575  -2.389  0.00  0.00    +0.024 A 
ATOM      6  C   UNL     1      -2.733  -2.964  -1.836  0.00  0.00    +0.035 A 
ATOM      7  I   UNL     1      -2.858   0.331  -5.422  0.00  0.00    -0.044 I 
ENDROOT
BRANCH   1  12
ATOM      8  N   UNL     1       0.749  -1.962  -1.288  0.00  0.00    -0.311 N 
ATOM      9  C   UNL     1       1.741  -2.773  -0.827  0.00  0.00    +0.131 A 
ATOM     10  N   UNL     1       1.346  -4.007  -0.990  0.00  0.00    -0.134 NA
ATOM     11  N   UNL     1       0.175  -4.029  -1.520  0.00  0.00    -0.129 NA
ATOM     12  C   UNL     1      -0.244  -2.799  -1.721  0.00  0.00    +0.166 A 
ATOM     13  C   UNL     1       3.055  -2.328  -0.238  0.00  0.00    +0.088 C 
BRANCH   8  14
ATOM     14  C   UNL     1       0.742  -0.497  -1.310  0.00  0.00    +0.125 C 
BRANCH  14  16
ATOM     15  C   UNL     1       0.033   1.558  -0.079  0.00  0.00    +0.005 C 
ATOM     16  C   UNL     1       0.039   0.028  -0.057  0.00  0.00    +0.018 C 
ENDBRANCH  14  16
ENDBRANCH   8  14
ENDBRANCH   1  12
BRANCH   6  17
ATOM     17  N   UNL     1      -2.701  -3.910  -0.813  0.00  0.00    -0.357 N 
ATOM     18  H   UNL     1      -1.853  -4.177  -0.425  0.00  0.00    +0.142 HD
ATOM     19  H   UNL     1      -3.528  -4.301  -0.488  0.00  0.00    +0.142 HD
ENDBRANCH   6  17
TORSDOF 4
