REMARK  Name = ZINC67274162
REMARK  3 active torsions:
REMARK  status: ('A' for Active; 'I' for Inactive)
REMARK    1  A    between atoms: C_5  and  C_7
REMARK    2  A    between atoms: C_10  and  N_12
REMARK    3  A    between atoms: C_13  and  C_15
REMARK                            x       y       z     vdW  Elec       q    Type
REMARK                         _______ _______ _______ _____ _____    ______ ____
ROOT
ATOM      1  N   UNL     1       1.181  -4.160   1.609  0.00  0.00    -0.312 N 
ATOM      2  C   UNL     1       1.003  -4.575   2.879  0.00  0.00    +0.216 C 
ATOM      3  O   UNL     1       0.337  -3.913   3.646  0.00  0.00    -0.276 OA
ATOM      4  H   UNL     1       1.715  -4.689   0.996  0.00  0.00    +0.149 HD
ENDROOT
BRANCH   2   5
ATOM      5  C   UNL     1       1.633  -5.862   3.346  0.00  0.00    +0.075 C 
ATOM      6  C   UNL     1       3.153  -5.770   3.196  0.00  0.00    +0.015 C 
ATOM      7  C   UNL     1       3.790  -7.083   3.659  0.00  0.00    +0.036 C 
ATOM      8  C   UNL     1       3.421  -7.344   5.115  0.00  0.00    +0.112 C 
ATOM      9  C   UNL     1       1.907  -7.413   5.285  0.00  0.00    +0.036 C 
ATOM     10  C   UNL     1       1.278  -6.099   4.815  0.00  0.00    +0.015 C 
ATOM     11  C   UNL     1       4.004  -6.274   6.008  0.00  0.00    +0.244 C 
ATOM     12  O   UNL     1       3.769  -5.085   5.978  0.00  0.00    -0.273 OA
ATOM     13  N   UNL     1       4.841  -6.920   6.846  0.00  0.00    -0.238 N 
ATOM     14  C   UNL     1       4.863  -8.236   6.604  0.00  0.00    +0.307 C 
ATOM     15  O   UNL     1       5.541  -9.028   7.229  0.00  0.00    -0.252 OA
ATOM     16  N   UNL     1       4.048  -8.585   5.590  0.00  0.00    -0.285 N 
ATOM     17  H   UNL     1       5.363  -6.484   7.538  0.00  0.00    +0.159 HD
ATOM     18  H   UNL     1       3.904  -9.479   5.241  0.00  0.00    +0.151 HD
ENDBRANCH   2   5
BRANCH   1  21
ATOM     19  C   UNL     1       1.229  -2.186  -0.022  0.00  0.00    +0.042 C 
ATOM     20  C   UNL     1      -0.105  -2.909  -0.219  0.00  0.00    +0.033 C 
ATOM     21  C   UNL     1       0.570  -2.908   1.155  0.00  0.00    +0.081 C 
BRANCH  19  26
ATOM     22  C   UNL     1      -0.017   1.378   0.010  0.00  0.00    +0.000 A 
ATOM     23  C   UNL     1       1.171   2.086   0.002  0.00  0.00    +0.001 A 
ATOM     24  C   UNL     1       2.377   1.412  -0.013  0.00  0.00    +0.020 A 
ATOM     25  C   UNL     1       2.397   0.029  -0.021  0.00  0.00    +0.044 A 
ATOM     26  C   UNL     1       1.208  -0.679  -0.013  0.00  0.00    -0.024 A 
ATOM     27  C   UNL     1       0.002  -0.004   0.002  0.00  0.00    +0.005 A 
ATOM     28 CL   UNL     1       3.912  -0.818  -0.041  0.00  0.00    -0.083 Cl
ENDBRANCH  19  26
ENDBRANCH   1  21
TORSDOF 3
