REMARK  Name = ZINC51114651
REMARK  5 active torsions:
REMARK  status: ('A' for Active; 'I' for Inactive)
REMARK    1  A    between atoms: C_1  and  C_2
REMARK    2  A    between atoms: C_5  and  N_8
REMARK    3  A    between atoms: N_8  and  C_9
REMARK    4  A    between atoms: C_10  and  C_12
REMARK    5  A    between atoms: N_18  and  N_19
REMARK                            x       y       z     vdW  Elec       q    Type
REMARK                         _______ _______ _______ _____ _____    ______ ____
ROOT
ATOM      1  C   UNL     1      -0.079  -6.217   1.339  0.00  0.00    +0.057 A 
ATOM      2  C   UNL     1      -0.080  -6.816   2.608  0.00  0.00    +0.038 A 
ATOM      3  C   UNL     1      -0.136  -8.181   2.687  0.00  0.00    +0.083 A 
ATOM      4  C   UNL     1      -0.189  -8.932   1.512  0.00  0.00    +0.151 A 
ATOM      5  N   UNL     1      -0.187  -8.341   0.325  0.00  0.00    -0.237 NA
ATOM      6  C   UNL     1      -0.140  -7.030   0.206  0.00  0.00    +0.126 A 
ATOM      7  N   UNL     1      -0.245 -10.314   1.586  0.00  0.00    -0.266 N 
ATOM      8 CL   UNL     1      -0.140  -8.972   4.232  0.00  0.00    -0.080 Cl
ATOM      9  H   UNL     1      -0.247 -10.754   2.451  0.00  0.00    +0.167 HD
ENDROOT
BRANCH   1  12
ATOM     10  N   UNL     1      -0.444  -4.160   0.069  0.00  0.00    -0.270 N 
ATOM     11  C   UNL     1      -1.089  -4.959  -0.976  0.00  0.00    +0.138 C 
ATOM     12  C   UNL     1      -0.020  -4.749   1.204  0.00  0.00    +0.252 C 
ATOM     13  O   UNL     1       0.411  -4.072   2.116  0.00  0.00    -0.270 OA
BRANCH  10  18
ATOM     14  C   UNL     1       0.266   1.420  -0.665  0.00  0.00    +0.044 C 
ATOM     15  C   UNL     1       0.077  -0.062  -0.470  0.00  0.00    -0.050 A 
ATOM     16  C   UNL     1      -0.662  -0.790  -1.385  0.00  0.00    +0.005 A 
ATOM     17  C   UNL     1      -0.837  -2.148  -1.209  0.00  0.00    +0.024 A 
ATOM     18  C   UNL     1      -0.269  -2.784  -0.113  0.00  0.00    +0.036 A 
ATOM     19  C   UNL     1       0.473  -2.050   0.804  0.00  0.00    +0.024 A 
ATOM     20  C   UNL     1       0.648  -0.693   0.620  0.00  0.00    +0.005 A 
ENDBRANCH  10  18
ENDBRANCH   1  12
BRANCH   7  21
ATOM     21  N   UNL     1      -0.298 -11.058   0.442  0.00  0.00    -0.255 NA
ATOM     22  H   UNL     1      -0.335 -12.044   0.653  0.00  0.00    +0.140 HD
ATOM     23  H   UNL     1      -1.079 -10.782  -0.133  0.00  0.00    +0.140 HD
ENDBRANCH   7  21
TORSDOF 3
