REMARK  Name = ZINC40384833
REMARK  6 active torsions:
REMARK  status: ('A' for Active; 'I' for Inactive)
REMARK    1  A    between atoms: C_1  and  C_2
REMARK    2  A    between atoms: C_5  and  S_9
REMARK    3  A    between atoms: C_6  and  C_8
REMARK    4  A    between atoms: S_9  and  N_12
REMARK    5  A    between atoms: C_16  and  S_19
REMARK    6  A    between atoms: S_19  and  N_22
REMARK                            x       y       z     vdW  Elec       q    Type
REMARK                         _______ _______ _______ _____ _____    ______ ____
ROOT
ATOM      1  N   UNL     1       1.534  -4.967   0.676  0.00  0.00    -0.175 NA
ATOM      2  C   UNL     1       2.732  -5.097  -0.164  0.00  0.00    +0.109 C 
ATOM      3  C   UNL     1       3.876  -4.309   0.483  0.00  0.00    +0.019 C 
ATOM      4  C   UNL     1       4.066  -4.785   1.925  0.00  0.00    +0.030 C 
ATOM      5  C   UNL     1       2.786  -4.522   2.723  0.00  0.00    +0.163 C 
ATOM      6  C   UNL     1       1.632  -5.307   2.102  0.00  0.00    +0.137 C 
ENDROOT
BRANCH   1   7
ATOM      7  S   UNL     1       0.103  -4.443   0.030  0.00  0.00    +0.061 S 
ATOM      8  O   UNL     1      -0.917  -4.812   0.948  0.00  0.00    -0.153 OA
ATOM      9  O   UNL     1       0.093  -4.861  -1.328  0.00  0.00    -0.153 OA
BRANCH   7  14
ATOM     10  C   UNL     1       0.270   1.588  -0.024  0.00  0.00    +0.044 C 
ATOM     11  C   UNL     1       0.229   0.082  -0.011  0.00  0.00    -0.050 A 
ATOM     12  C   UNL     1       0.260  -0.621  -1.201  0.00  0.00    +0.005 A 
ATOM     13  C   UNL     1       0.222  -2.002  -1.188  0.00  0.00    +0.029 A 
ATOM     14  C   UNL     1       0.153  -2.682   0.014  0.00  0.00    +0.108 A 
ATOM     15  C   UNL     1       0.122  -1.979   1.204  0.00  0.00    -0.024 A 
ATOM     16  C   UNL     1       0.165  -0.597   1.192  0.00  0.00    +0.008 A 
ATOM     17  C   UNL     1       0.047  -2.719   2.514  0.00  0.00    +0.046 C 
ENDBRANCH   7  14
ENDBRANCH   1   7
BRANCH   5  18
ATOM     18  S   UNL     1       3.026  -5.050   4.442  0.00  0.00    +0.031 S 
ATOM     19  O   UNL     1       1.916  -4.652   5.235  0.00  0.00    -0.158 OA
ATOM     20  O   UNL     1       3.501  -6.389   4.481  0.00  0.00    -0.158 OA
BRANCH  18  21
ATOM     21  N   UNL     1       4.291  -4.136   4.995  0.00  0.00    -0.208 NA
ATOM     22  H   UNL     1       4.343  -3.899   5.934  0.00  0.00    +0.144 HD
ATOM     23  H   UNL     1       4.979  -3.838   4.380  0.00  0.00    +0.144 HD
ENDBRANCH  18  21
ENDBRANCH   5  18
TORSDOF 4
