REMARK  Name = ZINC00179016
REMARK  2 active torsions:
REMARK  status: ('A' for Active; 'I' for Inactive)
REMARK    1  A    between atoms: C_8  and  N_11
REMARK    2  A    between atoms: C_12  and  C_13
REMARK                            x       y       z     vdW  Elec       q    Type
REMARK                         _______ _______ _______ _____ _____    ______ ____
ROOT
ATOM      1  N   UNL     1       2.886  -0.467   2.418  0.00  0.00    -0.387 N 
ATOM      2  C   UNL     1       4.109  -0.142   2.610  0.00  0.00    +0.071 C 
ATOM      3  H   UNL     1       2.428  -1.034   3.057  0.00  0.00    +0.159 HD
ENDROOT
BRANCH   1  11
ATOM      4  C   UNL     1      -0.019   1.526   0.010  0.00  0.00    +0.007 C 
ATOM      5  C   UNL     1       1.417   2.055  -0.000  0.00  0.00    -0.008 C 
ATOM      6  C   UNL     1       2.133   1.562  -1.259  0.00  0.00    +0.007 C 
ATOM      7  C   UNL     1       2.154   0.032  -1.268  0.00  0.00    -0.008 C 
ATOM      8  C   UNL     1       0.718  -0.497  -1.257  0.00  0.00    +0.007 C 
ATOM      9  C   UNL     1       0.002  -0.004   0.002  0.00  0.00    -0.008 C 
ATOM     10  C   UNL     1       0.742  -0.511   1.242  0.00  0.00    +0.031 C 
ATOM     11  C   UNL     1       2.178   0.019   1.231  0.00  0.00    +0.038 C 
ATOM     12  C   UNL     1       2.157   1.548   1.239  0.00  0.00    +0.031 C 
ATOM     13  C   UNL     1       2.894  -0.475  -0.028  0.00  0.00    +0.031 C 
ENDBRANCH   1  11
BRANCH   2  14
ATOM     14  C   UNL     1       4.837  -0.641   3.831  0.00  0.00    +0.181 C 
ATOM     15  C   UNL     1       6.038  -1.467   3.420  0.00  0.00    +0.167 C 
ATOM     16  O   UNL     1       6.046  -2.486   2.772  0.00  0.00    -0.295 OA
ATOM     17  C   UNL     1       7.227  -0.732   4.000  0.00  0.00    +0.179 C 
ATOM     18  N   UNL     1       6.716   0.445   4.701  0.00  0.00    -0.307 N 
ATOM     19  C   UNL     1       5.381   0.521   4.622  0.00  0.00    +0.229 C 
ATOM     20  O   UNL     1       4.706   1.399   5.117  0.00  0.00    -0.275 OA
ATOM     21  H   UNL     1       7.274   1.090   5.164  0.00  0.00    +0.149 HD
ENDBRANCH   2  14
TORSDOF 2
