REMARK  Name = ZINC35958498
REMARK  5 active torsions:
REMARK  status: ('A' for Active; 'I' for Inactive)
REMARK    1  A    between atoms: C_1  and  C_2
REMARK    2  A    between atoms: C_5  and  N_8
REMARK    3  A    between atoms: C_9  and  C_24
REMARK    4  A    between atoms: C_11  and  C_13
REMARK    5  A    between atoms: C_18  and  C_21
REMARK                            x       y       z     vdW  Elec       q    Type
REMARK                         _______ _______ _______ _____ _____    ______ ____
ROOT
ATOM      1  N   UNL     1       0.043  -4.174  -0.002  0.00  0.00    -0.209 N 
ATOM      2  C   UNL     1       0.932  -4.968   0.666  0.00  0.00    +0.200 A 
ATOM      3  N   UNL     1       0.733  -6.211   0.279  0.00  0.00    -0.199 NA
ATOM      4  C   UNL     1      -0.259  -6.251  -0.621  0.00  0.00    +0.238 A 
ATOM      5  N   UNL     1      -0.713  -5.030  -0.818  0.00  0.00    -0.139 NA
ENDROOT
BRANCH   4   6
ATOM      6  C   UNL     1      -0.766  -7.472  -1.282  0.00  0.00    +0.286 C 
ATOM      7  O   UNL     1      -1.569  -7.382  -2.190  0.00  0.00    -0.267 OA
ATOM      8  N   UNL     1      -0.339  -8.685  -0.878  0.00  0.00    -0.295 N 
ATOM      9  C   UNL     1      -0.700  -9.895  -1.629  0.00  0.00    +0.109 C 
ATOM     10  C   UNL     1      -1.337 -10.901  -0.666  0.00  0.00    +0.032 C 
ATOM     11  C   UNL     1      -0.387 -11.150   0.507  0.00  0.00    +0.078 C 
ATOM     12  C   UNL     1      -0.152  -9.841   1.263  0.00  0.00    +0.032 C 
ATOM     13  C   UNL     1       0.503  -8.821   0.318  0.00  0.00    +0.109 C 
BRANCH  11  14
ATOM     14  C   UNL     1      -0.996 -12.166   1.439  0.00  0.00    +0.214 C 
ATOM     15  O   UNL     1      -2.083 -12.643   1.190  0.00  0.00    -0.276 OA
ATOM     16  N   UNL     1      -0.333 -12.544   2.550  0.00  0.00    -0.329 N 
ATOM     17  H   UNL     1       0.536 -12.162   2.750  0.00  0.00    +0.145 HD
ATOM     18  H   UNL     1      -0.725 -13.197   3.150  0.00  0.00    +0.145 HD
ENDBRANCH  11  14
ENDBRANCH   4   6
BRANCH   1  23
ATOM     19  C   UNL     1      -0.501   1.456   0.449  0.00  0.00    +0.044 C 
ATOM     20  C   UNL     1      -0.357  -0.039   0.329  0.00  0.00    -0.050 A 
ATOM     21  C   UNL     1      -0.567  -0.657  -0.890  0.00  0.00    +0.005 A 
ATOM     22  C   UNL     1      -0.435  -2.027  -1.003  0.00  0.00    +0.028 A 
ATOM     23  C   UNL     1      -0.091  -2.785   0.109  0.00  0.00    +0.068 A 
ATOM     24  C   UNL     1       0.120  -2.161   1.332  0.00  0.00    +0.028 A 
ATOM     25  C   UNL     1      -0.009  -0.790   1.437  0.00  0.00    +0.005 A 
ENDBRANCH   1  23
BRANCH   2  26
ATOM     26  C   UNL     1       1.934  -4.515   1.644  0.00  0.00    +0.172 A 
ATOM     27  C   UNL     1       2.622  -5.309   2.512  0.00  0.00    +0.053 A 
ATOM     28  C   UNL     1       3.466  -4.462   3.253  0.00  0.00    +0.042 A 
ATOM     29  C   UNL     1       3.257  -3.206   2.809  0.00  0.00    +0.196 A 
ATOM     30  O   UNL     1       2.335  -3.242   1.835  0.00  0.00    -0.460 OA
ENDBRANCH   2  26
TORSDOF 4
