REMARK  Name = ZINC41991842
REMARK  8 active torsions:
REMARK  status: ('A' for Active; 'I' for Inactive)
REMARK    1  A    between atoms: C_1  and  C_2
REMARK    2  A    between atoms: C_6  and  C_20
REMARK    3  A    between atoms: C_8  and  C_10
REMARK    4  A    between atoms: C_8  and  S_13
REMARK    5  A    between atoms: S_13  and  C_14
REMARK    6  A    between atoms: N_18  and  N_19
REMARK    7  A    between atoms: C_20  and  C_21
REMARK    8  A    between atoms: C_20  and  C_22
REMARK                            x       y       z     vdW  Elec       q    Type
REMARK                         _______ _______ _______ _____ _____    ______ ____
ROOT
ATOM      1  C   UNL     1       0.337   1.158  -1.734  0.00  0.00    +0.007 C 
ATOM      2  C   UNL     1       0.254  -0.284  -1.229  0.00  0.00    -0.012 C 
ATOM      3  C   UNL     1       0.950  -1.214  -2.225  0.00  0.00    +0.003 C 
ATOM      4  C   UNL     1       0.867  -2.656  -1.720  0.00  0.00    +0.006 C 
ATOM      5  C   UNL     1       1.555  -2.760  -0.357  0.00  0.00    +0.019 C 
ATOM      6  C   UNL     1       0.859  -1.830   0.638  0.00  0.00    +0.128 C 
ATOM      7  C   UNL     1       0.942  -0.388   0.133  0.00  0.00    +0.033 C 
ENDROOT
BRANCH   6   8
ATOM      8  C   UNL     1      -0.587  -2.232   0.774  0.00  0.00    +0.372 C 
ATOM      9  O   UNL     1      -1.034  -2.541   1.866  0.00  0.00    -0.245 OA
ATOM     10  O   UNL     1      -1.310  -2.248  -0.207  0.00  0.00    -0.245 OA
ENDBRANCH   6   8
BRANCH   5  11
ATOM     11  C   UNL     1       1.472  -4.202   0.147  0.00  0.00    -0.012 C 
ATOM     12  C   UNL     1       0.017  -4.673   0.107  0.00  0.00    +0.007 C 
ATOM     13  C   UNL     1       2.325  -5.105  -0.746  0.00  0.00    +0.007 C 
ENDBRANCH   5  11
BRANCH   6  14
ATOM     14  S   UNL     1       1.675  -1.953   2.253  0.00  0.00    -0.066 S 
BRANCH  14  15
ATOM     15  C   UNL     1       0.770  -0.839   3.275  0.00  0.00    +0.209 A 
ATOM     16  N   UNL     1      -0.260  -0.109   2.913  0.00  0.00    -0.121 NA
ATOM     17  N   UNL     1      -0.673   0.587   3.910  0.00  0.00    -0.135 NA
ATOM     18  C   UNL     1       0.061   0.346   4.960  0.00  0.00    +0.244 A 
ATOM     19  N   UNL     1       1.003  -0.576   4.594  0.00  0.00    -0.231 N 
BRANCH  19  20
ATOM     20  N   UNL     1       1.976  -1.117   5.384  0.00  0.00    -0.295 N 
ATOM     21  H   UNL     1       2.819  -0.563   5.351  0.00  0.00    +0.163 HD
ATOM     22  H   UNL     1       1.653  -1.226   6.334  0.00  0.00    +0.163 HD
ENDBRANCH  19  20
ENDBRANCH  14  15
ENDBRANCH   6  14
TORSDOF 5
