REMARK  Name = ZINC45599399
REMARK  8 active torsions:
REMARK  status: ('A' for Active; 'I' for Inactive)
REMARK    1  A    between atoms: C_1  and  C_2
REMARK    2  A    between atoms: C_11  and  N_29
REMARK    3  A    between atoms: C_13  and  S_15
REMARK    4  A    between atoms: S_15  and  C_16
REMARK    5  A    between atoms: C_16  and  C_18
REMARK    6  A    between atoms: C_16  and  C_19
REMARK    7  A    between atoms: N_25  and  C_26
REMARK    8  A    between atoms: N_25  and  C_27
REMARK                            x       y       z     vdW  Elec       q    Type
REMARK                         _______ _______ _______ _____ _____    ______ ____
ROOT
ATOM      1  C   UNL     1      -1.968   0.756   0.315  0.00  0.00    +0.008 C 
ATOM      2  C   UNL     1      -1.497  -0.696   0.209  0.00  0.00    -0.009 C 
ATOM      3  C   UNL     1      -0.576  -0.850  -1.005  0.00  0.00    +0.008 C 
ATOM      4  C   UNL     1      -0.302  -2.332  -1.262  0.00  0.00    +0.037 C 
ATOM      5  C   UNL     1       0.203  -2.973   0.028  0.00  0.00    -0.025 A 
ATOM      6  C   UNL     1      -0.006  -2.373   1.221  0.00  0.00    -0.004 A 
ATOM      7  S   UNL     1       0.733  -3.450   2.423  0.00  0.00    -0.073 S 
ATOM      8  C   UNL     1       1.322  -4.702   1.329  0.00  0.00    +0.115 A 
ATOM      9  C   UNL     1       0.920  -4.238   0.051  0.00  0.00    +0.051 A 
ATOM     10  C   UNL     1       1.260  -5.053  -1.068  0.00  0.00    +0.129 A 
ATOM     11  N   UNL     1       1.924  -6.173  -0.793  0.00  0.00    -0.207 NA
ATOM     12  C   UNL     1       2.268  -6.546   0.430  0.00  0.00    +0.192 A 
ATOM     13  N   UNL     1       1.980  -5.828   1.519  0.00  0.00    -0.214 NA
ATOM     14  C   UNL     1      -0.716  -1.077   1.474  0.00  0.00    +0.046 C 
ENDROOT
BRANCH  10  15
ATOM     15  N   UNL     1       0.919  -4.701  -2.361  0.00  0.00    -0.343 N 
ATOM     16  H   UNL     1       1.360  -5.128  -3.112  0.00  0.00    +0.144 HD
ATOM     17  H   UNL     1       0.239  -4.027  -2.518  0.00  0.00    +0.144 HD
ENDBRANCH  10  15
BRANCH  12  18
ATOM     18  S   UNL     1       3.146  -8.060   0.631  0.00  0.00    -0.075 S 
BRANCH  18  19
ATOM     19  C   UNL     1       3.321  -8.694  -1.060  0.00  0.00    +0.119 C 
ATOM     20  C   UNL     1       4.204  -7.745  -1.872  0.00  0.00    +0.028 C 
BRANCH  19  21
ATOM     21  C   UNL     1       3.955 -10.060  -1.021  0.00  0.00    +0.149 A 
ATOM     22  N   UNL     1       5.001 -10.280  -0.244  0.00  0.00    -0.198 NA
ATOM     23  C   UNL     1       5.563 -11.486  -0.207  0.00  0.00    +0.217 A 
ATOM     24  N   UNL     1       5.072 -12.469  -0.953  0.00  0.00    -0.181 NA
ATOM     25  C   UNL     1       4.021 -12.245  -1.733  0.00  0.00    +0.222 A 
ATOM     26  N   UNL     1       3.460 -11.037  -1.761  0.00  0.00    -0.198 NA
ATOM     27  N   UNL     1       3.507 -13.263  -2.510  0.00  0.00    -0.306 N 
ATOM     28  C   UNL     1       4.122 -14.592  -2.475  0.00  0.00    +0.132 C 
ATOM     29  C   UNL     1       2.348 -13.014  -3.370  0.00  0.00    +0.132 C 
ATOM     30  N   UNL     1       6.656 -11.714   0.605  0.00  0.00    -0.327 N 
ATOM     31  H   UNL     1       7.014 -10.995   1.149  0.00  0.00    +0.145 HD
ATOM     32  H   UNL     1       7.065 -12.592   0.632  0.00  0.00    +0.145 HD
ENDBRANCH  19  21
ENDBRANCH  18  19
ENDBRANCH  12  18
TORSDOF 4
