REMARK  Name = ZINC04892651
REMARK  10 active torsions:
REMARK  status: ('A' for Active; 'I' for Inactive)
REMARK    1  A    between atoms: C_1  and  C_2
REMARK    2  A    between atoms: N_4  and  C_5
REMARK    3  A    between atoms: C_7  and  O_29
REMARK    4  A    between atoms: C_9  and  O_28
REMARK    5  A    between atoms: C_11  and  C_26
REMARK    6  A    between atoms: C_14  and  O_16
REMARK    7  A    between atoms: O_16  and  C_17
REMARK    8  A    between atoms: C_22  and  C_23
REMARK    9  A    between atoms: C_23  and  C_24
REMARK   10  A    between atoms: C_26  and  O_27
REMARK                            x       y       z     vdW  Elec       q    Type
REMARK                         _______ _______ _______ _____ _____    ______ ____
ROOT
ATOM      1  C   UNL     1       1.422   2.047  -0.001  0.00  0.00    +0.173 C 
ATOM      2  C   UNL     1      -0.048   1.620   0.060  0.00  0.00    +0.172 C 
ATOM      3  C   UNL     1      -0.123   0.091   0.106  0.00  0.00    +0.176 C 
ATOM      4  C   UNL     1       0.600  -0.485  -1.115  0.00  0.00    +0.179 C 
ATOM      5  O   UNL     1       1.953  -0.025  -1.127  0.00  0.00    -0.332 OA
ATOM      6  C   UNL     1       2.085   1.395  -1.217  0.00  0.00    +0.331 C 
ENDROOT
BRANCH   1  10
ATOM      7  C   UNL     1       2.781   1.947   3.577  0.00  0.00    +0.109 C 
ATOM      8  C   UNL     1       2.076   2.391   2.321  0.00  0.00    +0.210 C 
ATOM      9  O   UNL     1       1.480   3.447   2.302  0.00  0.00    -0.276 OA
ATOM     10  N   UNL     1       2.108   1.615   1.220  0.00  0.00    -0.304 N 
ATOM     11  H   UNL     1       2.584   0.770   1.236  0.00  0.00    +0.149 HD
ENDBRANCH   1  10
BRANCH   3  12
ATOM     12  O   UNL     1       0.505  -0.382   1.299  0.00  0.00    -0.387 OA
ATOM     13  H   UNL     1       0.494  -1.344   1.395  0.00  0.00    +0.210 HD
ENDBRANCH   3  12
BRANCH   2  14
ATOM     14  O   UNL     1      -0.732   2.098  -1.101  0.00  0.00    -0.387 OA
ATOM     15  H   UNL     1      -1.668   1.858  -1.132  0.00  0.00    +0.210 HD
ENDBRANCH   2  14
BRANCH   6  16
ATOM     16  O   UNL     1       3.471   1.744  -1.249  0.00  0.00    -0.461 OA
BRANCH  16  17
ATOM     17  C   UNL     1       4.162   1.422  -2.373  0.00  0.00    +0.127 A 
ATOM     18  C   UNL     1       3.521   0.784  -3.425  0.00  0.00    +0.046 A 
ATOM     19  C   UNL     1       4.226   0.458  -4.567  0.00  0.00    +0.004 A 
ATOM     20  C   UNL     1       5.570   0.767  -4.663  0.00  0.00    +0.001 A 
ATOM     21  C   UNL     1       6.212   1.403  -3.616  0.00  0.00    +0.007 A 
ATOM     22  C   UNL     1       5.510   1.736  -2.474  0.00  0.00    -0.002 A 
BRANCH  22  23
ATOM     23  C   UNL     1       6.208   2.434  -1.336  0.00  0.00    +0.065 C 
BRANCH  23  24
ATOM     24  C   UNL     1       6.670   1.413  -0.328  0.00  0.00    -0.030 C 
ATOM     25  C   UNL     1       7.930   1.368   0.029  0.00  0.00    +0.004 C 
ENDBRANCH  23  24
ENDBRANCH  22  23
ENDBRANCH  16  17
ENDBRANCH   6  16
BRANCH   4  26
ATOM     26  C   UNL     1       0.581  -2.013  -1.045  0.00  0.00    +0.190 C 
BRANCH  26  27
ATOM     27  O   UNL     1       1.152  -2.551  -2.239  0.00  0.00    -0.392 OA
ATOM     28  H   UNL     1       1.173  -3.518  -2.264  0.00  0.00    +0.210 HD
ENDBRANCH  26  27
ENDBRANCH   4  26
TORSDOF 9
