REMARK  Name = ZINC37996677
REMARK  4 active torsions:
REMARK  status: ('A' for Active; 'I' for Inactive)
REMARK    1  A    between atoms: C_1  and  C_2
REMARK    2  A    between atoms: C_2  and  N_3
REMARK    3  A    between atoms: C_7  and  C_8
REMARK    4  A    between atoms: C_15  and  C_17
REMARK                            x       y       z     vdW  Elec       q    Type
REMARK                         _______ _______ _______ _____ _____    ______ ____
ROOT
ATOM      1  C   UNL     1      -1.079  -0.456   2.633  0.00  0.00    +0.264 C 
ATOM      2  O   UNL     1      -1.483  -0.449   3.781  0.00  0.00    -0.268 OA
ATOM      3  N   UNL     1      -1.859   0.016   1.640  0.00  0.00    -0.285 N 
ATOM      4  C   UNL     1      -1.322   0.189   0.284  0.00  0.00    +0.109 C 
ATOM      5  C   UNL     1      -1.587   1.627  -0.172  0.00  0.00    +0.019 C 
ATOM      6  C   UNL     1      -3.081   1.931  -0.044  0.00  0.00    +0.004 C 
ATOM      7  C   UNL     1      -3.506   1.802   1.421  0.00  0.00    +0.032 C 
ATOM      8  C   UNL     1      -3.265   0.360   1.893  0.00  0.00    +0.162 C 
ENDROOT
BRANCH   1  13
ATOM      9  N   UNL     1       1.347  -0.964   3.172  0.00  0.00    -0.342 N 
ATOM     10  C   UNL     1       2.395  -1.541   2.534  0.00  0.00    +0.101 A 
ATOM     11  C   UNL     1       2.000  -1.920   1.295  0.00  0.00    +0.036 A 
ATOM     12  C   UNL     1       0.653  -1.569   1.149  0.00  0.00    +0.047 A 
ATOM     13  C   UNL     1       0.258  -0.978   2.330  0.00  0.00    +0.106 A 
ATOM     14 BR   UNL     1       3.076  -2.773  -0.005  0.00  0.00    -0.049 Br
BRANCH   9  16
ATOM     15  C   UNL     1       0.886  -1.492   5.515  0.00  0.00    +0.027 C 
ATOM     16  C   UNL     1       1.368  -0.422   4.533  0.00  0.00    +0.118 C 
ENDBRANCH   9  16
ENDBRANCH   1  13
BRANCH   8  17
ATOM     17  C   UNL     1      -3.554   0.255   3.368  0.00  0.00    +0.231 C 
ATOM     18  O   UNL     1      -3.059   1.047   4.141  0.00  0.00    -0.274 OA
ATOM     19  N   UNL     1      -4.362  -0.721   3.828  0.00  0.00    -0.328 N 
ATOM     20  H   UNL     1      -4.758  -1.354   3.210  0.00  0.00    +0.145 HD
ATOM     21  H   UNL     1      -4.548  -0.788   4.778  0.00  0.00    +0.145 HD
ENDBRANCH   8  17
TORSDOF 3
