REMARK  Name = ZINC39469829
REMARK  8 active torsions:
REMARK  status: ('A' for Active; 'I' for Inactive)
REMARK    1  A    between atoms: C_1  and  C_2
REMARK    2  A    between atoms: C_2  and  C_3
REMARK    3  A    between atoms: C_2  and  S_4
REMARK    4  A    between atoms: S_4  and  P_7
REMARK    5  A    between atoms: C_15  and  C_32
REMARK    6  A    between atoms: C_16  and  C_25
REMARK    7  A    between atoms: C_30  and  O_31
REMARK    8  A    between atoms: C_32  and  C_33
REMARK                            x       y       z     vdW  Elec       q    Type
REMARK                         _______ _______ _______ _____ _____    ______ ____
ROOT
ATOM      1  P   UNL     1      -1.503  -2.736   0.180  0.00  0.00    +0.392 P 
ATOM      2  O   UNL     1      -0.782  -3.277  -0.994  0.00  0.00    -0.249 OA
ATOM      3  N   UNL     1      -2.989  -3.441   0.319  0.00  0.00    -0.274 NA
ATOM      4  N   UNL     1      -3.613  -3.390   1.547  0.00  0.00    +0.398 N 
ATOM      5  C   UNL     1      -4.845  -4.183   1.411  0.00  0.00    -0.046 C 
ATOM      6  C   UNL     1      -5.637  -4.186   2.712  0.00  0.00    +0.005 C 
ATOM      7  C   UNL     1      -6.031  -2.784   3.092  0.00  0.00    -0.020 C 
ATOM      8  C   UNL     1      -6.323  -2.503   4.357  0.00  0.00    -0.039 C 
ATOM      9  C   UNL     1      -6.268  -3.578   5.372  0.00  0.00    -0.015 C 
ATOM     10  C   UNL     1      -5.533  -4.676   5.133  0.00  0.00    -0.014 C 
ATOM     11  C   UNL     1      -4.778  -4.783   3.830  0.00  0.00    +0.016 C 
ATOM     12  C   UNL     1      -3.483  -3.977   3.932  0.00  0.00    -0.003 C 
ATOM     13  C   UNL     1      -2.751  -3.961   2.585  0.00  0.00    -0.020 C 
ATOM     14  C   UNL     1      -1.475  -3.130   2.776  0.00  0.00    +0.158 C 
ATOM     15  O   UNL     1      -0.718  -3.124   1.552  0.00  0.00    -0.304 OA
ATOM     16  H   UNL     1      -3.409  -3.877  -0.439  0.00  0.00    +0.112 HD
ATOM     17  H   UNL     1      -3.833  -2.433   1.777  0.00  0.00    -0.055 HD
ENDROOT
BRANCH   9  18
ATOM     18  C   UNL     1      -7.019  -3.443   6.644  0.00  0.00    +0.024 A 
ATOM     19  C   UNL     1      -6.558  -2.586   7.641  0.00  0.00    +0.012 A 
ATOM     20  C   UNL     1      -7.260  -2.464   8.822  0.00  0.00    +0.001 A 
ATOM     21  C   UNL     1      -8.421  -3.191   9.021  0.00  0.00    +0.004 A 
ATOM     22  C   UNL     1      -8.887  -4.045   8.039  0.00  0.00    +0.046 A 
ATOM     23  C   UNL     1      -8.195  -4.172   6.845  0.00  0.00    +0.125 A 
BRANCH  23  24
ATOM     24  O   UNL     1      -8.654  -5.007   5.877  0.00  0.00    -0.506 OA
ATOM     25  H   UNL     1      -8.318  -5.910   5.944  0.00  0.00    +0.292 HD
ENDBRANCH  23  24
ENDBRANCH   9  18
BRANCH   1  26
ATOM     26  S   UNL     1      -1.700  -0.632   0.015  0.00  0.00    +0.056 S 
ATOM     27  O   UNL     1      -2.359  -0.234   1.209  0.00  0.00    -0.164 OA
ATOM     28  O   UNL     1      -2.308  -0.423  -1.252  0.00  0.00    -0.164 OA
BRANCH  26  30
ATOM     29  C   UNL     1      -0.019   1.526   0.010  0.00  0.00    +0.032 C 
ATOM     30  C   UNL     1       0.002  -0.004   0.002  0.00  0.00    +0.135 C 
ATOM     31  C   UNL     1       0.742  -0.511   1.242  0.00  0.00    +0.032 C 
ENDBRANCH  26  30
ENDBRANCH   1  26
BRANCH   8  32
ATOM     32  C   UNL     1      -6.707  -1.101   4.755  0.00  0.00    +0.070 C 
BRANCH  32  33
ATOM     33  C   UNL     1      -8.208  -0.973   4.759  0.00  0.00    -0.043 A 
ATOM     34  C   UNL     1      -8.872  -0.586   3.609  0.00  0.00    +0.004 A 
ATOM     35  C   UNL     1     -10.249  -0.469   3.612  0.00  0.00    +0.000 A 
ATOM     36  C   UNL     1     -10.963  -0.738   4.765  0.00  0.00    +0.000 A 
ATOM     37  C   UNL     1     -10.300  -1.126   5.914  0.00  0.00    +0.000 A 
ATOM     38  C   UNL     1      -8.923  -1.248   5.910  0.00  0.00    +0.004 A 
ENDBRANCH  32  33
ENDBRANCH   8  32
TORSDOF 6
