REMARK  Name = ZINC63573153
REMARK  6 active torsions:
REMARK  status: ('A' for Active; 'I' for Inactive)
REMARK    1  A    between atoms: C_1  and  C_2
REMARK    2  A    between atoms: C_6  and  N_9
REMARK    3  A    between atoms: C_7  and  C_8
REMARK    4  A    between atoms: C_18  and  O_34
REMARK    5  A    between atoms: C_25  and  C_27
REMARK    6  A    between atoms: O_34  and  C_35
REMARK                            x       y       z     vdW  Elec       q    Type
REMARK                         _______ _______ _______ _____ _____    ______ ____
ROOT
ATOM      1  N   UNL     1      -1.726  -3.212   2.354  0.00  0.00    -0.269 N 
ATOM      2  C   UNL     1      -1.203  -4.454   2.375  0.00  0.00    +0.307 C 
ATOM      3  O   UNL     1      -1.101  -5.088   1.343  0.00  0.00    -0.252 OA
ATOM      4  N   UNL     1      -0.793  -4.993   3.541  0.00  0.00    -0.276 N 
ATOM      5  C   UNL     1      -1.050  -4.283   4.798  0.00  0.00    +0.114 C 
ATOM      6  C   UNL     1       0.284  -4.026   5.523  0.00  0.00    +0.052 C 
ATOM      7  C   UNL     1       1.064  -5.316   5.465  0.00  0.00    -0.035 C 
ATOM      8  C   UNL     1       1.653  -6.028   6.417  0.00  0.00    +0.003 A 
ATOM      9  C   UNL     1       1.857  -5.774   7.851  0.00  0.00    +0.055 A 
ATOM     10  C   UNL     1       2.498  -6.745   8.558  0.00  0.00    +0.121 A 
ATOM     11  C   UNL     1       2.962  -7.945   8.000  0.00  0.00    +0.047 A 
ATOM     12  C   UNL     1       2.835  -8.277   6.690  0.00  0.00    +0.029 A 
ATOM     13  C   UNL     1       2.163  -7.302   5.820  0.00  0.00    +0.043 A 
ATOM     14  N   UNL     1       1.922  -7.336   4.545  0.00  0.00    -0.375 N 
ATOM     15  C   UNL     1       1.290  -6.072   4.161  0.00  0.00    +0.131 C 
ATOM     16  C   UNL     1      -0.099  -6.290   3.538  0.00  0.00    +0.134 C 
ATOM     17  H   UNL     1      -1.733  -2.675   3.162  0.00  0.00    +0.156 HD
ATOM     18  H   UNL     1       2.126  -8.072   3.948  0.00  0.00    +0.160 HD
ENDROOT
BRANCH   1  24
ATOM     19  C   UNL     1      -4.878  -0.194   0.089  0.00  0.00    +0.044 C 
ATOM     20  C   UNL     1      -3.788  -1.233   0.040  0.00  0.00    -0.046 A 
ATOM     21  C   UNL     1      -3.314  -1.679  -1.180  0.00  0.00    +0.004 A 
ATOM     22  C   UNL     1      -2.314  -2.633  -1.229  0.00  0.00    +0.002 A 
ATOM     23  C   UNL     1      -1.785  -3.143  -0.059  0.00  0.00    +0.023 A 
ATOM     24  C   UNL     1      -2.260  -2.697   1.167  0.00  0.00    +0.038 A 
ATOM     25  C   UNL     1      -3.260  -1.735   1.214  0.00  0.00    -0.026 A 
ATOM     26  C   UNL     1      -3.773  -1.243   2.542  0.00  0.00    +0.046 C 
ENDBRANCH   1  24
BRANCH  16  27
ATOM     27  C   UNL     1       0.046  -6.789   2.123  0.00  0.00    -0.025 A 
ATOM     28  C   UNL     1       0.820  -6.085   1.219  0.00  0.00    +0.008 A 
ATOM     29  C   UNL     1       0.954  -6.542  -0.078  0.00  0.00    +0.038 A 
ATOM     30  C   UNL     1       0.313  -7.704  -0.472  0.00  0.00    +0.123 A 
ATOM     31  C   UNL     1      -0.462  -8.408   0.434  0.00  0.00    +0.038 A 
ATOM     32  C   UNL     1      -0.590  -7.952   1.733  0.00  0.00    +0.008 A 
ATOM     33  F   UNL     1       0.443  -8.151  -1.741  0.00  0.00    -0.205 F 
ENDBRANCH  16  27
BRANCH  10  34
ATOM     34  O   UNL     1       2.702  -6.538   9.886  0.00  0.00    -0.495 OA
ATOM     35  C   UNL     1       3.377  -7.570  10.607  0.00  0.00    +0.277 C 
ENDBRANCH  10  34
TORSDOF 3
