REMARK  Name = ZINC54539726
REMARK  9 active torsions:
REMARK  status: ('A' for Active; 'I' for Inactive)
REMARK    1  A    between atoms: C_1  and  O_2
REMARK    2  A    between atoms: O_2  and  C_3
REMARK    3  A    between atoms: C_7  and  C_10
REMARK    4  A    between atoms: C_8  and  O_9
REMARK    5  A    between atoms: N_12  and  N_13
REMARK    6  A    between atoms: N_16  and  C_17
REMARK    7  A    between atoms: C_17  and  C_18
REMARK    8  A    between atoms: C_18  and  C_20
REMARK    9  A    between atoms: C_18  and  N_25
REMARK                            x       y       z     vdW  Elec       q    Type
REMARK                         _______ _______ _______ _____ _____    ______ ____
ROOT
ATOM      1  N   UNL     1      -3.831  -6.171   0.135  0.00  0.00    -0.218 N 
ATOM      2  C   UNL     1      -5.028  -6.778   0.265  0.00  0.00    +0.316 C 
ATOM      3  O   UNL     1      -5.082  -7.968   0.512  0.00  0.00    -0.251 OA
ATOM      4  N   UNL     1      -6.163  -6.067   0.121  0.00  0.00    -0.299 N 
ATOM      5  H   UNL     1      -3.014  -6.683   0.239  0.00  0.00    +0.174 HD
ATOM      6  H   UNL     1      -6.120  -5.118  -0.076  0.00  0.00    +0.150 HD
ENDROOT
BRANCH   1   9
ATOM      7  C   UNL     1      -2.572  -4.194  -0.279  0.00  0.00    +0.264 C 
ATOM      8  O   UNL     1      -1.547  -4.836  -0.149  0.00  0.00    -0.269 OA
ATOM      9  N   UNL     1      -3.768  -4.801  -0.149  0.00  0.00    -0.229 N 
ATOM     10  H   UNL     1      -4.586  -4.289  -0.253  0.00  0.00    +0.173 HD
BRANCH   7  15
ATOM     11  C   UNL     1      -1.214  -0.755  -0.996  0.00  0.00    +0.162 A 
ATOM     12  C   UNL     1      -2.388  -0.035  -1.142  0.00  0.00    +0.049 A 
ATOM     13  C   UNL     1      -3.615  -0.662  -1.009  0.00  0.00    +0.005 A 
ATOM     14  C   UNL     1      -3.681  -2.010  -0.730  0.00  0.00    +0.017 A 
ATOM     15  C   UNL     1      -2.506  -2.751  -0.579  0.00  0.00    +0.083 A 
ATOM     16  C   UNL     1      -1.265  -2.118  -0.720  0.00  0.00    +0.171 A 
BRANCH  11  18
ATOM     17  C   UNL     1      -0.036   1.268  -1.413  0.00  0.00    +0.277 C 
ATOM     18  O   UNL     1      -0.013  -0.132  -1.129  0.00  0.00    -0.491 OA
ENDBRANCH  11  18
BRANCH  16  19
ATOM     19  O   UNL     1      -0.117  -2.829  -0.582  0.00  0.00    -0.503 OA
ATOM     20  H   UNL     1       0.221  -2.860   0.324  0.00  0.00    +0.292 HD
ENDBRANCH  16  19
ENDBRANCH   7  15
ENDBRANCH   1   9
BRANCH   4  21
ATOM     21  C   UNL     1      -7.464  -6.727   0.262  0.00  0.00    +0.098 C 
BRANCH  21  22
ATOM     22  C   UNL     1      -8.578  -5.681   0.186  0.00  0.00    +0.016 C 
BRANCH  22  23
ATOM     23  N   UNL     1      -9.883  -6.354   0.195  0.00  0.00    +0.387 N 
ATOM     24  C   UNL     1     -10.977  -5.351   0.116  0.00  0.00    -0.078 C 
ATOM     25  C   UNL     1     -12.173  -6.174  -0.423  0.00  0.00    -0.020 C 
ATOM     26  C   UNL     1     -11.505  -7.135  -1.434  0.00  0.00    -0.020 C 
ATOM     27  C   UNL     1     -10.027  -7.204  -1.006  0.00  0.00    -0.078 C 
ATOM     28  H   UNL     1      -9.982  -6.912   1.030  0.00  0.00    -0.081 HD
ENDBRANCH  22  23
BRANCH  22  29
ATOM     29  C   UNL     1      -8.480  -4.756   1.373  0.00  0.00    +0.093 A 
ATOM     30  C   UNL     1      -7.936  -3.526   1.369  0.00  0.00    +0.043 A 
ATOM     31  C   UNL     1      -8.058  -3.021   2.684  0.00  0.00    +0.041 A 
ATOM     32  C   UNL     1      -8.668  -3.973   3.412  0.00  0.00    +0.195 A 
ATOM     33  O   UNL     1      -8.927  -5.019   2.611  0.00  0.00    -0.469 OA
ENDBRANCH  22  29
ENDBRANCH  21  22
ENDBRANCH   4  21
TORSDOF 8
