REMARK  Name = ZINC66151727
REMARK  5 active torsions:
REMARK  status: ('A' for Active; 'I' for Inactive)
REMARK    1  A    between atoms: C_5  and  O_7
REMARK    2  A    between atoms: O_7  and  C_8
REMARK    3  A    between atoms: C_8  and  C_9
REMARK    4  A    between atoms: C_15  and  C_18
REMARK    5  A    between atoms: N_20  and  N_21
REMARK                            x       y       z     vdW  Elec       q    Type
REMARK                         _______ _______ _______ _____ _____    ______ ____
ROOT
ATOM      1  C   UNL     1       0.191  -4.198  -0.023  0.00  0.00    +0.253 C 
ATOM      2  O   UNL     1       1.319  -4.645  -0.037  0.00  0.00    -0.272 OA
ATOM      3  N   UNL     1      -0.865  -5.036  -0.017  0.00  0.00    -0.298 N 
ATOM      4  C   UNL     1      -2.237  -4.510  -0.006  0.00  0.00    +0.108 C 
ATOM      5  C   UNL     1      -3.013  -5.135  -1.169  0.00  0.00    +0.020 C 
ATOM      6  C   UNL     1      -2.924  -6.660  -1.076  0.00  0.00    +0.016 C 
ATOM      7  C   UNL     1      -1.460  -7.094  -1.184  0.00  0.00    +0.094 C 
ATOM      8  C   UNL     1      -0.666  -6.491  -0.027  0.00  0.00    +0.120 C 
ENDROOT
BRANCH   7   9
ATOM      9  C   UNL     1      -1.376  -8.598  -1.125  0.00  0.00    +0.231 C 
ATOM     10  O   UNL     1      -2.387  -9.258  -1.009  0.00  0.00    -0.274 OA
ATOM     11  N   UNL     1      -0.177  -9.209  -1.202  0.00  0.00    -0.253 N 
ATOM     12  H   UNL     1       0.631  -8.681  -1.296  0.00  0.00    +0.169 HD
BRANCH  11  13
ATOM     13  N   UNL     1      -0.101 -10.572  -1.149  0.00  0.00    -0.254 NA
ATOM     14  H   UNL     1      -0.671 -10.994  -1.867  0.00  0.00    +0.140 HD
ATOM     15  H   UNL     1       0.856 -10.883  -1.219  0.00  0.00    +0.140 HD
ENDBRANCH  11  13
ENDBRANCH   7   9
BRANCH   1  16
ATOM     16  C   UNL     1      -0.029  -2.708  -0.012  0.00  0.00    +0.324 C 
BRANCH  16  17
ATOM     17  O   UNL     1       1.234  -2.039  -0.021  0.00  0.00    -0.481 OA
BRANCH  17  22
ATOM     18  C   UNL     1      -0.017   1.377   0.010  0.00  0.00    +0.004 A 
ATOM     19  C   UNL     1       1.170   2.087   0.002  0.00  0.00    +0.002 A 
ATOM     20  C   UNL     1       2.379   1.416  -0.013  0.00  0.00    +0.023 A 
ATOM     21  C   UNL     1       2.404   0.034  -0.021  0.00  0.00    +0.083 A 
ATOM     22  C   UNL     1       1.213  -0.680  -0.013  0.00  0.00    +0.139 A 
ATOM     23  C   UNL     1       0.002  -0.004   0.002  0.00  0.00    +0.047 A 
ATOM     24 CL   UNL     1       3.922  -0.809  -0.041  0.00  0.00    -0.080 Cl
ENDBRANCH  17  22
ENDBRANCH  16  17
ENDBRANCH   1  16
TORSDOF 5
