REMARK  Name = ZINC64349212
REMARK  8 active torsions:
REMARK  status: ('A' for Active; 'I' for Inactive)
REMARK    1  A    between atoms: C_1  and  C_2
REMARK    2  A    between atoms: C_5  and  N_9
REMARK    3  A    between atoms: C_6  and  C_8
REMARK    4  A    between atoms: C_10  and  C_12
REMARK    5  A    between atoms: C_12  and  C_14
REMARK    6  A    between atoms: C_12  and  N_24
REMARK    7  A    between atoms: C_14  and  C_15
REMARK    8  A    between atoms: C_25  and  C_27
REMARK                            x       y       z     vdW  Elec       q    Type
REMARK                         _______ _______ _______ _____ _____    ______ ____
ROOT
ATOM      1  C   UNL     1       0.146  -6.065  -1.061  0.00  0.00    +0.163 C 
ENDROOT
BRANCH   1   3
ATOM      2  N   UNL     1      -0.017  -4.235   0.595  0.00  0.00    -0.284 N 
ATOM      3  C   UNL     1       0.098  -4.604  -0.696  0.00  0.00    +0.238 C 
ATOM      4  O   UNL     1       0.163  -3.760  -1.565  0.00  0.00    -0.273 OA
ATOM      5  H   UNL     1       0.009  -4.905   1.295  0.00  0.00    +0.155 HD
BRANCH   2  10
ATOM      6  C   UNL     1      -0.652   1.241   1.934  0.00  0.00    +0.044 C 
ATOM      7  C   UNL     1      -0.483  -0.213   1.578  0.00  0.00    -0.050 A 
ATOM      8  C   UNL     1       0.287  -0.572   0.487  0.00  0.00    +0.005 A 
ATOM      9  C   UNL     1       0.443  -1.904   0.158  0.00  0.00    +0.024 A 
ATOM     10  C   UNL     1      -0.173  -2.884   0.926  0.00  0.00    +0.036 A 
ATOM     11  C   UNL     1      -0.945  -2.521   2.021  0.00  0.00    -0.029 A 
ATOM     12  C   UNL     1      -1.094  -1.187   2.347  0.00  0.00    +0.008 A 
ATOM     13  C   UNL     1      -1.615  -3.581   2.857  0.00  0.00    +0.045 C 
ENDBRANCH   2  10
ENDBRANCH   1   3
BRANCH   1  14
ATOM     14  N   UNL     1       0.272  -6.202  -2.514  0.00  0.00    -0.302 N 
ATOM     15  C   UNL     1       1.479  -6.082  -3.100  0.00  0.00    +0.231 C 
ATOM     16  O   UNL     1       2.474  -5.950  -2.418  0.00  0.00    -0.274 OA
ATOM     17  H   UNL     1      -0.514  -6.379  -3.054  0.00  0.00    +0.150 HD
BRANCH  15  18
ATOM     18  C   UNL     1       1.594  -6.112  -4.602  0.00  0.00    +0.145 C 
ATOM     19  C   UNL     1       1.470  -7.553  -5.098  0.00  0.00    +0.063 C 
ATOM     20  C   UNL     1       1.823  -7.625  -6.562  0.00  0.00    -0.041 A 
ATOM     21  C   UNL     1       1.437  -8.746  -7.281  0.00  0.00    +0.004 A 
ATOM     22  C   UNL     1       1.744  -8.854  -8.622  0.00  0.00    +0.000 A 
ATOM     23  C   UNL     1       2.439  -7.839  -9.253  0.00  0.00    +0.000 A 
ATOM     24  C   UNL     1       2.821  -6.721  -8.539  0.00  0.00    +0.005 A 
ATOM     25  C   UNL     1       2.512  -6.610  -7.191  0.00  0.00    -0.030 A 
ATOM     26  C   UNL     1       2.941  -5.367  -6.457  0.00  0.00    +0.117 C 
ATOM     27  N   UNL     1       2.906  -5.584  -5.009  0.00  0.00    -0.301 NA
ATOM     28  H   UNL     1       3.126  -4.736  -4.508  0.00  0.00    +0.123 HD
ENDBRANCH  15  18
ENDBRANCH   1  14
BRANCH   1  29
ATOM     29  C   UNL     1      -1.140  -6.750  -0.593  0.00  0.00    +0.065 C 
BRANCH  29  30
ATOM     30  C   UNL     1      -1.048  -8.229  -0.864  0.00  0.00    -0.039 C 
ATOM     31  C   UNL     1      -0.641  -9.190  -0.004  0.00  0.00    -0.001 A 
ATOM     32  C   UNL     1      -0.178  -9.146   1.389  0.00  0.00    +0.010 A 
ATOM     33  C   UNL     1       0.171 -10.301   2.001  0.00  0.00    +0.001 A 
ATOM     34  C   UNL     1       0.101 -11.535   1.340  0.00  0.00    +0.002 A 
ATOM     35  C   UNL     1      -0.315 -11.656   0.061  0.00  0.00    +0.026 A 
ATOM     36  C   UNL     1      -0.706 -10.506  -0.678  0.00  0.00    +0.043 A 
ATOM     37  N   UNL     1      -1.137 -10.364  -1.909  0.00  0.00    -0.380 N 
ATOM     38  C   UNL     1      -1.400  -8.941  -2.151  0.00  0.00    +0.144 C 
ATOM     39  H   UNL     1      -1.264 -11.081  -2.550  0.00  0.00    +0.160 HD
ENDBRANCH  29  30
ENDBRANCH   1  29
TORSDOF 6
