REMARK  Name = ZINC13524266
REMARK  5 active torsions:
REMARK  status: ('A' for Active; 'I' for Inactive)
REMARK    1  A    between atoms: C_13  and  N_17
REMARK    2  A    between atoms: C_18  and  C_20
REMARK    3  A    between atoms: C_20  and  O_21
REMARK    4  A    between atoms: O_21  and  C_22
REMARK    5  A    between atoms: C_22  and  C_24
REMARK                            x       y       z     vdW  Elec       q    Type
REMARK                         _______ _______ _______ _____ _____    ______ ____
ROOT
ATOM      1  N   UNL     1       2.434   5.475   0.007  0.00  0.00    -0.282 N 
ATOM      2  C   UNL     1       3.484   6.157  -0.493  0.00  0.00    +0.255 C 
ATOM      3  O   UNL     1       4.393   5.561  -1.031  0.00  0.00    -0.272 OA
ATOM      4  H   UNL     1       1.671   5.955   0.365  0.00  0.00    +0.155 HD
ENDROOT
BRANCH   1  17
ATOM      5  C   UNL     1      -3.693   1.893   0.002  0.00  0.00    +0.001 A 
ATOM      6  C   UNL     1      -3.716   3.275  -0.001  0.00  0.00    +0.001 A 
ATOM      7  C   UNL     1      -2.534   3.996   0.015  0.00  0.00    +0.012 A 
ATOM      8  C   UNL     1      -1.314   3.327   0.015  0.00  0.00    +0.033 A 
ATOM      9  C   UNL     1      -1.291   1.921   0.012  0.00  0.00    +0.033 A 
ATOM     10  C   UNL     1      -2.489   1.212   0.008  0.00  0.00    +0.012 A 
ATOM     11  C   UNL     1       0.000   1.202   0.018  0.00  0.00    +0.195 C 
ATOM     12  O   UNL     1       0.021  -0.013   0.021  0.00  0.00    -0.287 OA
ATOM     13  C   UNL     1       1.266   1.965   0.016  0.00  0.00    +0.035 A 
ATOM     14  C   UNL     1       2.486   1.297   0.016  0.00  0.00    +0.012 A 
ATOM     15  C   UNL     1       3.672   2.015   0.014  0.00  0.00    +0.003 A 
ATOM     16  C   UNL     1       3.656   3.394   0.011  0.00  0.00    +0.024 A 
ATOM     17  C   UNL     1       2.446   4.085   0.011  0.00  0.00    +0.045 A 
ATOM     18  C   UNL     1       1.241   3.372   0.013  0.00  0.00    +0.054 A 
ATOM     19  C   UNL     1      -0.047   4.088   0.013  0.00  0.00    +0.196 C 
ATOM     20  O   UNL     1      -0.067   5.303   0.011  0.00  0.00    -0.287 OA
ENDBRANCH   1  17
BRANCH   2  21
ATOM     21  C   UNL     1       3.529   7.659  -0.384  0.00  0.00    +0.328 C 
BRANCH  21  22
ATOM     22  O   UNL     1       4.751   8.152  -0.992  0.00  0.00    -0.452 OA
BRANCH  22  23
ATOM     23  C   UNL     1       4.947   9.486  -0.979  0.00  0.00    +0.346 C 
ATOM     24  O   UNL     1       4.118  10.217  -0.471  0.00  0.00    -0.245 OA
BRANCH  23  25
ATOM     25  C   UNL     1       6.161  10.057  -1.576  0.00  0.00    +0.139 A 
ATOM     26  C   UNL     1       6.379  11.422  -1.578  0.00  0.00    +0.107 A 
ATOM     27  N   UNL     1       7.516  11.913  -2.135  0.00  0.00    -0.314 N 
ATOM     28  H   UNL     1       7.677  12.900  -2.128  0.00  0.00    +0.170 HD
ATOM     29  C   UNL     1       8.429  11.104  -2.695  0.00  0.00    +0.327 A 
ATOM     30  O   UNL     1       9.428  11.594  -3.184  0.00  0.00    -0.247 OA
ATOM     31  N   UNL     1       8.276   9.769  -2.731  0.00  0.00    -0.274 N 
ATOM     32  H   UNL     1       8.979   9.199  -3.157  0.00  0.00    +0.173 HD
ATOM     33  C   UNL     1       7.179   9.192  -2.196  0.00  0.00    +0.268 A 
ATOM     34  O   UNL     1       7.034   7.984  -2.226  0.00  0.00    -0.267 OA
ENDBRANCH  23  25
ENDBRANCH  22  23
ENDBRANCH  21  22
ENDBRANCH   2  21
TORSDOF 5
