REMARK  Name = ZINC40483322
REMARK  7 active torsions:
REMARK  status: ('A' for Active; 'I' for Inactive)
REMARK    1  A    between atoms: C_1  and  C_2
REMARK    2  A    between atoms: C_2  and  C_3
REMARK    3  A    between atoms: C_3  and  C_4
REMARK    4  A    between atoms: C_4  and  C_6
REMARK    5  A    between atoms: C_4  and  N_18
REMARK    6  A    between atoms: N_8  and  C_9
REMARK    7  A    between atoms: C_12  and  C_15
REMARK                            x       y       z     vdW  Elec       q    Type
REMARK                         _______ _______ _______ _____ _____    ______ ____
ROOT
ATOM      1  C   UNL     1      -2.820  -2.586   0.139  0.00  0.00    +0.199 C 
ATOM      2  O   UNL     1      -3.423  -2.963  -0.843  0.00  0.00    -0.278 OA
ATOM      3  N   UNL     1      -3.408  -2.634   1.351  0.00  0.00    -0.314 N 
ATOM      4  H   UNL     1      -2.925  -2.332   2.136  0.00  0.00    +0.149 HD
ENDROOT
BRANCH   3   5
ATOM      5  C   UNL     1      -4.776  -3.142   1.481  0.00  0.00    +0.073 C 
ATOM      6  C   UNL     1      -5.768  -2.010   1.207  0.00  0.00    +0.023 C 
ATOM      7  C   UNL     1      -7.197  -2.540   1.344  0.00  0.00    +0.016 C 
ATOM      8  C   UNL     1      -7.410  -3.073   2.762  0.00  0.00    +0.102 C 
ATOM      9  C   UNL     1      -6.417  -4.205   3.036  0.00  0.00    +0.016 C 
ATOM     10  C   UNL     1      -4.989  -3.674   2.900  0.00  0.00    +0.023 C 
BRANCH   8  11
ATOM     11  C   UNL     1      -8.817  -3.595   2.897  0.00  0.00    +0.359 C 
ATOM     12  O   UNL     1      -9.057  -4.510   3.666  0.00  0.00    -0.246 OA
ATOM     13  O   UNL     1      -9.716  -3.103   2.236  0.00  0.00    -0.246 OA
ENDBRANCH   8  11
ENDBRANCH   3   5
BRANCH   1  14
ATOM     14  C   UNL     1      -1.413  -2.063   0.004  0.00  0.00    +0.013 C 
BRANCH  14  15
ATOM     15  N   UNL     1      -0.833  -2.538  -1.259  0.00  0.00    +0.386 N 
ATOM     16  H   UNL     1      -0.819  -3.547  -1.264  0.00  0.00    -0.089 HD
ATOM     17  H   UNL     1      -1.390  -2.205  -2.031  0.00  0.00    -0.089 HD
ATOM     18  H   UNL     1       0.110  -2.189  -1.349  0.00  0.00    -0.089 HD
ENDBRANCH  14  15
BRANCH  14  19
ATOM     19  C   UNL     1      -1.433  -0.534   0.013  0.00  0.00    -0.007 C 
BRANCH  19  21
ATOM     20  C   UNL     1      -0.019   1.526   0.010  0.00  0.00    +0.004 C 
ATOM     21  C   UNL     1       0.002  -0.004   0.002  0.00  0.00    -0.005 C 
ENDBRANCH  19  21
ENDBRANCH  14  19
ENDBRANCH   1  14
TORSDOF 6
