REMARK  Name = ZINC53004219
REMARK  6 active torsions:
REMARK  status: ('A' for Active; 'I' for Inactive)
REMARK    1  A    between atoms: C_1  and  C_2
REMARK    2  A    between atoms: C_5  and  N_20
REMARK    3  A    between atoms: C_6  and  C_8
REMARK    4  A    between atoms: C_12  and  C_19
REMARK    5  A    between atoms: C_15  and  C_17
REMARK    6  A    between atoms: C_15  and  C_18
REMARK                            x       y       z     vdW  Elec       q    Type
REMARK                         _______ _______ _______ _____ _____    ______ ____
ROOT
ATOM      1  C   UNL     1       0.045  -2.831   2.449  0.00  0.00    +0.249 C 
ATOM      2  O   UNL     1       0.171  -4.040   2.449  0.00  0.00    -0.270 OA
ATOM      3  N   UNL     1      -0.070  -2.165   3.615  0.00  0.00    -0.292 N 
ATOM      4  C   UNL     1      -0.323  -0.716   3.638  0.00  0.00    +0.139 C 
ATOM      5  C   UNL     1       0.703  -0.060   4.569  0.00  0.00    +0.133 C 
ATOM      6  O   UNL     1       0.686  -0.728   5.833  0.00  0.00    -0.368 OA
ATOM      7  C   UNL     1       1.062  -2.106   5.772  0.00  0.00    +0.080 C 
ATOM      8  C   UNL     1       0.048  -2.867   4.903  0.00  0.00    +0.142 C 
ATOM      9  C   UNL     1       1.067  -2.696   7.183  0.00  0.00    +0.043 C 
ATOM     10  C   UNL     1       2.459  -2.228   5.160  0.00  0.00    +0.043 C 
ATOM     11  C   UNL     1       0.347   1.415   4.763  0.00  0.00    +0.039 C 
ENDROOT
BRANCH   1  17
ATOM     12  C   UNL     1      -2.232   0.345  -0.647  0.00  0.00    +0.044 C 
ATOM     13  C   UNL     1      -1.074  -0.563  -0.324  0.00  0.00    -0.050 A 
ATOM     14  C   UNL     1      -0.034  -0.704  -1.229  0.00  0.00    +0.005 A 
ATOM     15  C   UNL     1       1.031  -1.533  -0.946  0.00  0.00    +0.024 A 
ATOM     16  C   UNL     1       1.069  -2.234   0.253  0.00  0.00    +0.037 A 
ATOM     17  C   UNL     1       0.018  -2.093   1.173  0.00  0.00    +0.058 A 
ATOM     18  C   UNL     1      -1.052  -1.245   0.873  0.00  0.00    +0.018 A 
BRANCH  16  19
ATOM     19  N   UNL     1       2.140  -3.069   0.540  0.00  0.00    -0.357 N 
ATOM     20  H   UNL     1       2.828  -3.222  -0.126  0.00  0.00    +0.142 HD
ATOM     21  H   UNL     1       2.200  -3.500   1.407  0.00  0.00    +0.142 HD
ENDBRANCH  16  19
ENDBRANCH   1  17
TORSDOF 2
