REMARK  Name = ZINC17111188
REMARK  2 active torsions:
REMARK  status: ('A' for Active; 'I' for Inactive)
REMARK    1  A    between atoms: C_11  and  O_16
REMARK    2  A    between atoms: C_14  and  O_15
REMARK                            x       y       z     vdW  Elec       q    Type
REMARK                         _______ _______ _______ _____ _____    ______ ____
ROOT
ATOM      1  C   UNL     1      -0.018   1.467   0.010  0.00  0.00    +0.050 C 
ATOM      2  C   UNL     1       1.141   2.157   0.003  0.00  0.00    +0.050 C 
ATOM      3  C   UNL     1       2.423   1.435  -0.028  0.00  0.00    +0.168 C 
ATOM      4  O   UNL     1       3.446   2.014  -0.323  0.00  0.00    -0.292 OA
ATOM      5  C   UNL     1       2.451  -0.035   0.313  0.00  0.00    +0.142 C 
ATOM      6  C   UNL     1       1.273  -0.725  -0.389  0.00  0.00    +0.142 C 
ATOM      7  C   UNL     1       0.002  -0.004   0.002  0.00  0.00    +0.168 C 
ATOM      8  O   UNL     1      -0.990  -0.632   0.305  0.00  0.00    -0.292 OA
ATOM      9  C   UNL     1       1.197  -2.159   0.076  0.00  0.00    +0.106 C 
ATOM     10  C   UNL     1       1.487  -2.462   1.344  0.00  0.00    +0.045 C 
ATOM     11  C   UNL     1       1.868  -1.393   2.280  0.00  0.00    +0.045 C 
ATOM     12  C   UNL     1       2.330  -0.218   1.802  0.00  0.00    +0.106 C 
ENDROOT
BRANCH  12  13
ATOM     13  O   UNL     1       2.701   0.780   2.643  0.00  0.00    -0.510 OA
ATOM     14  H   UNL     1       2.586   0.568   3.580  0.00  0.00    +0.292 HD
ENDBRANCH  12  13
BRANCH   9  15
ATOM     15  O   UNL     1       0.836  -3.137  -0.793  0.00  0.00    -0.510 OA
ATOM     16  H   UNL     1       0.816  -4.021  -0.403  0.00  0.00    +0.292 HD
ENDBRANCH   9  15
TORSDOF 2
