REMARK  Name = ZINC63113361
REMARK  2 active torsions:
REMARK  status: ('A' for Active; 'I' for Inactive)
REMARK    1  A    between atoms: C_1  and  C_2
REMARK    2  A    between atoms: C_12  and  C_14
REMARK                            x       y       z     vdW  Elec       q    Type
REMARK                         _______ _______ _______ _____ _____    ______ ____
ROOT
ATOM      1  C   UNL     1      -0.594   1.587  -0.356  0.00  0.00    +0.007 C 
ATOM      2  C   UNL     1      -0.516   0.060  -0.416  0.00  0.00    -0.014 C 
ATOM      3  C   UNL     1      -1.777  -0.538   0.207  0.00  0.00    +0.005 C 
ATOM      4  C   UNL     1      -1.701  -2.068   0.170  0.00  0.00    +0.023 C 
ATOM      5  C   UNL     1      -0.469  -2.524   0.951  0.00  0.00    +0.079 C 
ATOM      6  C   UNL     1       0.786  -1.943   0.291  0.00  0.00    +0.010 C 
ATOM      7  C   UNL     1       0.721  -0.418   0.350  0.00  0.00    +0.008 C 
ATOM      8  C   UNL     1       2.022  -2.460   1.024  0.00  0.00    +0.007 C 
ATOM      9  C   UNL     1       2.079  -3.986   0.900  0.00  0.00    +0.019 C 
ATOM     10  C   UNL     1       0.831  -4.603   1.536  0.00  0.00    +0.108 C 
ATOM     11  N   UNL     1      -0.366  -3.987   0.943  0.00  0.00    -0.293 N 
ATOM     12  C   UNL     1      -1.342  -4.747   0.407  0.00  0.00    +0.263 C 
ATOM     13  O   UNL     1      -2.326  -4.220  -0.078  0.00  0.00    -0.268 OA
ENDROOT
BRANCH  12  14
ATOM     14  C   UNL     1      -1.218  -6.208   0.407  0.00  0.00    +0.102 A 
ATOM     15  C   UNL     1      -1.760  -7.072  -0.520  0.00  0.00    +0.032 A 
ATOM     16  C   UNL     1      -1.395  -8.367  -0.137  0.00  0.00    +0.020 A 
ATOM     17  C   UNL     1      -0.653  -8.273   0.992  0.00  0.00    +0.083 A 
ATOM     18  N   UNL     1      -0.533  -6.966   1.330  0.00  0.00    -0.357 N 
ATOM     19  H   UNL     1      -0.047  -6.622   2.096  0.00  0.00    +0.165 HD
ENDBRANCH  12  14
TORSDOF 1
