REMARK  Name = ZINC13554811
REMARK  5 active torsions:
REMARK  status: ('A' for Active; 'I' for Inactive)
REMARK    1  A    between atoms: C_1  and  C_2
REMARK    2  A    between atoms: C_1  and  O_19
REMARK    3  A    between atoms: C_2  and  C_4
REMARK    4  A    between atoms: C_2  and  O_18
REMARK    5  A    between atoms: C_6  and  O_17
REMARK                            x       y       z     vdW  Elec       q    Type
REMARK                         _______ _______ _______ _____ _____    ______ ____
ROOT
ATOM      1  C   UNL     1      -1.429  -0.533  -0.113  0.00  0.00    +0.184 C 
ATOM      2  C   UNL     1      -1.422  -2.091  -0.142  0.00  0.00    +0.191 C 
ATOM      3  C   UNL     1      -1.919  -2.397  -1.543  0.00  0.00    +0.255 C 
ATOM      4  C   UNL     1      -2.865  -1.144  -1.727  0.00  0.00    +0.259 C 
ATOM      5  O   UNL     1      -2.025  -0.096  -1.374  0.00  0.00    -0.345 OA
ATOM      6  N   UNL     1      -3.498  -1.507  -2.952  0.00  0.00    -0.322 N 
ATOM      7  C   UNL     1      -3.549  -2.896  -2.925  0.00  0.00    +0.239 C 
ATOM      8  O   UNL     1      -2.880  -3.399  -1.818  0.00  0.00    -0.462 OA
ATOM      9  S   UNL     1      -4.292  -3.838  -4.072  0.00  0.00    +0.009 SA
ATOM     10  H   UNL     1      -3.821  -0.916  -3.650  0.00  0.00    +0.166 HD
ENDROOT
BRANCH   2  11
ATOM     11  O   UNL     1      -2.312  -2.620   0.844  0.00  0.00    -0.385 OA
ATOM     12  H   UNL     1      -2.344  -3.586   0.866  0.00  0.00    +0.210 HD
ENDBRANCH   2  11
BRANCH   1  13
ATOM     13  C   UNL     1       0.002  -0.004   0.002  0.00  0.00    +0.171 C 
BRANCH  13  14
ATOM     14  O   UNL     1       0.590  -0.479   1.215  0.00  0.00    -0.387 OA
ATOM     15  H   UNL     1       0.119  -0.205   2.014  0.00  0.00    +0.210 HD
ENDBRANCH  13  14
BRANCH  13  16
ATOM     16  C   UNL     1      -0.019   1.526   0.010  0.00  0.00    +0.189 C 
BRANCH  16  17
ATOM     17  O   UNL     1       1.322   2.020   0.000  0.00  0.00    -0.392 OA
ATOM     18  H   UNL     1       1.385   2.985   0.005  0.00  0.00    +0.210 HD
ENDBRANCH  16  17
ENDBRANCH  13  16
ENDBRANCH   1  13
TORSDOF 5
