REMARK  Name = ZINC40365408
REMARK  3 active torsions:
REMARK  status: ('A' for Active; 'I' for Inactive)
REMARK    1  A    between atoms: C_4  and  C_7
REMARK    2  A    between atoms: C_4  and  N_10
REMARK    3  A    between atoms: C_7  and  N_9
REMARK                            x       y       z     vdW  Elec       q    Type
REMARK                         _______ _______ _______ _____ _____    ______ ____
ROOT
ATOM      1  C   UNL     1       4.432   0.711  -2.980  0.00  0.00    +0.000 C 
ATOM      2  C   UNL     1       4.040  -0.743  -2.711  0.00  0.00    +0.002 C 
ATOM      3  C   UNL     1       2.531  -0.829  -2.475  0.00  0.00    +0.033 C 
ATOM      4  C   UNL     1       2.154   0.032  -1.268  0.00  0.00    +0.089 C 
ATOM      5  C   UNL     1       2.546   1.486  -1.536  0.00  0.00    +0.033 C 
ATOM      6  C   UNL     1       4.055   1.573  -1.773  0.00  0.00    +0.002 C 
ENDROOT
BRANCH   4   7
ATOM      7  N   UNL     1       2.862  -0.453  -0.081  0.00  0.00    -0.230 N 
ATOM      8  C   UNL     1       3.481   0.370   0.808  0.00  0.00    +0.226 C 
ATOM      9  O   UNL     1       3.369   1.575   0.887  0.00  0.00    -0.275 OA
ATOM     10  C   UNL     1       4.329  -0.513   1.667  0.00  0.00    +0.087 C 
ATOM     11  C   UNL     1       4.542  -0.153   3.122  0.00  0.00    +0.013 C 
ATOM     12  C   UNL     1       5.413  -1.276   3.719  0.00  0.00    +0.001 C 
ATOM     13  C   UNL     1       4.764  -2.646   3.559  0.00  0.00    +0.001 C 
ATOM     14  C   UNL     1       4.369  -2.933   2.099  0.00  0.00    +0.013 C 
ATOM     15  C   UNL     1       3.472  -1.814   1.647  0.00  0.00    +0.087 C 
ATOM     16  C   UNL     1       2.961  -1.771   0.243  0.00  0.00    +0.226 C 
ATOM     17  O   UNL     1       2.691  -2.718  -0.463  0.00  0.00    -0.275 OA
ENDBRANCH   4   7
BRANCH   4  18
ATOM     18  C   UNL     1       0.667  -0.053  -1.035  0.00  0.00    +0.071 C 
ATOM     19  S   UNL     1       0.106  -0.612   0.354  0.00  0.00    -0.038 S 
BRANCH  18  20
ATOM     20  N   UNL     1      -0.189   0.343  -1.998  0.00  0.00    -0.354 N 
ATOM     21  H   UNL     1       0.151   0.682  -2.840  0.00  0.00    +0.143 HD
ATOM     22  H   UNL     1      -1.146   0.288  -1.848  0.00  0.00    +0.143 HD
ENDBRANCH  18  20
ENDBRANCH   4  18
TORSDOF 3
