REMARK  Name = ZINC19720193
REMARK  6 active torsions:
REMARK  status: ('A' for Active; 'I' for Inactive)
REMARK    1  A    between atoms: C_3  and  N_7
REMARK    2  A    between atoms: C_11  and  S_15
REMARK    3  A    between atoms: S_15  and  C_16
REMARK    4  A    between atoms: C_16  and  C_17
REMARK    5  A    between atoms: C_17  and  C_19
REMARK    6  A    between atoms: C_17  and  N_22
REMARK                            x       y       z     vdW  Elec       q    Type
REMARK                         _______ _______ _______ _____ _____    ______ ____
ROOT
ATOM      1  N   UNK     1      -0.016   1.335   0.009  0.00  0.00    -0.213 N 
ATOM      2  C   UNK     1       1.191   1.897   0.148  0.00  0.00    +0.227 C 
ATOM      3  O   UNK     1       1.400   3.082   0.299  0.00  0.00    -0.275 OA
ATOM      4  C   UNK     1       2.252   0.821   0.086  0.00  0.00    +0.120 C 
ATOM      5  C   UNK     1       1.441  -0.475  -0.115  0.00  0.00    +0.142 C 
ATOM      6  C   UNK     1       0.006   0.005  -0.145  0.00  0.00    +0.239 C 
ATOM      7  O   UNK     1      -0.968  -0.702  -0.287  0.00  0.00    -0.274 OA
ENDROOT
BRANCH   1  10
ATOM      8  C   UNK     1      -2.908   3.149   1.459  0.00  0.00    +0.033 C 
ATOM      9  C   UNK     1      -2.221   1.833   1.095  0.00  0.00    +0.055 C 
ATOM     10  C   UNK     1      -1.195   2.071   0.019  0.00  0.00    +0.021 C 
ATOM     11  C   UNK     1      -1.414   2.994  -0.925  0.00  0.00    +0.019 C 
ATOM     12  C   UNK     1      -2.663   3.767  -0.910  0.00  0.00    -0.003 C 
ATOM     13  C   UNK     1      -3.376   3.847   0.210  0.00  0.00    -0.026 C 
ENDBRANCH   1  10
BRANCH   5  14
ATOM     14  S   UNK     1       1.881  -1.272  -1.685  0.00  0.00    -0.149 S 
BRANCH  14  15
ATOM     15  C   UNK     1       0.851  -2.764  -1.724  0.00  0.00    +0.065 C 
BRANCH  15  16
ATOM     16  C   UNK     1       1.126  -3.540  -3.013  0.00  0.00    +0.050 C 
BRANCH  16  17
ATOM     17  N   UNK     1       2.512  -4.025  -3.006  0.00  0.00    +0.388 N 
ATOM     18  H   UNK     1       2.710  -4.583  -3.933  0.00  0.00    -0.089 HD
ATOM     19  H   UNK     1       2.665  -4.686  -2.141  0.00  0.00    -0.089 HD
ATOM     20  H   UNK     1       3.200  -3.169  -2.940  0.00  0.00    -0.089 HD
ENDBRANCH  16  17
BRANCH  16  21
ATOM     21  C   UNK     1       0.184  -4.713  -3.104  0.00  0.00    +0.343 C 
ATOM     22  O   UNK     1       0.564  -5.819  -2.800  0.00  0.00    -0.248 OA
ATOM     23  O   UNK     1      -1.078  -4.529  -3.524  0.00  0.00    -0.248 OA
ENDBRANCH  16  21
ENDBRANCH  15  16
ENDBRANCH  14  15
ENDBRANCH   5  14
TORSDOF 6
