REMARK  Name = ZINC37558597
REMARK  4 active torsions:
REMARK  status: ('A' for Active; 'I' for Inactive)
REMARK    1  A    between atoms: C_3  and  N_8
REMARK    2  A    between atoms: N_8  and  S_9
REMARK    3  A    between atoms: S_9  and  C_12
REMARK    4  A    between atoms: C_17  and  N_18
REMARK                            x       y       z     vdW  Elec       q    Type
REMARK                         _______ _______ _______ _____ _____    ______ ____
ROOT
ATOM      1  S   UNL     1       5.009   1.139  -0.040  0.00  0.00    +0.098 S 
ATOM      2  O   UNL     1       5.081   0.451   1.201  0.00  0.00    -0.148 OA
ATOM      3  O   UNL     1       5.058   0.464  -1.289  0.00  0.00    -0.148 OA
ENDROOT
BRANCH   1   4
ATOM      4  C   UNL     1       6.329   2.307  -0.046  0.00  0.00    +0.166 A 
ATOM      5  C   UNL     1       7.272   2.489   0.970  0.00  0.00    +0.133 A 
ATOM      6  N   UNL     1       8.090   3.442   0.605  0.00  0.00    -0.304 N 
ATOM      7  H   UNL     1       8.127   4.607  -1.169  0.00  0.00    +0.188 HD
ATOM      8  N   UNL     1       7.697   3.903  -0.659  0.00  0.00    -0.286 N 
ATOM      9  C   UNL     1       6.615   3.188  -1.044  0.00  0.00    +0.137 A 
ATOM     10  H   UNL     1       8.841   3.774   1.121  0.00  0.00    +0.186 HD
BRANCH   9  11
ATOM     11  N   UNL     1       5.919   3.330  -2.241  0.00  0.00    -0.342 N 
ATOM     12  H   UNL     1       5.150   2.768  -2.424  0.00  0.00    +0.144 HD
ATOM     13  H   UNL     1       6.203   3.991  -2.892  0.00  0.00    +0.144 HD
ENDBRANCH   9  11
ENDBRANCH   1   4
BRANCH   1  14
ATOM     14  N   UNL     1       3.594   2.000  -0.021  0.00  0.00    -0.078 NA
BRANCH  14  17
ATOM     15  C   UNL     1      -0.017   1.385   0.010  0.00  0.00    +0.020 A 
ATOM     16  C   UNL     1       1.190   2.061   0.002  0.00  0.00    +0.048 A 
ATOM     17  C   UNL     1       2.374   1.332  -0.013  0.00  0.00    +0.163 A 
ATOM     18  N   UNL     1       2.351   0.008  -0.021  0.00  0.00    -0.236 NA
ATOM     19  C   UNL     1       1.216  -0.664  -0.014  0.00  0.00    +0.128 A 
ATOM     20  C   UNL     1       0.002  -0.004   0.002  0.00  0.00    +0.036 A 
ATOM     21 BR   UNL     1      -1.617  -0.982   0.013  0.00  0.00    -0.049 Br
ENDBRANCH  14  17
ENDBRANCH   1  14
TORSDOF 4
