REMARK  Name = ZINC28088778
REMARK  9 active torsions:
REMARK  status: ('A' for Active; 'I' for Inactive)
REMARK    1  A    between atoms: C_1  and  C_2
REMARK    2  A    between atoms: C_2  and  C_3
REMARK    3  A    between atoms: C_3  and  C_5
REMARK    4  A    between atoms: C_3  and  C_6
REMARK    5  A    between atoms: C_6  and  C_8
REMARK    6  A    between atoms: C_6  and  N_21
REMARK    7  A    between atoms: N_10  and  N_11
REMARK    8  A    between atoms: C_12  and  C_14
REMARK    9  A    between atoms: C_22  and  C_24
REMARK                            x       y       z     vdW  Elec       q    Type
REMARK                         _______ _______ _______ _____ _____    ______ ____
ROOT
ATOM      1  C   UNL     1       6.112  -0.939  -0.181  0.00  0.00    +0.163 C 
ENDROOT
BRANCH   1   2
ATOM      2  C   UNL     1       6.986  -0.167  -1.134  0.00  0.00    +0.250 C 
ATOM      3  O   UNL     1       6.710   0.980  -1.417  0.00  0.00    -0.272 OA
ATOM      4  N   UNL     1       8.075  -0.750  -1.674  0.00  0.00    -0.233 N 
ATOM      5  H   UNL     1       8.283  -1.812  -1.480  0.00  0.00    +0.173 HD
BRANCH   4   6
ATOM      6  N   UNL     1       8.942  -0.003  -2.482  0.00  0.00    -0.230 N 
ATOM      7  C   UNL     1      10.030  -0.586  -3.021  0.00  0.00    +0.261 C 
ATOM      8  O   UNL     1      10.260  -1.760  -2.807  0.00  0.00    -0.269 OA
ATOM      9  H   UNL     1       8.734   1.060  -2.676  0.00  0.00    +0.173 HD
BRANCH   7  10
ATOM     10  C   UNL     1      10.945   0.202  -3.874  0.00  0.00    +0.052 A 
ATOM     11  C   UNL     1      10.681   1.549  -4.127  0.00  0.00    +0.014 A 
ATOM     12  C   UNL     1      11.541   2.280  -4.920  0.00  0.00    +0.001 A 
ATOM     13  C   UNL     1      12.659   1.679  -5.472  0.00  0.00    +0.001 A 
ATOM     14  C   UNL     1      12.924   0.343  -5.230  0.00  0.00    +0.016 A 
ATOM     15  C   UNL     1      12.074  -0.399  -4.434  0.00  0.00    +0.030 A 
ATOM     16 BR   UNL     1      12.438  -2.226  -4.106  0.00  0.00    -0.050 Br
ENDBRANCH   7  10
ENDBRANCH   4   6
ENDBRANCH   1   2
BRANCH   1  17
ATOM     17  N   UNL     1       4.749  -0.403  -0.223  0.00  0.00    -0.300 N 
ATOM     18  C   UNL     1       3.706  -1.185   0.117  0.00  0.00    +0.245 C 
ATOM     19  O   UNL     1       3.896  -2.336   0.460  0.00  0.00    -0.270 OA
ATOM     20  H   UNL     1       4.578   0.639  -0.533  0.00  0.00    +0.150 HD
BRANCH  18  21
ATOM     21  C   UNL     1       2.331  -0.643   0.075  0.00  0.00    +0.037 A 
ATOM     22  C   UNL     1       1.248  -1.450   0.427  0.00  0.00    +0.013 A 
ATOM     23  C   UNL     1      -0.032  -0.939   0.384  0.00  0.00    +0.001 A 
ATOM     24  C   UNL     1      -0.245   0.371  -0.007  0.00  0.00    +0.000 A 
ATOM     25  C   UNL     1       0.824   1.177  -0.357  0.00  0.00    +0.001 A 
ATOM     26  C   UNL     1       2.110   0.678  -0.319  0.00  0.00    +0.013 A 
ENDBRANCH  18  21
ENDBRANCH   1  17
BRANCH   1  27
ATOM     27  C   UNL     1       6.667  -0.809   1.239  0.00  0.00    +0.015 C 
ATOM     28  C   UNL     1       8.053  -1.453   1.306  0.00  0.00    +0.010 C 
BRANCH  27  30
ATOM     29  C   UNL     1       7.210   0.798   3.073  0.00  0.00    +0.004 C 
ATOM     30  C   UNL     1       6.774   0.670   1.612  0.00  0.00    +0.002 C 
ENDBRANCH  27  30
ENDBRANCH   1  27
TORSDOF 7
