REMARK  Name = ZINC33850228
REMARK  6 active torsions:
REMARK  status: ('A' for Active; 'I' for Inactive)
REMARK    1  A    between atoms: C_1  and  C_2
REMARK    2  A    between atoms: C_5  and  O_21
REMARK    3  A    between atoms: C_7  and  C_19
REMARK    4  A    between atoms: C_7  and  C_20
REMARK    5  A    between atoms: C_12  and  C_17
REMARK    6  A    between atoms: C_13  and  C_15
REMARK                            x       y       z     vdW  Elec       q    Type
REMARK                         _______ _______ _______ _____ _____    ______ ____
ROOT
ATOM      1  C   UNL     1      -0.210   1.488   0.546  0.00  0.00    +0.013 C 
ATOM      2  C   UNL     1      -0.143  -0.045   0.434  0.00  0.00    -0.009 C 
ATOM      3  C   UNL     1       0.170  -0.419  -1.013  0.00  0.00    +0.011 C 
ATOM      4  C   UNL     1       1.591   0.018  -1.375  0.00  0.00    +0.032 C 
ATOM      5  C   UNL     1       2.577  -0.743  -0.492  0.00  0.00    +0.120 C 
ATOM      6  C   UNL     1       2.337  -0.432   0.984  0.00  0.00    -0.005 C 
ATOM      7  C   UNL     1       0.888  -0.630   1.391  0.00  0.00    +0.008 C 
ATOM      8  C   UNL     1       0.640  -0.099   2.806  0.00  0.00    +0.032 C 
ATOM      9  C   UNL     1      -0.812  -0.244   3.169  0.00  0.00    -0.019 C 
ATOM     10  C   UNL     1      -1.766  -0.455   2.285  0.00  0.00    +0.005 C 
ATOM     11  C   UNL     1      -1.532  -0.587   0.808  0.00  0.00    +0.130 C 
ATOM     12  C   UNL     1       2.856   0.973   1.292  0.00  0.00    +0.014 C 
ATOM     13  C   UNL     1       3.201  -1.426   1.795  0.00  0.00    +0.014 C 
ENDROOT
BRANCH  11  14
ATOM     14  C   UNL     1      -1.697  -1.993   0.427  0.00  0.00    +0.071 C 
ATOM     15  N   UNL     1      -1.824  -3.083   0.131  0.00  0.00    -0.196 NA
ENDBRANCH  11  14
BRANCH  10  16
ATOM     16  C   UNL     1      -3.142  -0.571   2.771  0.00  0.00    +0.255 C 
ATOM     17  O   UNL     1      -4.048  -0.766   1.988  0.00  0.00    -0.296 OA
ENDBRANCH  10  16
BRANCH   5  18
ATOM     18  O   UNL     1       2.437  -2.150  -0.710  0.00  0.00    -0.391 OA
ATOM     19  H   UNL     1       2.604  -2.425  -1.622  0.00  0.00    +0.210 HD
ENDBRANCH   5  18
TORSDOF 3
