REMARK  Name = ZINC59293245
REMARK  5 active torsions:
REMARK  status: ('A' for Active; 'I' for Inactive)
REMARK    1  A    between atoms: C_1  and  C_2
REMARK    2  A    between atoms: N_16  and  C_19
REMARK    3  A    between atoms: C_19  and  C_20
REMARK    4  A    between atoms: C_23  and  C_27
REMARK    5  A    between atoms: C_24  and  N_26
REMARK                            x       y       z     vdW  Elec       q    Type
REMARK                         _______ _______ _______ _____ _____    ______ ____
ROOT
ATOM      1  C   UNL     1      -0.018   1.503   0.010  0.00  0.00    +0.086 C 
ATOM      2  C   UNL     1       0.002  -0.004   0.002  0.00  0.00    +0.110 A 
ATOM      3  C   UNL     1      -1.166  -0.673   0.004  0.00  0.00    +0.088 A 
ATOM      4  C   UNL     1      -1.160  -2.087  -0.004  0.00  0.00    +0.145 A 
ATOM      5  C   UNL     1       0.057  -2.738  -0.018  0.00  0.00    +0.104 A 
ATOM      6  C   UNL     1       1.232  -1.978  -0.021  0.00  0.00    +0.345 A 
ATOM      7  O   UNL     1       2.314  -2.541  -0.035  0.00  0.00    -0.245 OA
ATOM      8  O   UNL     1       1.181  -0.637  -0.013  0.00  0.00    -0.427 OA
ATOM      9  C   UNL     1       0.119  -4.238  -0.031  0.00  0.00    +0.148 C 
ATOM     10  C   UNL     1       0.590  -4.765   1.289  0.00  0.00    -0.001 A 
ATOM     11  C   UNL     1       0.055  -4.665   2.555  0.00  0.00    +0.007 A 
ATOM     12  C   UNL     1       0.756  -5.280   3.586  0.00  0.00    +0.000 A 
ATOM     13  C   UNL     1       1.935  -5.958   3.350  0.00  0.00    +0.002 A 
ATOM     14  C   UNL     1       2.480  -6.062   2.079  0.00  0.00    +0.024 A 
ATOM     15  C   UNL     1       1.785  -5.449   1.035  0.00  0.00    +0.042 A 
ATOM     16  N   UNL     1       2.094  -5.394  -0.313  0.00  0.00    -0.261 N 
ATOM     17  C   UNL     1       1.172  -4.703  -1.015  0.00  0.00    +0.241 C 
ATOM     18  O   UNL     1       1.185  -4.494  -2.210  0.00  0.00    -0.274 OA
ATOM     19  C   UNL     1      -1.216  -4.820  -0.397  0.00  0.00    +0.110 C 
ATOM     20  C   UNL     1      -2.342  -4.067  -0.360  0.00  0.00    +0.199 C 
ATOM     21  O   UNL     1      -2.320  -2.772   0.002  0.00  0.00    -0.441 OA
ENDROOT
BRANCH  20  22
ATOM     22  N   UNL     1      -3.539  -4.642  -0.704  0.00  0.00    -0.328 N 
ATOM     23  H   UNL     1      -3.571  -5.575  -0.969  0.00  0.00    +0.145 HD
ATOM     24  H   UNL     1      -4.354  -4.116  -0.683  0.00  0.00    +0.145 HD
ENDBRANCH  20  22
BRANCH  19  25
ATOM     25  C   UNL     1      -1.301  -6.195  -0.790  0.00  0.00    +0.102 C 
ATOM     26  N   UNL     1      -1.368  -7.285  -1.103  0.00  0.00    -0.191 NA
ENDBRANCH  19  25
BRANCH  16  27
ATOM     27  C   UNL     1       3.281  -6.014  -0.907  0.00  0.00    +0.209 C 
BRANCH  27  28
ATOM     28  C   UNL     1       2.955  -7.424  -1.327  0.00  0.00    +0.228 C 
ATOM     29  O   UNL     1       1.841  -7.868  -1.148  0.00  0.00    -0.274 OA
ATOM     30  N   UNL     1       3.902  -8.192  -1.901  0.00  0.00    -0.328 N 
ATOM     31  H   UNL     1       4.793  -7.837  -2.045  0.00  0.00    +0.145 HD
ATOM     32  H   UNL     1       3.692  -9.099  -2.172  0.00  0.00    +0.145 HD
ENDBRANCH  27  28
ENDBRANCH  16  27
TORSDOF 4
