REMARK  Name = ZINC52004699
REMARK  6 active torsions:
REMARK  status: ('A' for Active; 'I' for Inactive)
REMARK    1  A    between atoms: C_1  and  N_2
REMARK    2  A    between atoms: C_4  and  S_10
REMARK    3  A    between atoms: C_6  and  C_7
REMARK    4  A    between atoms: S_10  and  N_13
REMARK    5  A    between atoms: N_13  and  C_14
REMARK    6  A    between atoms: C_20  and  O_22
REMARK                            x       y       z     vdW  Elec       q    Type
REMARK                         _______ _______ _______ _____ _____    ______ ____
ROOT
ATOM      1  S   UNL     1      -0.116  -3.489  -1.782  0.00  0.00    +0.060 S 
ATOM      2  O   UNL     1      -0.581  -4.574  -0.993  0.00  0.00    -0.153 OA
ATOM      3  O   UNL     1      -0.784  -3.063  -2.962  0.00  0.00    -0.153 OA
ENDROOT
BRANCH   1   7
ATOM      4  C   UNL     1      -0.018   1.461   0.010  0.00  0.00    +0.149 C 
ATOM      5  N   UNL     1       0.001  -0.004   0.002  0.00  0.00    -0.344 N 
ATOM      6  C   UNL     1      -0.090  -0.790  -1.098  0.00  0.00    +0.114 A 
ATOM      7  C   UNL     1      -0.037  -2.088  -0.716  0.00  0.00    +0.123 A 
ATOM      8  C   UNL     1       0.092  -2.120   0.676  0.00  0.00    +0.061 A 
ATOM      9  C   UNL     1       0.120  -0.812   1.111  0.00  0.00    +0.106 A 
BRANCH   9  10
ATOM     10  C   UNL     1       0.249  -0.362   2.501  0.00  0.00    +0.258 C 
ATOM     11  O   UNL     1       0.170   0.823   2.767  0.00  0.00    -0.269 OA
ATOM     12  N   UNL     1       0.456  -1.261   3.483  0.00  0.00    -0.324 N 
ATOM     13  H   UNL     1       0.592  -2.196   3.264  0.00  0.00    +0.145 HD
ATOM     14  H   UNL     1       0.468  -0.973   4.410  0.00  0.00    +0.145 HD
ENDBRANCH   9  10
ENDBRANCH   1   7
BRANCH   1  15
ATOM     15  N   UNL     1       1.437  -3.856  -2.224  0.00  0.00    -0.184 NA
ATOM     16  H   UNL     1       1.710  -3.772  -3.151  0.00  0.00    +0.148 HD
BRANCH  15  17
ATOM     17  C   UNL     1       2.399  -4.307  -1.215  0.00  0.00    +0.105 C 
ATOM     18  C   UNL     1       3.212  -3.111  -0.715  0.00  0.00    +0.023 C 
ATOM     19  C   UNL     1       3.963  -2.479  -1.888  0.00  0.00    +0.002 C 
ATOM     20  C   UNL     1       4.905  -3.513  -2.507  0.00  0.00    +0.003 C 
ATOM     21  C   UNL     1       4.092  -4.709  -3.008  0.00  0.00    +0.033 C 
ATOM     22  C   UNL     1       3.341  -5.341  -1.834  0.00  0.00    +0.133 C 
BRANCH  22  23
ATOM     23  O   UNL     1       2.581  -6.458  -2.301  0.00  0.00    -0.390 OA
ATOM     24  H   UNL     1       3.115  -7.155  -2.707  0.00  0.00    +0.210 HD
ENDBRANCH  22  23
ENDBRANCH  15  17
ENDBRANCH   1  15
TORSDOF 5
