REMARK  Name = ZINC55874156
REMARK  10 active torsions:
REMARK  status: ('A' for Active; 'I' for Inactive)
REMARK    1  A    between atoms: C_1  and  C_2
REMARK    2  A    between atoms: C_2  and  C_3
REMARK    3  A    between atoms: C_3  and  C_25
REMARK    4  A    between atoms: N_6  and  N_10
REMARK    5  A    between atoms: C_11  and  C_13
REMARK    6  A    between atoms: C_13  and  N_14
REMARK    7  A    between atoms: N_14  and  C_15
REMARK    8  A    between atoms: C_18  and  O_22
REMARK    9  A    between atoms: O_22  and  C_23
REMARK   10  A    between atoms: C_23  and  C_24
REMARK                            x       y       z     vdW  Elec       q    Type
REMARK                         _______ _______ _______ _____ _____    ______ ____
ROOT
ATOM      1  N   UNL     1      -0.454  -3.426  -3.095  0.00  0.00    -0.222 N 
ATOM      2  C   UNL     1      -1.734  -3.843  -3.038  0.00  0.00    +0.247 C 
ATOM      3  O   UNL     1      -2.581  -3.134  -2.535  0.00  0.00    -0.273 OA
ATOM      4  H   UNL     1       0.223  -3.993  -3.497  0.00  0.00    +0.174 HD
ENDROOT
BRANCH   1   8
ATOM      5  C   UNL     1       0.718  -0.497  -1.257  0.00  0.00    +0.111 C 
ATOM      6  C   UNL     1       0.555  -1.997  -1.410  0.00  0.00    +0.263 C 
ATOM      7  O   UNL     1       0.935  -2.857  -0.645  0.00  0.00    -0.271 OA
ATOM      8  N   UNL     1      -0.101  -2.175  -2.574  0.00  0.00    -0.137 N 
ATOM      9  C   UNL     1      -0.371  -1.008  -3.171  0.00  0.00    +0.326 C 
ATOM     10  O   UNL     1      -0.955  -0.913  -4.233  0.00  0.00    -0.251 OA
ATOM     11  N   UNL     1       0.075   0.046  -2.466  0.00  0.00    -0.284 N 
ATOM     12  C   UNL     1       2.199  -0.115  -1.216  0.00  0.00    +0.041 C 
ATOM     13  H   UNL     1      -0.010   0.982  -2.706  0.00  0.00    +0.151 HD
BRANCH   5  15
ATOM     14  C   UNL     1      -0.019   1.526   0.010  0.00  0.00    +0.006 C 
ATOM     15  C   UNL     1       0.002  -0.004   0.002  0.00  0.00    +0.032 C 
ENDBRANCH   5  15
ENDBRANCH   1   8
BRANCH   2  16
ATOM     16  C   UNL     1      -2.115  -5.189  -3.598  0.00  0.00    +0.199 C 
BRANCH  16  17
ATOM     17  N   UNL     1      -3.552  -5.406  -3.415  0.00  0.00    -0.335 N 
ATOM     18  H   UNL     1      -4.094  -4.726  -2.987  0.00  0.00    +0.147 HD
BRANCH  17  19
ATOM     19  C   UNL     1      -4.142  -6.594  -3.859  0.00  0.00    +0.029 A 
ATOM     20  C   UNL     1      -3.365  -7.571  -4.468  0.00  0.00    +0.026 A 
ATOM     21  C   UNL     1      -3.948  -8.744  -4.906  0.00  0.00    +0.049 A 
ATOM     22  C   UNL     1      -5.309  -8.947  -4.738  0.00  0.00    +0.139 A 
ATOM     23  C   UNL     1      -6.087  -7.972  -4.130  0.00  0.00    +0.084 A 
ATOM     24  C   UNL     1      -5.504  -6.800  -3.686  0.00  0.00    +0.046 A 
ATOM     25 CL   UNL     1      -7.792  -8.227  -3.921  0.00  0.00    -0.080 Cl
BRANCH  22  26
ATOM     26  O   UNL     1      -5.883 -10.103  -5.170  0.00  0.00    -0.491 OA
BRANCH  26  27
ATOM     27  C   UNL     1      -5.022 -11.062  -5.787  0.00  0.00    +0.226 C 
ATOM     28  C   UNL     1      -5.840 -12.287  -6.205  0.00  0.00    +0.048 C 
ENDBRANCH  26  27
ENDBRANCH  22  26
ENDBRANCH  17  19
ENDBRANCH  16  17
ENDBRANCH   2  16
TORSDOF 7
