REMARK  Name = ZINC59226962
REMARK  6 active torsions:
REMARK  status: ('A' for Active; 'I' for Inactive)
REMARK    1  A    between atoms: C_1  and  O_2
REMARK    2  A    between atoms: O_2  and  C_3
REMARK    3  A    between atoms: C_5  and  C_10
REMARK    4  A    between atoms: C_8  and  O_9
REMARK    5  A    between atoms: N_20  and  C_21
REMARK    6  A    between atoms: N_27  and  C_28
REMARK                            x       y       z     vdW  Elec       q    Type
REMARK                         _______ _______ _______ _____ _____    ______ ____
ROOT
ATOM      1  C   UNL     1       3.035  -1.170  -2.652  0.00  0.00    +0.216 C 
ATOM      2  N   UNL     1       2.457   0.082  -3.170  0.00  0.00    -0.241 N 
ATOM      3  N   UNL     1       2.952   0.236  -4.470  0.00  0.00    -0.150 NA
ATOM      4  C   UNL     1       3.742  -0.745  -4.802  0.00  0.00    +0.222 C 
ATOM      5  N   UNL     1       3.862  -1.666  -3.759  0.00  0.00    -0.217 N 
ATOM      6  C   UNL     1       4.647  -2.770  -3.914  0.00  0.00    +0.198 C 
ATOM      7  N   UNL     1       5.288  -2.956  -5.054  0.00  0.00    -0.186 NA
ATOM      8  C   UNL     1       5.174  -2.076  -6.057  0.00  0.00    +0.202 C 
ATOM      9  N   UNL     1       4.425  -0.988  -5.950  0.00  0.00    -0.299 N 
ATOM     10  N   UNL     1       5.858  -2.305  -7.233  0.00  0.00    -0.285 N 
ATOM     11  N   UNL     1       4.772  -3.676  -2.897  0.00  0.00    -0.287 N 
ATOM     12  H   UNL     1       1.854   0.681  -2.703  0.00  0.00    +0.171 HD
ATOM     13  H   UNL     1       5.638  -3.075  -7.780  0.00  0.00    +0.155 HD
ATOM     14  H   UNL     1       4.229  -3.587  -2.098  0.00  0.00    +0.155 HD
ATOM     15  H   UNL     1       4.359  -0.366  -6.692  0.00  0.00    +0.171 HD
ENDROOT
BRANCH   1  18
ATOM     16  C   UNL     1       5.758   0.201  -0.420  0.00  0.00    +0.162 A 
ATOM     17  C   UNL     1       4.974  -0.051  -1.535  0.00  0.00    +0.056 A 
ATOM     18  C   UNL     1       3.886  -0.897  -1.438  0.00  0.00    -0.004 A 
ATOM     19  C   UNL     1       3.575  -1.494  -0.231  0.00  0.00    +0.011 A 
ATOM     20  C   UNL     1       4.352  -1.247   0.886  0.00  0.00    +0.049 A 
ATOM     21  C   UNL     1       5.448  -0.404   0.794  0.00  0.00    +0.158 A 
BRANCH  16  23
ATOM     22  C   UNL     1       7.087   1.618  -1.791  0.00  0.00    +0.277 C 
ATOM     23  O   UNL     1       6.829   1.032  -0.513  0.00  0.00    -0.491 OA
ENDBRANCH  16  23
BRANCH  21  24
ATOM     24  O   UNL     1       6.217  -0.165   1.891  0.00  0.00    -0.503 OA
ATOM     25  H   UNL     1       5.925   0.591   2.418  0.00  0.00    +0.292 HD
ENDBRANCH  21  24
ENDBRANCH   1  18
BRANCH  10  26
ATOM     26  C   UNL     1       6.869  -1.427  -7.636  0.00  0.00    +0.034 A 
ATOM     27  C   UNL     1       6.759  -0.069  -7.369  0.00  0.00    +0.023 A 
ATOM     28  C   UNL     1       7.759   0.796  -7.769  0.00  0.00    +0.002 A 
ATOM     29  C   UNL     1       8.870   0.310  -8.434  0.00  0.00    +0.000 A 
ATOM     30  C   UNL     1       8.983  -1.042  -8.702  0.00  0.00    +0.002 A 
ATOM     31  C   UNL     1       7.989  -1.912  -8.300  0.00  0.00    +0.023 A 
ENDBRANCH  10  26
BRANCH  11  32
ATOM     32  C   UNL     1       5.682  -4.732  -3.009  0.00  0.00    +0.033 A 
ATOM     33  C   UNL     1       6.884  -4.547  -3.680  0.00  0.00    +0.023 A 
ATOM     34  C   UNL     1       7.781  -5.592  -3.788  0.00  0.00    +0.002 A 
ATOM     35  C   UNL     1       7.484  -6.821  -3.230  0.00  0.00    +0.000 A 
ATOM     36  C   UNL     1       6.288  -7.009  -2.561  0.00  0.00    +0.002 A 
ATOM     37  C   UNL     1       5.389  -5.967  -2.444  0.00  0.00    +0.023 A 
ENDBRANCH  11  32
TORSDOF 5
