REMARK  Name = ZINC36231868
REMARK  6 active torsions:
REMARK  status: ('A' for Active; 'I' for Inactive)
REMARK    1  A    between atoms: C_1  and  C_2
REMARK    2  A    between atoms: C_2  and  C_21
REMARK    3  A    between atoms: N_4  and  C_8
REMARK    4  A    between atoms: C_8  and  C_9
REMARK    5  A    between atoms: N_11  and  C_12
REMARK    6  A    between atoms: C_15  and  N_19
REMARK                            x       y       z     vdW  Elec       q    Type
REMARK                         _______ _______ _______ _____ _____    ______ ____
ROOT
ATOM      1  C   UNL     1       3.845   0.629  -3.727  0.00  0.00    +0.231 C 
ATOM      2  O   UNL     1       3.825   1.827  -3.911  0.00  0.00    -0.274 OA
ATOM      3  N   UNL     1       5.017  -0.001  -3.514  0.00  0.00    -0.282 N 
ATOM      4  H   UNL     1       5.027  -0.946  -3.295  0.00  0.00    +0.155 HD
ENDROOT
BRANCH   3   5
ATOM      5  C   UNL     1       6.222   0.709  -3.609  0.00  0.00    +0.071 A 
ATOM      6  C   UNL     1       6.764   1.311  -2.480  0.00  0.00    +0.065 A 
ATOM      7  C   UNL     1       7.952   2.011  -2.574  0.00  0.00    +0.044 A 
ATOM      8  C   UNL     1       8.604   2.113  -3.796  0.00  0.00    +0.027 A 
ATOM      9  C   UNL     1       8.062   1.512  -4.924  0.00  0.00    +0.044 A 
ATOM     10  C   UNL     1       6.877   0.806  -4.830  0.00  0.00    +0.065 A 
ATOM     11 CL   UNL     1       6.204   0.048  -6.239  0.00  0.00    -0.082 Cl
ATOM     12 CL   UNL     1       5.949   1.185  -0.953  0.00  0.00    -0.082 Cl
BRANCH   8  13
ATOM     13  N   UNL     1       9.806   2.822  -3.891  0.00  0.00    -0.358 N 
ATOM     14  H   UNL     1      10.184   3.242  -3.103  0.00  0.00    +0.142 HD
ATOM     15  H   UNL     1      10.261   2.893  -4.744  0.00  0.00    +0.142 HD
ENDBRANCH   8  13
ENDBRANCH   3   5
BRANCH   1  16
ATOM     16  C   UNL     1       2.558  -0.156  -3.737  0.00  0.00    +0.181 C 
BRANCH  16  20
ATOM     17  C   UNL     1      -0.609   1.747  -5.839  0.00  0.00    +0.042 C 
ATOM     18  C   UNL     1      -0.938   0.982  -4.555  0.00  0.00    +0.077 C 
ATOM     19  C   UNL     1       0.194   0.001  -4.240  0.00  0.00    +0.119 C 
ATOM     20  N   UNL     1       1.432   0.753  -3.988  0.00  0.00    -0.289 NA
ATOM     21  C   UNL     1       1.253   1.691  -2.871  0.00  0.00    +0.113 C 
ATOM     22  C   UNL     1       0.110   2.655  -3.199  0.00  0.00    +0.176 C 
ATOM     23  O   UNL     1      -1.076   1.906  -3.472  0.00  0.00    -0.371 OA
ATOM     24  C   UNL     1      -2.247   0.212  -4.741  0.00  0.00    +0.042 C 
ENDBRANCH  16  20
ENDBRANCH   1  16
TORSDOF 4
