REMARK  Name = ZINC39363145
REMARK  6 active torsions:
REMARK  status: ('A' for Active; 'I' for Inactive)
REMARK    1  A    between atoms: C_3  and  C_8
REMARK    2  A    between atoms: C_8  and  S_9
REMARK    3  A    between atoms: S_9  and  C_10
REMARK    4  A    between atoms: C_13  and  C_23
REMARK    5  A    between atoms: N_15  and  C_16
REMARK    6  A    between atoms: C_23  and  C_24
REMARK                            x       y       z     vdW  Elec       q    Type
REMARK                         _______ _______ _______ _____ _____    ______ ____
ROOT
ATOM      1  C   UNL     1       5.615   3.592   1.516  0.00  0.00    +0.180 C 
ATOM      2  N   UNL     1       6.161   3.860   0.378  0.00  0.00    -0.162 NA
ATOM      3  N   UNL     1       7.476   4.315   0.534  0.00  0.00    -0.246 N 
ATOM      4  C   UNL     1       7.740   4.314   1.983  0.00  0.00    +0.187 C 
ATOM      5  N   UNL     1       6.479   3.835   2.573  0.00  0.00    -0.258 N 
ATOM      6  H   UNL     1       8.089   4.577  -0.170  0.00  0.00    +0.170 HD
ENDROOT
BRANCH   5   7
ATOM      7  C   UNL     1       6.207   3.658   3.933  0.00  0.00    +0.038 A 
ATOM      8  C   UNL     1       6.137   4.758   4.778  0.00  0.00    +0.025 A 
ATOM      9  C   UNL     1       5.868   4.580   6.121  0.00  0.00    +0.022 A 
ATOM     10  C   UNL     1       5.668   3.306   6.625  0.00  0.00    +0.041 A 
ATOM     11  C   UNL     1       5.737   2.208   5.785  0.00  0.00    +0.022 A 
ATOM     12  C   UNL     1       6.000   2.381   4.440  0.00  0.00    +0.025 A 
ATOM     13 CL   UNL     1       5.331   3.086   8.313  0.00  0.00    -0.084 Cl
ENDBRANCH   5   7
BRANCH   1  14
ATOM     14  S   UNL     1       3.967   2.997   1.704  0.00  0.00    -0.084 S 
BRANCH  14  15
ATOM     15  C   UNL     1       3.346   2.879   0.004  0.00  0.00    +0.112 C 
BRANCH  15  18
ATOM     16  C   UNL     1      -0.428   2.809   0.114  0.00  0.00    +0.003 A 
ATOM     17  C   UNL     1       0.875   3.270   0.098  0.00  0.00    +0.004 A 
ATOM     18  C   UNL     1       1.925   2.375   0.022  0.00  0.00    -0.034 A 
ATOM     19  C   UNL     1       1.674   1.017  -0.037  0.00  0.00    +0.042 A 
ATOM     20  C   UNL     1       0.369   0.554  -0.021  0.00  0.00    +0.124 A 
ATOM     21  C   UNL     1      -0.682   1.452   0.055  0.00  0.00    +0.038 A 
ATOM     22  F   UNL     1       0.122  -0.773  -0.080  0.00  0.00    -0.205 F 
ENDBRANCH  15  18
ENDBRANCH  14  15
ENDBRANCH   1  14
BRANCH   4  23
ATOM     23  C   UNL     1       8.893   3.365   2.318  0.00  0.00    +0.097 C 
BRANCH  23  24
ATOM     24  C   UNL     1      10.171   3.899   1.723  0.00  0.00    +0.029 A 
ATOM     25  N   UNL     1      10.491   3.624   0.421  0.00  0.00    -0.311 N 
ATOM     26  C   UNL     1      11.629   4.095  -0.119  0.00  0.00    +0.327 A 
ATOM     27  O   UNL     1      11.893   3.839  -1.278  0.00  0.00    -0.247 OA
ATOM     28  N   UNL     1      12.479   4.847   0.604  0.00  0.00    -0.275 N 
ATOM     29  C   UNL     1      12.200   5.140   1.891  0.00  0.00    +0.254 A 
ATOM     30  O   UNL     1      12.969   5.820   2.546  0.00  0.00    -0.268 OA
ATOM     31  C   UNL     1      11.004   4.654   2.470  0.00  0.00    +0.091 A 
ATOM     32  H   UNL     1      13.296   5.179   0.199  0.00  0.00    +0.173 HD
ATOM     33  H   UNL     1       9.891   3.083  -0.117  0.00  0.00    +0.170 HD
ENDBRANCH  23  24
ENDBRANCH   4  23
TORSDOF 6
