REMARK  Name = ZINC40713967
REMARK  4 active torsions:
REMARK  status: ('A' for Active; 'I' for Inactive)
REMARK    1  A    between atoms: C_1  and  C_2
REMARK    2  A    between atoms: C_7  and  O_10
REMARK    3  A    between atoms: O_10  and  C_11
REMARK    4  A    between atoms: C_12  and  N_18
REMARK                            x       y       z     vdW  Elec       q    Type
REMARK                         _______ _______ _______ _____ _____    ______ ____
ROOT
ATOM      1  C   UNL     1      -0.788  -3.735   1.844  0.00  0.00    +0.236 A 
ATOM      2  C   UNL     1      -2.074  -4.274   1.881  0.00  0.00    +0.088 A 
ATOM      3  C   UNL     1      -2.272  -5.503   2.499  0.00  0.00    +0.045 A 
ATOM      4  C   UNL     1      -1.175  -6.146   3.057  0.00  0.00    +0.038 A 
ATOM      5  C   UNL     1       0.069  -5.551   2.981  0.00  0.00    +0.130 A 
ATOM      6  N   UNL     1       0.229  -4.384   2.383  0.00  0.00    -0.219 NA
ATOM      7 BR   UNL     1      -1.382  -7.820   3.911  0.00  0.00    -0.049 Br
ENDROOT
BRANCH   2   8
ATOM      8  N   UNL     1      -3.150  -3.587   1.306  0.00  0.00    -0.354 N 
ATOM      9  H   UNL     1      -3.003  -2.730   0.876  0.00  0.00    +0.142 HD
ATOM     10  H   UNL     1      -4.041  -3.969   1.336  0.00  0.00    +0.142 HD
ENDBRANCH   2   8
BRANCH   1  11
ATOM     11  O   UNL     1      -0.578  -2.535   1.243  0.00  0.00    -0.472 OA
BRANCH  11  17
ATOM     12  C   UNL     1      -0.019   1.526   0.010  0.00  0.00    +0.007 C 
ATOM     13  C   UNL     1       0.002  -0.004   0.002  0.00  0.00    -0.011 C 
ATOM     14  C   UNL     1       0.718  -0.497  -1.257  0.00  0.00    +0.003 C 
ATOM     15  C   UNL     1       0.739  -2.027  -1.265  0.00  0.00    +0.004 C 
ATOM     16  C   UNL     1       1.479  -2.534  -0.026  0.00  0.00    +0.044 C 
ATOM     17  C   UNL     1       0.763  -2.041   1.233  0.00  0.00    +0.175 C 
ATOM     18  C   UNL     1       0.742  -0.511   1.242  0.00  0.00    +0.048 C 
ENDBRANCH  11  17
ENDBRANCH   1  11
TORSDOF 3
