REMARK  Name = ZINC08845400
REMARK  11 active torsions:
REMARK  status: ('A' for Active; 'I' for Inactive)
REMARK    1  A    between atoms: C_1  and  C_2
REMARK    2  A    between atoms: C_4  and  O_33
REMARK    3  A    between atoms: C_5  and  C_9
REMARK    4  A    between atoms: N_17  and  C_29
REMARK    5  A    between atoms: C_18  and  C_20
REMARK    6  A    between atoms: C_23  and  O_28
REMARK    7  A    between atoms: C_24  and  O_26
REMARK    8  A    between atoms: O_26  and  C_27
REMARK    9  A    between atoms: C_29  and  C_30
REMARK   10  A    between atoms: C_30  and  O_31
REMARK   11  A    between atoms: O_31  and  C_32
REMARK                            x       y       z     vdW  Elec       q    Type
REMARK                         _______ _______ _______ _____ _____    ______ ____
ROOT
ATOM      1  C   UNL     1      -1.011  -4.361   0.980  0.00  0.00    +0.102 A 
ATOM      2  C   UNL     1      -0.568  -5.224   1.988  0.00  0.00    +0.035 A 
ATOM      3  C   UNL     1      -0.399  -6.454   1.382  0.00  0.00    +0.126 A 
ATOM      4  N   UNL     1      -0.738  -6.281   0.070  0.00  0.00    -0.272 N 
ATOM      5  H   UNL     1      -0.718  -6.976  -0.607  0.00  0.00    +0.189 HD
ATOM      6  N   UNL     1      -1.093  -5.063  -0.133  0.00  0.00    -0.173 NA
ATOM      7  C   UNL     1       0.067  -7.412   2.391  0.00  0.00    +0.266 C 
ATOM      8  O   UNL     1       0.311  -8.584   2.177  0.00  0.00    -0.268 OA
ATOM      9  N   UNL     1       0.187  -6.809   3.588  0.00  0.00    -0.283 N 
ATOM     10  C   UNL     1      -0.198  -5.400   3.435  0.00  0.00    +0.141 C 
ENDROOT
BRANCH   1  15
ATOM     11  C   UNL     1      -2.270   1.230   1.591  0.00  0.00    +0.045 C 
ATOM     12  C   UNL     1      -1.940  -0.231   1.429  0.00  0.00    -0.029 A 
ATOM     13  C   UNL     1      -1.958  -0.805   0.171  0.00  0.00    +0.050 A 
ATOM     14  C   UNL     1      -1.657  -2.148   0.017  0.00  0.00    +0.126 A 
ATOM     15  C   UNL     1      -1.335  -2.921   1.136  0.00  0.00    +0.045 A 
ATOM     16  C   UNL     1      -1.319  -2.334   2.399  0.00  0.00    +0.034 A 
ATOM     17  C   UNL     1      -1.616  -0.992   2.539  0.00  0.00    +0.045 A 
ATOM     18 CL   UNL     1      -1.590  -0.259   4.112  0.00  0.00    -0.083 Cl
BRANCH  14  19
ATOM     19  O   UNL     1      -1.675  -2.713  -1.219  0.00  0.00    -0.506 OA
ATOM     20  H   UNL     1      -0.827  -2.673  -1.682  0.00  0.00    +0.292 HD
ENDBRANCH  14  19
ENDBRANCH   1  15
BRANCH  10  21
ATOM     21  C   UNL     1       0.961  -4.504   3.787  0.00  0.00    -0.019 A 
ATOM     22  C   UNL     1       2.136  -4.579   3.061  0.00  0.00    +0.009 A 
ATOM     23  C   UNL     1       3.202  -3.759   3.380  0.00  0.00    +0.049 A 
ATOM     24  C   UNL     1       3.095  -2.859   4.428  0.00  0.00    +0.158 A 
ATOM     25  C   UNL     1       1.913  -2.783   5.157  0.00  0.00    +0.162 A 
ATOM     26  C   UNL     1       0.846  -3.604   4.830  0.00  0.00    +0.055 A 
BRANCH  25  27
ATOM     27  O   UNL     1       1.803  -1.901   6.187  0.00  0.00    -0.491 OA
ATOM     28  C   UNL     1       0.526  -1.798   6.819  0.00  0.00    +0.277 C 
ENDBRANCH  25  27
BRANCH  24  29
ATOM     29  O   UNL     1       4.144  -2.052   4.742  0.00  0.00    -0.503 OA
ATOM     30  H   UNL     1       4.142  -1.206   4.276  0.00  0.00    +0.292 HD
ENDBRANCH  24  29
ENDBRANCH  10  21
BRANCH   9  31
ATOM     31  C   UNL     1       0.625  -7.449   4.831  0.00  0.00    +0.137 C 
BRANCH  31  32
ATOM     32  C   UNL     1       2.154  -7.517   4.857  0.00  0.00    +0.178 C 
BRANCH  32  33
ATOM     33  O   UNL     1       2.687  -6.198   4.995  0.00  0.00    -0.381 OA
ATOM     34  C   UNL     1       4.105  -6.160   5.166  0.00  0.00    +0.194 C 
ENDBRANCH  32  33
ENDBRANCH  31  32
ENDBRANCH   9  31
TORSDOF 8
