REMARK  Name = ZINC44263775
REMARK  3 active torsions:
REMARK  status: ('A' for Active; 'I' for Inactive)
REMARK    1  A    between atoms: C_3  and  C_11
REMARK    2  A    between atoms: C_5  and  C_6
REMARK    3  A    between atoms: C_7  and  C_8
REMARK                            x       y       z     vdW  Elec       q    Type
REMARK                         _______ _______ _______ _____ _____    ______ ____
ROOT
ATOM      1  C   UNL     1       0.450   0.891   0.792  0.00  0.00    +0.050 A 
ATOM      2  C   UNL     1       1.778   0.967   1.219  0.00  0.00    +0.050 A 
ATOM      3  C   UNL     1       2.250  -0.324   1.296  0.00  0.00    +0.138 A 
ATOM      4  O   UNL     1       1.263  -1.163   0.935  0.00  0.00    -0.455 OA
ATOM      5  C   UNL     1       0.160  -0.450   0.625  0.00  0.00    +0.129 A 
ENDROOT
BRANCH   3   6
ATOM      6  C   UNL     1       3.611  -0.721   1.706  0.00  0.00    +0.054 A 
ATOM      7  C   UNL     1       4.713  -0.354   0.929  0.00  0.00    +0.054 A 
ATOM      8  C   UNL     1       5.983  -0.728   1.319  0.00  0.00    +0.040 A 
ATOM      9  C   UNL     1       6.167  -1.464   2.478  0.00  0.00    +0.044 A 
ATOM     10  C   UNL     1       5.079  -1.831   3.252  0.00  0.00    +0.040 A 
ATOM     11  C   UNL     1       3.804  -1.459   2.878  0.00  0.00    +0.054 A 
ATOM     12 CL   UNL     1       2.442  -1.914   3.854  0.00  0.00    -0.083 Cl
ATOM     13 CL   UNL     1       7.768  -1.931   2.961  0.00  0.00    -0.083 Cl
ATOM     14 CL   UNL     1       4.486   0.569  -0.524  0.00  0.00    -0.083 Cl
ENDBRANCH   3   6
BRANCH   5  15
ATOM     15  C   UNL     1      -1.079  -0.983   0.202  0.00  0.00    +0.051 C 
ATOM     16  C   UNL     1      -1.108  -2.023  -0.672  0.00  0.00    +0.070 C 
BRANCH  16  17
ATOM     17  C   UNL     1       0.084  -2.452  -1.300  0.00  0.00    +0.234 C 
ATOM     18  O   UNL     1       1.112  -1.815  -1.155  0.00  0.00    -0.271 OA
ATOM     19  N   UNL     1       0.082  -3.565  -2.060  0.00  0.00    -0.326 N 
ATOM     20  H   UNL     1      -0.737  -4.072  -2.176  0.00  0.00    +0.145 HD
ATOM     21  H   UNL     1       0.900  -3.860  -2.491  0.00  0.00    +0.145 HD
ENDBRANCH  16  17
ENDBRANCH   5  15
TORSDOF 3
