REMARK  Name = ZINC35280904
REMARK  6 active torsions:
REMARK  status: ('A' for Active; 'I' for Inactive)
REMARK    1  A    between atoms: C_1  and  C_2
REMARK    2  A    between atoms: C_2  and  C_3
REMARK    3  A    between atoms: C_2  and  C_4
REMARK    4  A    between atoms: C_4  and  C_19
REMARK    5  A    between atoms: N_8  and  C_11
REMARK    6  A    between atoms: C_14  and  N_18
REMARK                            x       y       z     vdW  Elec       q    Type
REMARK                         _______ _______ _______ _____ _____    ______ ____
ROOT
ATOM      1  C   UNL     1      -1.433  -0.534   0.013  0.00  0.00    +0.056 C 
ATOM      2  C   UNL     1      -1.443  -2.072   0.116  0.00  0.00    +0.113 C 
ATOM      3  C   UNL     1      -2.170  -2.336   1.417  0.00  0.00    +0.227 C 
ATOM      4  O   UNL     1      -2.399  -3.431   1.883  0.00  0.00    -0.275 OA
ATOM      5  N   UNL     1      -2.519  -1.169   1.970  0.00  0.00    -0.209 N 
ATOM      6  C   UNL     1      -2.155  -0.090   1.266  0.00  0.00    +0.233 C 
ATOM      7  O   UNL     1      -2.370   1.061   1.583  0.00  0.00    -0.274 OA
ATOM      8  C   UNL     1      -2.186  -0.069  -1.235  0.00  0.00    +0.021 C 
ENDROOT
BRANCH   5   9
ATOM      9  C   UNL     1      -3.211  -1.083   3.189  0.00  0.00    +0.062 A 
ATOM     10  C   UNL     1      -2.507  -1.001   4.383  0.00  0.00    +0.027 A 
ATOM     11  C   UNL     1      -3.186  -0.917   5.581  0.00  0.00    +0.024 A 
ATOM     12  C   UNL     1      -4.575  -0.913   5.594  0.00  0.00    +0.026 A 
ATOM     13  C   UNL     1      -5.281  -0.994   4.400  0.00  0.00    +0.044 A 
ATOM     14  C   UNL     1      -4.600  -1.073   3.200  0.00  0.00    +0.064 A 
ATOM     15 CL   UNL     1      -5.481  -1.167   1.707  0.00  0.00    -0.082 Cl
BRANCH  12  16
ATOM     16  N   UNL     1      -5.263  -0.828   6.808  0.00  0.00    -0.358 N 
ATOM     17  H   UNL     1      -4.771  -0.771   7.642  0.00  0.00    +0.142 HD
ATOM     18  H   UNL     1      -6.234  -0.825   6.817  0.00  0.00    +0.142 HD
ENDBRANCH  12  16
ENDBRANCH   5   9
BRANCH   1  20
ATOM     19  C   UNL     1      -0.019   1.526   0.010  0.00  0.00    +0.008 C 
ATOM     20  C   UNL     1       0.002  -0.004   0.002  0.00  0.00    -0.002 C 
ATOM     21  C   UNL     1       0.742  -0.511   1.242  0.00  0.00    +0.008 C 
ENDBRANCH   1  20
TORSDOF 3
