REMARK  Name = ZINC03486535
REMARK  7 active torsions:
REMARK  status: ('A' for Active; 'I' for Inactive)
REMARK    1  A    between atoms: C_1  and  C_2
REMARK    2  A    between atoms: C_5  and  N_9
REMARK    3  A    between atoms: C_10  and  C_12
REMARK    4  A    between atoms: C_12  and  S_13
REMARK    5  A    between atoms: S_13  and  C_14
REMARK    6  A    between atoms: C_17  and  C_20
REMARK    7  A    between atoms: N_18  and  N_19
REMARK                            x       y       z     vdW  Elec       q    Type
REMARK                         _______ _______ _______ _____ _____    ______ ____
ROOT
ATOM      1  N   UNL     1      -0.070   8.768   0.050  0.00  0.00    -0.284 N 
ATOM      2  C   UNL     1       0.748   7.697   0.030  0.00  0.00    +0.228 C 
ATOM      3  O   UNL     1       1.951   7.852   0.023  0.00  0.00    -0.275 OA
ATOM      4  H   UNL     1      -1.030   8.645  -0.011  0.00  0.00    +0.155 HD
ENDROOT
BRANCH   1   9
ATOM      5  C   UNL     1       2.104  13.991   0.484  0.00  0.00    +0.044 C 
ATOM      6  C   UNL     1       1.526  12.604   0.369  0.00  0.00    -0.049 A 
ATOM      7  C   UNL     1       2.208  11.629  -0.336  0.00  0.00    +0.005 A 
ATOM      8  C   UNL     1       1.681  10.356  -0.444  0.00  0.00    +0.024 A 
ATOM      9  C   UNL     1       0.466  10.056   0.157  0.00  0.00    +0.047 A 
ATOM     10  C   UNL     1      -0.219  11.039   0.861  0.00  0.00    +0.039 A 
ATOM     11  C   UNL     1       0.316  12.308   0.969  0.00  0.00    +0.020 A 
ATOM     12 BR   UNL     1      -1.878  10.637   1.675  0.00  0.00    -0.048 Br
ENDBRANCH   1   9
BRANCH   2  13
ATOM     13  C   UNL     1       0.169   6.306   0.017  0.00  0.00    +0.173 C 
BRANCH  13  14
ATOM     14  S   UNL     1       1.512   5.093  -0.009  0.00  0.00    -0.075 S 
BRANCH  14  15
ATOM     15  C   UNL     1       0.576   3.600  -0.021  0.00  0.00    +0.209 A 
ATOM     16  N   UNL     1      -0.734   3.499  -0.013  0.00  0.00    -0.121 NA
ATOM     17  N   UNL     1      -1.076   2.261  -0.032  0.00  0.00    -0.132 NA
ATOM     18  C   UNL     1      -0.016   1.503  -0.043  0.00  0.00    +0.148 A 
ATOM     19  N   UNL     1       1.074   2.329  -0.041  0.00  0.00    -0.228 N 
ATOM     20  C   UNL     1       0.005  -0.004  -0.062  0.00  0.00    +0.090 C 
BRANCH  19  21
ATOM     21  N   UNL     1       2.389   1.959  -0.054  0.00  0.00    -0.295 N 
ATOM     22  H   UNL     1       2.730   1.873  -1.000  0.00  0.00    +0.163 HD
ATOM     23  H   UNL     1       2.953   2.607   0.476  0.00  0.00    +0.163 HD
ENDBRANCH  19  21
ENDBRANCH  14  15
ENDBRANCH  13  14
ENDBRANCH   2  13
TORSDOF 5
