REMARK  Name = ZINC44737499
REMARK  6 active torsions:
REMARK  status: ('A' for Active; 'I' for Inactive)
REMARK    1  A    between atoms: C_1  and  C_2
REMARK    2  A    between atoms: C_9  and  C_11
REMARK    3  A    between atoms: C_11  and  C_13
REMARK    4  A    between atoms: C_11  and  N_14
REMARK    5  A    between atoms: C_15  and  C_17
REMARK    6  A    between atoms: C_28  and  C_30
REMARK                            x       y       z     vdW  Elec       q    Type
REMARK                         _______ _______ _______ _____ _____    ______ ____
ROOT
ATOM      1  C   UNL     1       1.777  -8.057   1.660  0.00  0.00    +0.100 C 
ATOM      2  C   UNL     1       2.807  -7.887   0.521  0.00  0.00    +0.121 C 
ATOM      3  N   UNL     1       4.119  -8.146   1.161  0.00  0.00    -0.300 N 
ATOM      4  C   UNL     1       3.859  -9.270   2.092  0.00  0.00    +0.115 C 
ATOM      5  C   UNL     1       2.470  -8.968   2.688  0.00  0.00    -0.004 C 
ATOM      6  C   UNL     1       1.679 -10.260   2.866  0.00  0.00    -0.010 C 
ATOM      7  C   UNL     1       2.356 -11.124   3.934  0.00  0.00    -0.082 C 
ATOM      8  N   UNL     1       2.413 -10.384   5.200  0.00  0.00    +0.379 N 
ATOM      9  C   UNL     1       3.253  -9.190   5.044  0.00  0.00    -0.082 C 
ATOM     10  C   UNL     1       2.615  -8.244   4.023  0.00  0.00    -0.010 C 
ATOM     11  C   UNL     1       5.284  -7.504   0.945  0.00  0.00    +0.219 C 
ATOM     12  O   UNL     1       5.320  -6.546   0.203  0.00  0.00    -0.275 OA
ATOM     13  H   UNL     1       1.482 -10.105   5.468  0.00  0.00    -0.086 HD
ATOM     14  H   UNL     1       2.804 -10.976   5.917  0.00  0.00    -0.086 HD
ENDROOT
BRANCH  11  15
ATOM     15  C   UNL     1       6.542  -7.977   1.626  0.00  0.00    +0.079 C 
ATOM     16  C   UNL     1       7.531  -6.811   1.749  0.00  0.00    +0.017 C 
ATOM     17  C   UNL     1       8.719  -7.271   2.598  0.00  0.00    +0.027 C 
ATOM     18  C   UNL     1       9.236  -8.586   2.093  0.00  0.00    -0.031 C 
ATOM     19  C   UNL     1       8.572  -9.375   1.311  0.00  0.00    -0.030 C 
ATOM     20  C   UNL     1       7.193  -9.084   0.794  0.00  0.00    +0.039 C 
ENDBRANCH  11  15
BRANCH   1  22
ATOM     21  N   UNL     1       0.242  -6.509   2.831  0.00  0.00    -0.305 N 
ATOM     22  C   UNL     1       1.453  -6.721   2.278  0.00  0.00    +0.219 C 
ATOM     23  O   UNL     1       2.283  -5.836   2.278  0.00  0.00    -0.275 OA
ATOM     24  H   UNL     1      -0.421  -7.217   2.831  0.00  0.00    +0.149 HD
BRANCH  21  25
ATOM     25  C   UNL     1      -0.072  -5.211   3.431  0.00  0.00    +0.136 C 
ATOM     26  C   UNL     1       0.430  -5.182   4.876  0.00  0.00    +0.036 C 
BRANCH  25  35
ATOM     27  C   UNL     1      -7.131  -2.855   3.367  0.00  0.00    +0.044 C 
ATOM     28  C   UNL     1      -5.916  -3.747   3.370  0.00  0.00    -0.048 A 
ATOM     29  C   UNL     1      -6.073  -5.125   3.345  0.00  0.00    +0.005 A 
ATOM     30  C   UNL     1      -4.985  -5.951   3.347  0.00  0.00    +0.030 A 
ATOM     31  C   UNL     1      -3.698  -5.406   3.375  0.00  0.00    +0.089 A 
ATOM     32  C   UNL     1      -3.539  -4.010   3.400  0.00  0.00    +0.067 A 
ATOM     33  C   UNL     1      -4.657  -3.187   3.393  0.00  0.00    +0.031 A 
ATOM     34  N   UNL     1      -2.177  -3.783   3.424  0.00  0.00    -0.340 N 
ATOM     35  C   UNL     1      -1.564  -4.997   3.413  0.00  0.00    +0.128 A 
ATOM     36  N   UNL     1      -2.453  -5.947   3.385  0.00  0.00    -0.231 NA
ATOM     37  H   UNL     1      -1.739  -2.917   3.445  0.00  0.00    +0.167 HD
ENDBRANCH  25  35
ENDBRANCH  21  25
ENDBRANCH   1  22
TORSDOF 4
