REMARK  Name = ZINC20945663
REMARK  2 active torsions:
REMARK  status: ('A' for Active; 'I' for Inactive)
REMARK    1  A    between atoms: C_3  and  N_9
REMARK    2  A    between atoms: N_12  and  C_13
REMARK                            x       y       z     vdW  Elec       q    Type
REMARK                         _______ _______ _______ _____ _____    ______ ____
ROOT
ATOM      1  N   UNL     1       2.388   1.103   0.145  0.00  0.00    -0.267 N 
ATOM      2  C   UNL     1       2.425  -0.241   0.235  0.00  0.00    +0.308 C 
ATOM      3  O   UNL     1       1.394  -0.869   0.379  0.00  0.00    -0.252 OA
ATOM      4  N   UNL     1       3.604  -0.889   0.165  0.00  0.00    -0.264 N 
ATOM      5  H   UNL     1       3.308   1.665  -0.071  0.00  0.00    +0.156 HD
ATOM      6  H   UNL     1       4.543  -0.318   0.114  0.00  0.00    +0.157 HD
ENDROOT
BRANCH   4   7
ATOM      7  C   UNL     1       3.635  -2.296   0.157  0.00  0.00    +0.116 A 
ATOM      8  C   UNL     1       4.328  -2.974   1.101  0.00  0.00    +0.116 A 
ATOM      9  N   UNL     1       4.340  -4.346   1.079  0.00  0.00    -0.313 N 
ATOM     10  H   UNL     1       4.894  -4.903   1.849  0.00  0.00    +0.170 HD
ATOM     11  C   UNL     1       3.680  -5.021   0.122  0.00  0.00    +0.327 A 
ATOM     12  O   UNL     1       3.708  -6.237   0.120  0.00  0.00    -0.247 OA
ATOM     13  N   UNL     1       2.988  -4.374  -0.833  0.00  0.00    -0.274 N 
ATOM     14  H   UNL     1       2.454  -4.944  -1.608  0.00  0.00    +0.173 HD
ATOM     15  C   UNL     1       2.943  -3.026  -0.847  0.00  0.00    +0.275 A 
ATOM     16  O   UNL     1       2.317  -2.441  -1.711  0.00  0.00    -0.266 OA
ENDBRANCH   4   7
BRANCH   1  19
ATOM     17  C   UNL     1      -1.047   1.865   1.219  0.00  0.00    +0.017 A 
ATOM     18  C   UNL     1       0.148   1.193   1.046  0.00  0.00    +0.027 A 
ATOM     19  C   UNL     1       1.178   1.785   0.328  0.00  0.00    +0.070 A 
ATOM     20  C   UNL     1       1.005   3.055  -0.211  0.00  0.00    +0.146 A 
ATOM     21  C   UNL     1      -0.191   3.724  -0.029  0.00  0.00    +0.055 A 
ATOM     22  C   UNL     1      -1.215   3.131   0.688  0.00  0.00    +0.021 A 
ATOM     23 BR   UNL     1      -2.850   4.048   0.934  0.00  0.00    -0.050 Br
ATOM     24  F   UNL     1       2.005   3.635  -0.911  0.00  0.00    -0.204 F 
ENDBRANCH   1  19
TORSDOF 2
