REMARK  Name = ZINC42430410
REMARK  2 active torsions:
REMARK  status: ('A' for Active; 'I' for Inactive)
REMARK    1  A    between atoms: C_5  and  C_8
REMARK    2  A    between atoms: C_17  and  N_20
REMARK                            x       y       z     vdW  Elec       q    Type
REMARK                         _______ _______ _______ _____ _____    ______ ____
ROOT
ATOM      1  C   UNL     1       0.692   0.868   0.611  0.00  0.00    +0.004 C 
ATOM      2  C   UNL     1       1.997   0.088   0.428  0.00  0.00    +0.019 C 
ATOM      3  C   UNL     1       3.184   1.040   0.604  0.00  0.00    +0.110 C 
ATOM      4  N   UNL     1       3.061   1.715   1.903  0.00  0.00    -0.272 N 
ATOM      5  C   UNL     1       1.811   2.418   2.218  0.00  0.00    +0.190 C 
ATOM      6  C   UNL     1       0.639   1.451   2.025  0.00  0.00    +0.034 C 
ATOM      7  C   UNL     1       4.077   1.688   2.789  0.00  0.00    +0.305 C 
ATOM      8  O   UNL     1       4.452   0.629   3.253  0.00  0.00    -0.252 OA
ATOM      9  N   UNL     1       4.676   2.837   3.163  0.00  0.00    -0.287 N 
ATOM     10  C   UNL     1       4.125   4.136   2.752  0.00  0.00    +0.109 C 
ATOM     11  C   UNL     1       3.921   5.001   3.999  0.00  0.00    +0.017 C 
ATOM     12  C   UNL     1       5.238   5.093   4.773  0.00  0.00    -0.013 C 
ATOM     13  C   UNL     1       5.667   3.694   5.221  0.00  0.00    -0.057 C 
ATOM     14  C   UNL     1       5.888   2.813   3.993  0.00  0.00    +0.093 C 
ENDROOT
BRANCH  13  15
ATOM     15  N   UNL     1       6.914   3.786   5.991  0.00  0.00    +0.381 N 
ATOM     16  H   UNL     1       6.766   4.368   6.802  0.00  0.00    -0.090 HD
ATOM     17  H   UNL     1       7.196   2.864   6.287  0.00  0.00    -0.090 HD
ATOM     18  H   UNL     1       7.636   4.190   5.415  0.00  0.00    -0.090 HD
ENDBRANCH  13  15
BRANCH   5  19
ATOM     19  C   UNL     1       1.845   2.895   3.648  0.00  0.00    +0.376 C 
ATOM     20  O   UNL     1       1.250   3.910   3.966  0.00  0.00    -0.244 OA
ATOM     21  O   UNL     1       2.469   2.265   4.485  0.00  0.00    -0.244 OA
ENDBRANCH   5  19
TORSDOF 2
