REMARK  Name = ZINC00182418
REMARK  4 active torsions:
REMARK  status: ('A' for Active; 'I' for Inactive)
REMARK    1  A    between atoms: C_1  and  C_2
REMARK    2  A    between atoms: N_12  and  C_15
REMARK    3  A    between atoms: C_18  and  S_21
REMARK    4  A    between atoms: S_21  and  N_24
REMARK                            x       y       z     vdW  Elec       q    Type
REMARK                         _______ _______ _______ _____ _____    ______ ____
ROOT
ATOM      1  C   UNL     1      -0.018   1.503   0.010  0.00  0.00    +0.039 C 
ATOM      2  C   UNL     1       0.002  -0.004   0.002  0.00  0.00    -0.076 C 
ATOM      3  C   UNL     1       0.005  -0.604  -1.150  0.00  0.00    -0.027 C 
ATOM      4  C   UNL     1       0.050  -2.107  -1.331  0.00  0.00    +0.040 C 
ATOM      5  C   UNL     1       0.542  -2.692  -0.024  0.00  0.00    +0.092 C 
ATOM      6  C   UNL     1      -0.416  -2.145   1.079  0.00  0.00    +0.092 C 
ATOM      7  C   UNL     1       0.024  -0.718   1.337  0.00  0.00    +0.043 C 
ATOM      8  C   UNL     1      -0.186  -3.163   2.155  0.00  0.00    +0.230 C 
ATOM      9  O   UNL     1      -0.257  -2.985   3.352  0.00  0.00    -0.274 OA
ATOM     10  N   UNL     1       0.118  -4.325   1.520  0.00  0.00    -0.210 N 
ATOM     11  C   UNL     1       0.402  -4.169   0.189  0.00  0.00    +0.230 C 
ATOM     12  O   UNL     1       0.509  -5.039  -0.648  0.00  0.00    -0.274 OA
ENDROOT
BRANCH  10  13
ATOM     13  C   UNL     1       0.154  -5.568   2.168  0.00  0.00    +0.044 A 
ATOM     14  C   UNL     1      -0.134  -5.654   3.523  0.00  0.00    +0.026 A 
ATOM     15  C   UNL     1      -0.097  -6.880   4.158  0.00  0.00    +0.030 A 
ATOM     16  C   UNL     1       0.226  -8.020   3.446  0.00  0.00    +0.105 A 
ATOM     17  C   UNL     1       0.514  -7.937   2.096  0.00  0.00    +0.030 A 
ATOM     18  C   UNL     1       0.473  -6.715   1.454  0.00  0.00    +0.026 A 
BRANCH  16  19
ATOM     19  S   UNL     1       0.272  -9.582   4.260  0.00  0.00    +0.056 S 
ATOM     20  O   UNL     1       1.133 -10.414   3.494  0.00  0.00    -0.153 OA
ATOM     21  O   UNL     1       0.498  -9.316   5.637  0.00  0.00    -0.153 OA
BRANCH  19  22
ATOM     22  N   UNL     1      -1.244 -10.239   4.147  0.00  0.00    -0.204 NA
ATOM     23  H   UNL     1      -1.949  -9.754   3.690  0.00  0.00    +0.144 HD
ATOM     24  H   UNL     1      -1.427 -11.107   4.538  0.00  0.00    +0.144 HD
ENDBRANCH  19  22
ENDBRANCH  16  19
ENDBRANCH  10  13
TORSDOF 3
