REMARK  Name = ZINC37073605
REMARK  4 active torsions:
REMARK  status: ('A' for Active; 'I' for Inactive)
REMARK    1  A    between atoms: C_1  and  C_2
REMARK    2  A    between atoms: C_2  and  C_4
REMARK    3  A    between atoms: C_2  and  N_9
REMARK    4  A    between atoms: N_9  and  C_10
REMARK                            x       y       z     vdW  Elec       q    Type
REMARK                         _______ _______ _______ _____ _____    ______ ____
ROOT
ATOM      1  C   UNL     1       2.104  -0.604   1.173  0.00  0.00    +0.030 A 
ATOM      2  C   UNL     1       2.817  -0.251   0.032  0.00  0.00    +0.025 A 
ATOM      3  C   UNL     1       4.191  -0.362   0.011  0.00  0.00    +0.029 A 
ATOM      4  C   UNL     1       4.871  -0.827   1.133  0.00  0.00    +0.066 A 
ATOM      5  C   UNL     1       4.158  -1.182   2.279  0.00  0.00    +0.067 A 
ATOM      6  C   UNL     1       2.773  -1.063   2.296  0.00  0.00    +0.050 A 
ATOM      7  N   UNL     1       4.822  -1.650   3.410  0.00  0.00    -0.316 N 
ATOM      8  H   UNL     1       4.318  -1.894   4.201  0.00  0.00    +0.169 HD
ATOM      9  C   UNL     1       6.166  -1.763   3.406  0.00  0.00    +0.314 A 
ATOM     10  O   UNL     1       6.749  -2.171   4.390  0.00  0.00    -0.262 OA
ATOM     11  C   UNL     1       6.928  -1.384   2.182  0.00  0.00    +0.314 A 
ATOM     12  O   UNL     1       8.139  -1.479   2.159  0.00  0.00    -0.262 OA
ATOM     13  N   UNL     1       6.260  -0.935   1.101  0.00  0.00    -0.316 N 
ATOM     14  H   UNL     1       6.746  -0.686   0.299  0.00  0.00    +0.169 HD
ENDROOT
BRANCH   1  15
ATOM     15  N   UNL     1       0.711  -0.489   1.189  0.00  0.00    -0.337 N 
ATOM     16  H   UNL     1       0.213  -0.731   1.986  0.00  0.00    +0.147 HD
BRANCH  15  18
ATOM     17  C   UNL     1      -0.019   1.526   0.010  0.00  0.00    +0.033 C 
ATOM     18  C   UNL     1       0.002  -0.004   0.002  0.00  0.00    +0.104 C 
BRANCH  18  19
ATOM     19  C   UNL     1      -1.412  -0.526   0.013  0.00  0.00    +0.010 A 
ATOM     20  C   UNL     1      -2.157  -0.992  -1.019  0.00  0.00    +0.013 A 
ATOM     21  C   UNL     1      -3.447  -1.425  -0.772  0.00  0.00    +0.008 A 
ATOM     22  C   UNL     1      -3.927  -1.370   0.494  0.00  0.00    +0.045 A 
ATOM     23  S   UNL     1      -2.537  -0.697   1.389  0.00  0.00    -0.100 S 
ENDBRANCH  18  19
ENDBRANCH  15  18
ENDBRANCH   1  15
TORSDOF 3
