REMARK  Name = ZINC09126164
REMARK  11 active torsions:
REMARK  status: ('A' for Active; 'I' for Inactive)
REMARK    1  A    between atoms: C_1  and  C_2
REMARK    2  A    between atoms: C_2  and  C_4
REMARK    3  A    between atoms: C_2  and  N_57
REMARK    4  A    between atoms: C_7  and  S_16
REMARK    5  A    between atoms: N_8  and  C_9
REMARK    6  A    between atoms: S_16  and  C_17
REMARK    7  A    between atoms: C_17  and  C_19
REMARK    8  A    between atoms: C_17  and  C_25
REMARK    9  A    between atoms: N_30  and  C_31
REMARK   10  A    between atoms: C_32  and  N_57
REMARK   11  A    between atoms: C_33  and  N_57
REMARK                            x       y       z     vdW  Elec       q    Type
REMARK                         _______ _______ _______ _____ _____    ______ ____
ROOT
ATOM      1  C   UNL     1      -1.735   3.449   0.092  0.00  0.00    +0.125 A 
ATOM      2  N   UNL     1      -1.713   3.004  -1.133  0.00  0.00    -0.135 NA
ATOM      3  N   UNL     1      -2.627   3.578  -1.829  0.00  0.00    -0.122 NA
ATOM      4  C   UNL     1      -3.290   4.430  -1.081  0.00  0.00    +0.197 A 
ATOM      5  N   UNL     1      -2.744   4.371   0.172  0.00  0.00    -0.275 N 
ENDROOT
BRANCH   5   6
ATOM      6  C   UNL     1      -3.135   5.104   1.302  0.00  0.00    +0.050 A 
ATOM      7  C   UNL     1      -3.671   4.450   2.403  0.00  0.00    +0.028 A 
ATOM      8  C   UNL     1      -4.051   5.173   3.517  0.00  0.00    +0.022 A 
ATOM      9  C   UNL     1      -3.908   6.549   3.532  0.00  0.00    +0.041 A 
ATOM     10  C   UNL     1      -3.378   7.204   2.433  0.00  0.00    +0.022 A 
ATOM     11  C   UNL     1      -2.992   6.484   1.319  0.00  0.00    +0.028 A 
ATOM     12 CL   UNL     1      -4.391   7.456   4.931  0.00  0.00    -0.084 Cl
ENDBRANCH   5   6
BRANCH   1  14
ATOM     13  C   UNL     1       0.559   3.650   1.013  0.00  0.00    -0.005 C 
ATOM     14  C   UNL     1      -0.822   3.023   1.213  0.00  0.00    -0.003 C 
BRANCH  14  17
ATOM     15  C   UNL     1      -0.013   1.086   0.008  0.00  0.00    -0.096 C 
ATOM     16  C   UNL     1      -0.016   1.091   2.429  0.00  0.00    -0.096 C 
ATOM     17  N   UNL     1      -0.727   1.548   1.217  0.00  0.00    +0.382 N 
ATOM     18  H   UNL     1      -1.674   1.153   1.216  0.00  0.00    -0.082 HD
ENDBRANCH  14  17
ENDBRANCH   1  14
BRANCH   4  19
ATOM     19  S   UNL     1      -4.633   5.449  -1.592  0.00  0.00    -0.068 S 
BRANCH  19  20
ATOM     20  C   UNL     1      -4.758   4.957  -3.329  0.00  0.00    +0.170 C 
BRANCH  20  21
ATOM     21  C   UNL     1      -5.792   5.810  -4.020  0.00  0.00    +0.238 C 
ATOM     22  O   UNL     1      -6.628   6.396  -3.367  0.00  0.00    -0.274 OA
ATOM     23  N   UNL     1      -5.785   5.920  -5.363  0.00  0.00    -0.239 N 
ATOM     24  C   UNL     1      -6.709   6.683  -5.981  0.00  0.00    +0.306 C 
ATOM     25  O   UNL     1      -7.548   7.271  -5.326  0.00  0.00    -0.252 OA
ATOM     26  N   UNL     1      -6.703   6.793  -7.324  0.00  0.00    -0.302 N 
ATOM     27  C   UNL     1      -7.708   7.622  -7.995  0.00  0.00    +0.129 C 
ATOM     28  H   UNL     1      -5.116   5.451  -5.885  0.00  0.00    +0.159 HD
ATOM     29  H   UNL     1      -6.034   6.324  -7.846  0.00  0.00    +0.150 HD
ENDBRANCH  20  21
BRANCH  20  30
ATOM     30  C   UNL     1      -5.165   3.509  -3.413  0.00  0.00    -0.025 A 
ATOM     31  C   UNL     1      -6.360   3.093  -2.856  0.00  0.00    +0.005 A 
ATOM     32  C   UNL     1      -6.735   1.765  -2.937  0.00  0.00    +0.000 A 
ATOM     33  C   UNL     1      -5.911   0.851  -3.566  0.00  0.00    +0.000 A 
ATOM     34  C   UNL     1      -4.713   1.266  -4.118  0.00  0.00    +0.000 A 
ATOM     35  C   UNL     1      -4.340   2.594  -4.041  0.00  0.00    +0.005 A 
ENDBRANCH  20  30
ENDBRANCH  19  20
ENDBRANCH   4  19
TORSDOF 7
