REMARK  Name = ZINC44166798
REMARK  13 active torsions:
REMARK  status: ('A' for Active; 'I' for Inactive)
REMARK    1  A    between atoms: C_3  and  O_42
REMARK    2  A    between atoms: C_6  and  C_7
REMARK    3  A    between atoms: C_7  and  O_9
REMARK    4  A    between atoms: O_9  and  C_10
REMARK    5  A    between atoms: C_10  and  C_11
REMARK    6  A    between atoms: C_13  and  O_41
REMARK    7  A    between atoms: C_19  and  O_24
REMARK    8  A    between atoms: O_24  and  C_25
REMARK    9  A    between atoms: C_27  and  O_40
REMARK   10  A    between atoms: C_29  and  O_39
REMARK   11  A    between atoms: C_31  and  O_38
REMARK   12  A    between atoms: C_33  and  C_36
REMARK   13  A    between atoms: C_36  and  O_37
REMARK                            x       y       z     vdW  Elec       q    Type
REMARK                         _______ _______ _______ _____ _____    ______ ____
ROOT
ATOM      1  C   UNL     1      -2.286  -4.267   0.002  0.00  0.00    -0.024 C 
ATOM      2  C   UNL     1      -1.114  -4.843  -0.007  0.00  0.00    +0.007 C 
ATOM      3  C   UNL     1      -1.251  -6.350  -0.009  0.00  0.00    +0.145 C 
ATOM      4  C   UNL     1      -2.707  -6.598   0.442  0.00  0.00    +0.060 C 
ATOM      5  C   UNL     1      -3.396  -5.301   0.007  0.00  0.00    +0.096 C 
ATOM      6  C   UNL     1      -3.977  -5.406  -1.392  0.00  0.00    +0.317 C 
ATOM      7  O   UNL     1      -4.678  -6.615  -1.612  0.00  0.00    -0.471 OA
ATOM      8  C   UNL     1      -4.170  -7.774  -1.151  0.00  0.00    +0.186 C 
ATOM      9  C   UNL     1      -3.261  -7.822  -0.199  0.00  0.00    +0.018 C 
ENDROOT
BRANCH   3  10
ATOM     10  O   UNL     1      -1.036  -6.871  -1.322  0.00  0.00    -0.387 OA
ATOM     11  H   UNL     1      -0.154  -6.692  -1.676  0.00  0.00    +0.210 HD
ENDBRANCH   3  10
BRANCH   1  12
ATOM     12  C   UNL     1      -2.506  -2.776   0.012  0.00  0.00    +0.264 C 
BRANCH  12  13
ATOM     13  O   UNL     1      -1.243  -2.108   0.003  0.00  0.00    -0.457 OA
BRANCH  13  14
ATOM     14  C   UNL     1      -1.264  -0.761   0.011  0.00  0.00    +0.339 C 
ATOM     15  O   UNL     1      -2.325  -0.169   0.024  0.00  0.00    -0.245 OA
BRANCH  14  21
ATOM     16  C   UNL     1      -0.017   1.394   0.010  0.00  0.00    +0.018 A 
ATOM     17  C   UNL     1       1.167   2.096   0.002  0.00  0.00    +0.046 A 
ATOM     18  C   UNL     1       2.380   1.418  -0.013  0.00  0.00    +0.117 A 
ATOM     19  C   UNL     1       2.404   0.028  -0.021  0.00  0.00    +0.046 A 
ATOM     20  C   UNL     1       1.224  -0.682  -0.014  0.00  0.00    +0.018 A 
ATOM     21  C   UNL     1       0.002  -0.004   0.002  0.00  0.00    +0.059 A 
BRANCH  18  22
ATOM     22  O   UNL     1       3.545   2.114  -0.020  0.00  0.00    -0.507 OA
ATOM     23  H   UNL     1       3.891   2.311   0.861  0.00  0.00    +0.292 HD
ENDBRANCH  18  22
ENDBRANCH  14  21
ENDBRANCH  13  14
ENDBRANCH  12  13
ENDBRANCH   1  12
BRANCH   6  24
ATOM     24  O   UNL     1      -4.873  -4.313  -1.602  0.00  0.00    -0.309 OA
BRANCH  24  25
ATOM     25  C   UNL     1      -5.399  -4.238  -2.928  0.00  0.00    +0.286 C 
ATOM     26  C   UNL     1      -6.138  -2.910  -3.110  0.00  0.00    +0.201 C 
ATOM     27  C   UNL     1      -6.750  -2.863  -4.514  0.00  0.00    +0.179 C 
ATOM     28  C   UNL     1      -7.674  -4.072  -4.696  0.00  0.00    +0.177 C 
ATOM     29  C   UNL     1      -6.876  -5.355  -4.452  0.00  0.00    +0.178 C 
ATOM     30  O   UNL     1      -6.308  -5.320  -3.141  0.00  0.00    -0.340 OA
BRANCH  28  31
ATOM     31  O   UNL     1      -8.752  -3.993  -3.761  0.00  0.00    -0.386 OA
ATOM     32  H   UNL     1      -9.298  -3.201  -3.856  0.00  0.00    +0.210 HD
ENDBRANCH  28  31
BRANCH  27  33
ATOM     33  O   UNL     1      -7.501  -1.657  -4.668  0.00  0.00    -0.386 OA
ATOM     34  H   UNL     1      -6.978  -0.852  -4.559  0.00  0.00    +0.210 HD
ENDBRANCH  27  33
BRANCH  26  35
ATOM     35  O   UNL     1      -7.173  -2.801  -2.132  0.00  0.00    -0.384 OA
ATOM     36  H   UNL     1      -6.856  -2.828  -1.219  0.00  0.00    +0.210 HD
ENDBRANCH  26  35
BRANCH  29  37
ATOM     37  C   UNL     1      -7.806  -6.564  -4.574  0.00  0.00    +0.190 C 
BRANCH  37  38
ATOM     38  O   UNL     1      -7.041  -7.766  -4.462  0.00  0.00    -0.392 OA
ATOM     39  H   UNL     1      -7.567  -8.575  -4.530  0.00  0.00    +0.210 HD
ENDBRANCH  37  38
ENDBRANCH  29  37
ENDBRANCH  24  25
ENDBRANCH   6  24
TORSDOF 13
