REMARK  Name = ZINC40784846
REMARK  5 active torsions:
REMARK  status: ('A' for Active; 'I' for Inactive)
REMARK    1  A    between atoms: C_5  and  C_7
REMARK    2  A    between atoms: N_9  and  N_10
REMARK    3  A    between atoms: C_12  and  N_29
REMARK    4  A    between atoms: C_13  and  O_17
REMARK    5  A    between atoms: O_17  and  C_18
REMARK                            x       y       z     vdW  Elec       q    Type
REMARK                         _______ _______ _______ _____ _____    ______ ____
ROOT
ATOM      1  N   UNL     1       0.099  -4.248  -0.220  0.00  0.00    -0.246 N 
ATOM      2  C   UNL     1      -1.087  -4.972  -0.205  0.00  0.00    +0.163 A 
ATOM      3  C   UNL     1      -1.066  -6.367  -0.113  0.00  0.00    +0.129 A 
ATOM      4  C   UNL     1      -2.285  -7.043  -0.101  0.00  0.00    +0.246 A 
ATOM      5  N   UNL     1      -3.412  -6.343  -0.178  0.00  0.00    -0.199 NA
ATOM      6  C   UNL     1      -3.389  -5.029  -0.264  0.00  0.00    +0.227 A 
ATOM      7  N   UNL     1      -2.260  -4.349  -0.273  0.00  0.00    -0.217 NA
ATOM      8  H   UNL     1       0.950  -4.711  -0.170  0.00  0.00    +0.172 HD
ENDROOT
BRANCH   1  11
ATOM      9  C   UNL     1       1.216  -2.148  -0.321  0.00  0.00    +0.262 C 
ATOM     10  O   UNL     1       2.282  -2.728  -0.259  0.00  0.00    -0.269 OA
ATOM     11  N   UNL     1       0.065  -2.850  -0.307  0.00  0.00    -0.231 N 
ATOM     12  H   UNL     1      -0.786  -2.388  -0.356  0.00  0.00    +0.173 HD
BRANCH   9  17
ATOM     13  C   UNL     1      -0.069   1.371  -0.572  0.00  0.00    +0.001 A 
ATOM     14  C   UNL     1       1.114   2.090  -0.586  0.00  0.00    +0.001 A 
ATOM     15  C   UNL     1       2.329   1.435  -0.515  0.00  0.00    +0.021 A 
ATOM     16  C   UNL     1       2.371   0.057  -0.428  0.00  0.00    +0.053 A 
ATOM     17  C   UNL     1       1.180  -0.674  -0.413  0.00  0.00    +0.056 A 
ATOM     18  C   UNL     1      -0.043  -0.005  -0.485  0.00  0.00    +0.014 A 
ATOM     19 CL   UNL     1       3.897  -0.764  -0.340  0.00  0.00    -0.083 Cl
ENDBRANCH   9  17
ENDBRANCH   1  11
BRANCH   3  20
ATOM     20  N   UNL     1       0.148  -7.066  -0.034  0.00  0.00    -0.351 N 
ATOM     21  H   UNL     1       0.988  -6.582  -0.044  0.00  0.00    +0.143 HD
ATOM     22  H   UNL     1       0.147  -8.034   0.029  0.00  0.00    +0.143 HD
ENDBRANCH   3  20
BRANCH   4  23
ATOM     23  O   UNL     1      -2.320  -8.397  -0.013  0.00  0.00    -0.434 OA
BRANCH  23  24
ATOM     24  C   UNL     1      -3.533  -8.998   0.100  0.00  0.00    +0.156 A 
ATOM     25  C   UNL     1      -4.038  -9.310   1.341  0.00  0.00    +0.049 A 
ATOM     26  C   UNL     1      -5.280  -9.926   1.472  0.00  0.00    +0.019 A 
ATOM     27  C   UNL     1      -6.027 -10.236   0.375  0.00  0.00    +0.027 A 
ATOM     28  C   UNL     1      -5.545  -9.933  -0.908  0.00  0.00    +0.018 A 
ATOM     29  C   UNL     1      -4.285  -9.300  -1.054  0.00  0.00    +0.114 A 
ATOM     30  N   UNL     1      -3.825  -9.006  -2.274  0.00  0.00    -0.251 NA
ATOM     31  C   UNL     1      -4.520  -9.286  -3.350  0.00  0.00    +0.111 A 
ATOM     32  C   UNL     1      -5.768  -9.901  -3.277  0.00  0.00    +0.020 A 
ATOM     33  C   UNL     1      -6.291 -10.240  -2.062  0.00  0.00    +0.013 A 
ATOM     34 BR   UNL     1      -7.710 -11.074   0.582  0.00  0.00    -0.050 Br
ENDBRANCH  23  24
ENDBRANCH   4  23
TORSDOF 5
