REMARK  Name = ZINC63085555
REMARK  8 active torsions:
REMARK  status: ('A' for Active; 'I' for Inactive)
REMARK    1  A    between atoms: C_7  and  C_10
REMARK    2  A    between atoms: C_10  and  C_11
REMARK    3  A    between atoms: C_11  and  C_12
REMARK    4  A    between atoms: C_12  and  C_13
REMARK    5  A    between atoms: N_15  and  C_16
REMARK    6  A    between atoms: C_16  and  C_17
REMARK    7  A    between atoms: C_20  and  N_23
REMARK    8  A    between atoms: C_24  and  C_26
REMARK                            x       y       z     vdW  Elec       q    Type
REMARK                         _______ _______ _______ _____ _____    ______ ____
ROOT
ATOM      1  C   UNL     1      -0.557  -5.454  -2.849  0.00  0.00    +0.213 C 
ATOM      2  O   UNL     1      -0.117  -4.794  -3.766  0.00  0.00    -0.276 OA
ATOM      3  N   UNL     1      -1.396  -6.479  -3.098  0.00  0.00    -0.311 N 
ATOM      4  H   UNL     1      -1.748  -7.007  -2.364  0.00  0.00    +0.149 HD
ENDROOT
BRANCH   1   5
ATOM      5  C   UNL     1      -0.167  -5.128  -1.430  0.00  0.00    +0.096 C 
BRANCH   5   6
ATOM      6  C   UNL     1       0.786  -3.930  -1.426  0.00  0.00    +0.014 C 
BRANCH   6   7
ATOM      7  C   UNL     1       1.183  -3.599   0.014  0.00  0.00    +0.033 C 
BRANCH   7  14
ATOM      8  C   UNL     1       0.499   0.906   0.557  0.00  0.00    +0.001 A 
ATOM      9  C   UNL     1       1.675   1.665   0.487  0.00  0.00    +0.002 A 
ATOM     10  C   UNL     1       2.889   1.112   0.281  0.00  0.00    +0.026 A 
ATOM     11  C   UNL     1       3.020  -0.295   0.122  0.00  0.00    +0.043 A 
ATOM     12  N   UNL     1       4.067  -1.056  -0.086  0.00  0.00    -0.380 N 
ATOM     13  C   UNL     1       3.621  -2.451  -0.172  0.00  0.00    +0.144 C 
ATOM     14  C   UNL     1       2.121  -2.420   0.018  0.00  0.00    -0.042 C 
ATOM     15  C   UNL     1       1.792  -1.119   0.191  0.00  0.00    -0.001 A 
ATOM     16  C   UNL     1       0.512  -0.440   0.419  0.00  0.00    +0.010 A 
ATOM     17  H   UNL     1       4.983  -0.748  -0.169  0.00  0.00    +0.160 HD
ENDBRANCH   7  14
ENDBRANCH   6   7
ENDBRANCH   5   6
ENDBRANCH   1   5
BRANCH   3  18
ATOM     18  C   UNL     1      -1.776  -6.797  -4.476  0.00  0.00    +0.139 C 
BRANCH  18  19
ATOM     19  C   UNL     1      -2.714  -7.976  -4.480  0.00  0.00    -0.030 A 
ATOM     20  C   UNL     1      -2.208  -9.260  -4.563  0.00  0.00    +0.007 A 
ATOM     21  C   UNL     1      -3.066 -10.343  -4.566  0.00  0.00    +0.023 A 
ATOM     22  C   UNL     1      -4.437 -10.141  -4.487  0.00  0.00    +0.034 A 
ATOM     23  C   UNL     1      -4.942  -8.849  -4.404  0.00  0.00    +0.023 A 
ATOM     24  C   UNL     1      -4.079  -7.771  -4.396  0.00  0.00    +0.007 A 
BRANCH  22  25
ATOM     25  N   UNL     1      -5.308 -11.235  -4.491  0.00  0.00    -0.279 N 
ATOM     26  C   UNL     1      -6.522 -11.128  -5.067  0.00  0.00    +0.284 C 
ATOM     27  O   UNL     1      -6.824 -10.112  -5.667  0.00  0.00    -0.266 OA
ATOM     28  H   UNL     1      -5.039 -12.071  -4.079  0.00  0.00    +0.155 HD
BRANCH  26  29
ATOM     29  C   UNL     1      -7.479 -12.234  -4.971  0.00  0.00    +0.189 A 
ATOM     30  C   UNL     1      -8.734 -12.259  -5.510  0.00  0.00    +0.054 A 
ATOM     31  C   UNL     1      -9.292 -13.503  -5.176  0.00  0.00    +0.042 A 
ATOM     32  C   UNL     1      -8.366 -14.174  -4.456  0.00  0.00    +0.196 A 
ATOM     33  O   UNL     1      -7.273 -13.408  -4.339  0.00  0.00    -0.458 OA
ENDBRANCH  26  29
ENDBRANCH  22  25
ENDBRANCH  18  19
ENDBRANCH   3  18
TORSDOF 8
