REMARK  Name = ZINC51675357
REMARK  12 active torsions:
REMARK  status: ('A' for Active; 'I' for Inactive)
REMARK    1  A    between atoms: C_1  and  C_2
REMARK    2  A    between atoms: C_2  and  S_3
REMARK    3  A    between atoms: S_3  and  N_6
REMARK    4  A    between atoms: N_6  and  C_7
REMARK    5  A    between atoms: C_7  and  C_8
REMARK    6  A    between atoms: C_8  and  C_9
REMARK    7  A    between atoms: C_9  and  N_10
REMARK    8  A    between atoms: N_13  and  C_14
REMARK    9  A    between atoms: C_16  and  C_22
REMARK   10  A    between atoms: C_16  and  C_23
REMARK   11  A    between atoms: C_18  and  C_20
REMARK   12  A    between atoms: C_18  and  C_21
REMARK                            x       y       z     vdW  Elec       q    Type
REMARK                         _______ _______ _______ _____ _____    ______ ____
ROOT
ATOM      1  N   UNL     1      -1.489  -6.554  -1.687  0.00  0.00    -0.299 N 
ATOM      2  C   UNL     1      -2.534  -7.404  -1.738  0.00  0.00    +0.300 C 
ATOM      3  O   UNL     1      -3.660  -6.996  -1.528  0.00  0.00    -0.253 OA
ATOM      4  N   UNL     1      -2.331  -8.706  -2.022  0.00  0.00    -0.297 N 
ATOM      5  H   UNL     1      -0.591  -6.880  -1.854  0.00  0.00    +0.150 HD
ATOM      6  H   UNL     1      -1.432  -9.031  -2.189  0.00  0.00    +0.151 HD
ENDROOT
BRANCH   4   7
ATOM      7  C   UNL     1      -3.469  -9.631  -2.078  0.00  0.00    +0.072 C 
ATOM      8  C   UNL     1      -3.750 -10.168  -0.672  0.00  0.00    +0.009 C 
ATOM      9  C   UNL     1      -4.926 -11.143  -0.716  0.00  0.00    -0.072 C 
ATOM     10  N   UNL     1      -4.721 -12.206  -1.689  0.00  0.00    +0.386 N 
ATOM     11  C   UNL     1      -4.251 -11.829  -3.012  0.00  0.00    -0.072 C 
ATOM     12  C   UNL     1      -3.115 -10.812  -2.980  0.00  0.00    +0.009 C 
ATOM     13  C   UNL     1      -3.703 -13.107  -3.692  0.00  0.00    -0.010 C 
ATOM     14  C   UNL     1      -5.391 -11.310  -3.892  0.00  0.00    -0.010 C 
ATOM     15  C   UNL     1      -6.231 -10.386  -0.957  0.00  0.00    -0.010 C 
ATOM     16  C   UNL     1      -5.028 -11.800   0.680  0.00  0.00    -0.010 C 
ATOM     17  H   UNL     1      -4.061 -12.880  -1.293  0.00  0.00    -0.084 HD
ATOM     18  H   UNL     1      -5.599 -12.720  -1.792  0.00  0.00    -0.084 HD
ENDBRANCH   4   7
BRANCH   1  19
ATOM     19  C   UNL     1      -1.710  -5.139  -1.378  0.00  0.00    +0.107 C 
BRANCH  19  20
ATOM     20  C   UNL     1      -0.369  -4.401  -1.383  0.00  0.00    +0.035 C 
BRANCH  20  21
ATOM     21  C   UNL     1      -0.600  -2.923  -1.061  0.00  0.00    +0.107 C 
BRANCH  21  22
ATOM     22  N   UNL     1       0.683  -2.216  -1.065  0.00  0.00    -0.194 NA
ATOM     23  H   UNL     1       1.513  -2.718  -1.037  0.00  0.00    +0.148 HD
BRANCH  22  24
ATOM     24  S   UNL     1       0.717  -0.562  -1.119  0.00  0.00    +0.029 S 
ATOM     25  O   UNL     1      -0.124  -0.217  -2.211  0.00  0.00    -0.158 OA
ATOM     26  O   UNL     1       2.098  -0.228  -1.134  0.00  0.00    -0.158 OA
BRANCH  24  28
ATOM     27  C   UNL     1      -0.059   1.499   0.504  0.00  0.00    +0.029 C 
ATOM     28  C   UNL     1      -0.037  -0.029   0.443  0.00  0.00    +0.181 C 
ENDBRANCH  24  28
ENDBRANCH  22  24
ENDBRANCH  21  22
ENDBRANCH  20  21
ENDBRANCH  19  20
ENDBRANCH   1  19
TORSDOF 7
