REMARK  Name = ZINC43042480
REMARK  6 active torsions:
REMARK  status: ('A' for Active; 'I' for Inactive)
REMARK    1  A    between atoms: C_1  and  C_2
REMARK    2  A    between atoms: C_7  and  N_12
REMARK    3  A    between atoms: C_9  and  C_11
REMARK    4  A    between atoms: N_15  and  N_16
REMARK    5  A    between atoms: C_17  and  C_19
REMARK    6  A    between atoms: N_23  and  C_24
REMARK                            x       y       z     vdW  Elec       q    Type
REMARK                         _______ _______ _______ _____ _____    ______ ____
ROOT
ATOM      1  N   UNL     1      -0.020  -1.101   3.934  0.00  0.00    -0.295 N 
ATOM      2  C   UNL     1      -0.180  -0.480   5.119  0.00  0.00    +0.316 C 
ATOM      3  O   UNL     1      -1.026   0.385   5.243  0.00  0.00    -0.251 OA
ATOM      4  N   UNL     1       0.598  -0.817   6.167  0.00  0.00    -0.218 N 
ATOM      5  H   UNL     1       0.655  -1.791   3.835  0.00  0.00    +0.151 HD
ATOM      6  H   UNL     1       0.483  -0.369   7.020  0.00  0.00    +0.174 HD
ENDROOT
BRANCH   1  12
ATOM      7  C   UNL     1      -1.319   0.812   0.349  0.00  0.00    +0.008 C 
ATOM      8  C   UNL     1      -1.022  -0.688   0.302  0.00  0.00    -0.009 C 
ATOM      9  C   UNL     1      -2.335  -1.470   0.369  0.00  0.00    +0.003 C 
ATOM     10  C   UNL     1      -3.062  -1.135   1.673  0.00  0.00    +0.002 C 
ATOM     11  C   UNL     1      -2.179  -1.518   2.862  0.00  0.00    +0.022 C 
ATOM     12  C   UNL     1      -0.866  -0.735   2.795  0.00  0.00    +0.078 C 
ATOM     13  C   UNL     1      -0.139  -1.070   1.491  0.00  0.00    +0.009 C 
ATOM     14  C   UNL     1       1.174  -0.288   1.424  0.00  0.00    +0.009 C 
ENDBRANCH   1  12
BRANCH   4  15
ATOM     15  N   UNL     1       1.573  -1.813   6.024  0.00  0.00    -0.228 N 
ATOM     16  C   UNL     1       2.351  -2.150   7.072  0.00  0.00    +0.277 C 
ATOM     17  O   UNL     1       2.278  -1.520   8.111  0.00  0.00    -0.267 OA
ATOM     18  H   UNL     1       1.688  -2.260   5.171  0.00  0.00    +0.173 HD
BRANCH  16  19
ATOM     19  C   UNL     1       3.285  -3.275   6.960  0.00  0.00    +0.107 A 
ATOM     20  C   UNL     1       3.532  -4.019   5.825  0.00  0.00    +0.047 A 
ATOM     21  C   UNL     1       4.486  -4.984   6.166  0.00  0.00    +0.036 A 
ATOM     22  C   UNL     1       4.799  -4.815   7.474  0.00  0.00    +0.101 A 
ATOM     23  N   UNL     1       4.079  -3.776   7.966  0.00  0.00    -0.345 N 
ATOM     24  C   UNL     1       4.136  -3.273   9.341  0.00  0.00    +0.149 C 
ATOM     25 BR   UNL     1       5.210  -6.291   5.008  0.00  0.00    -0.049 Br
ENDBRANCH  16  19
ENDBRANCH   4  15
TORSDOF 3
