REMARK  Name = ZINC63213198
REMARK  4 active torsions:
REMARK  status: ('A' for Active; 'I' for Inactive)
REMARK    1  A    between atoms: C_4  and  N_22
REMARK    2  A    between atoms: C_6  and  N_10
REMARK    3  A    between atoms: N_10  and  S_11
REMARK    4  A    between atoms: S_11  and  C_14
REMARK                            x       y       z     vdW  Elec       q    Type
REMARK                         _______ _______ _______ _____ _____    ______ ____
ROOT
ATOM      1  N   UNL     1       1.978  -0.880  -3.233  0.00  0.00    -0.193 NA
ATOM      2  H   UNL     1       2.307  -0.069  -3.651  0.00  0.00    +0.148 HD
ENDROOT
BRANCH   1   7
ATOM      3  C   UNL     1      -0.313   1.477  -0.352  0.00  0.00    -0.000 C 
ATOM      4  C   UNL     1       1.040   1.968  -0.136  0.00  0.00    -0.002 C 
ATOM      5  C   UNL     1       1.999   1.568  -1.276  0.00  0.00    -0.015 C 
ATOM      6  C   UNL     1       2.431   0.143  -1.060  0.00  0.00    -0.056 C 
ATOM      7  C   UNL     1       1.554  -0.862  -1.831  0.00  0.00    +0.062 C 
ATOM      8  C   UNL     1       0.054  -0.515  -1.772  0.00  0.00    +0.019 C 
ATOM      9  C   UNL     1      -0.379  -0.063  -0.404  0.00  0.00    +0.001 C 
BRANCH   6  10
ATOM     10  N   UNL     1       3.823  -0.005  -1.504  0.00  0.00    +0.381 N 
ATOM     11  H   UNL     1       4.403   0.665  -1.022  0.00  0.00    -0.090 HD
ATOM     12  H   UNL     1       4.145  -0.939  -1.298  0.00  0.00    -0.090 HD
ATOM     13  H   UNL     1       3.878   0.158  -2.498  0.00  0.00    -0.090 HD
ENDBRANCH   6  10
ENDBRANCH   1   7
BRANCH   1  14
ATOM     14  S   UNL     1       1.896  -2.286  -4.105  0.00  0.00    +0.033 S 
ATOM     15  O   UNL     1       0.575  -2.766  -3.895  0.00  0.00    -0.158 OA
ATOM     16  O   UNL     1       2.340  -1.931  -5.407  0.00  0.00    -0.158 OA
BRANCH  14  17
ATOM     17  C   UNL     1       3.096  -3.394  -3.316  0.00  0.00    +0.151 C 
ATOM     18  C   UNL     1       4.489  -2.776  -3.411  0.00  0.00    +0.050 C 
ATOM     19  C   UNL     1       5.466  -3.553  -2.525  0.00  0.00    +0.168 C 
ATOM     20  S   UNL     1       5.599  -5.255  -3.148  0.00  0.00    -0.031 S 
ATOM     21  O   UNL     1       6.276  -6.041  -2.177  0.00  0.00    -0.174 OA
ATOM     22  O   UNL     1       6.101  -5.212  -4.477  0.00  0.00    -0.174 OA
ATOM     23  C   UNL     1       3.859  -5.776  -3.201  0.00  0.00    +0.168 C 
ATOM     24  C   UNL     1       3.060  -4.752  -4.012  0.00  0.00    +0.050 C 
ENDBRANCH  14  17
ENDBRANCH   1  14
TORSDOF 4
