REMARK  Name = ZINC03670609
REMARK  7 active torsions:
REMARK  status: ('A' for Active; 'I' for Inactive)
REMARK    1  A    between atoms: C_1  and  C_2
REMARK    2  A    between atoms: C_2  and  C_3
REMARK    3  A    between atoms: C_3  and  C_5
REMARK    4  A    between atoms: C_3  and  N_6
REMARK    5  A    between atoms: C_7  and  C_9
REMARK    6  A    between atoms: C_9  and  O_28
REMARK    7  A    between atoms: N_19  and  C_20
REMARK                            x       y       z     vdW  Elec       q    Type
REMARK                         _______ _______ _______ _____ _____    ______ ____
ROOT
ATOM      1  C   UNL     1      -1.531   5.270  -2.003  0.00  0.00    +0.247 C 
ATOM      2  C   UNL     1      -0.341   5.637  -2.860  0.00  0.00    +0.034 A 
ATOM      3  C   UNL     1      -0.246   5.220  -4.167  0.00  0.00    +0.025 A 
ATOM      4  C   UNL     1       0.860   5.576  -4.923  0.00  0.00    +0.018 A 
ATOM      5  C   UNL     1       1.862   6.348  -4.362  0.00  0.00    +0.017 A 
ATOM      6  C   UNL     1       1.767   6.769  -3.050  0.00  0.00    +0.025 A 
ATOM      7  C   UNL     1       0.661   6.414  -2.288  0.00  0.00    +0.043 A 
ATOM      8  N   UNL     1       0.547   6.829  -0.961  0.00  0.00    -0.269 N 
ATOM      9  C   UNL     1      -0.499   6.513  -0.186  0.00  0.00    +0.314 C 
ATOM     10  O   UNL     1      -0.515   6.918   0.960  0.00  0.00    -0.252 OA
ATOM     11  N   UNL     1      -1.533   5.769  -0.618  0.00  0.00    -0.214 N 
ATOM     12 BR   UNL     1       0.999   5.007  -6.721  0.00  0.00    -0.050 Br
ATOM     13  H   UNL     1       1.257   7.370  -0.582  0.00  0.00    +0.156 HD
ENDROOT
BRANCH  11  14
ATOM     14  C   UNL     1      -2.599   5.473   0.241  0.00  0.00    +0.041 A 
ATOM     15  C   UNL     1      -3.869   5.964  -0.032  0.00  0.00    +0.025 A 
ATOM     16  C   UNL     1      -4.919   5.666   0.814  0.00  0.00    +0.022 A 
ATOM     17  C   UNL     1      -4.705   4.889   1.938  0.00  0.00    +0.041 A 
ATOM     18  C   UNL     1      -3.439   4.403   2.215  0.00  0.00    +0.022 A 
ATOM     19  C   UNL     1      -2.386   4.693   1.370  0.00  0.00    +0.025 A 
ATOM     20 CL   UNL     1      -6.026   4.523   3.003  0.00  0.00    -0.084 Cl
ENDBRANCH  11  14
BRANCH   1  22
ATOM     21  N   UNL     1      -0.684   3.054  -1.304  0.00  0.00    -0.309 N 
ATOM     22  C   UNL     1      -1.624   3.767  -1.956  0.00  0.00    +0.269 C 
ATOM     23  O   UNL     1      -2.544   3.199  -2.505  0.00  0.00    -0.270 OA
ATOM     24  H   UNL     1       0.052   3.509  -0.865  0.00  0.00    +0.149 HD
BRANCH  21  25
ATOM     25  C   UNL     1      -0.774   1.593  -1.258  0.00  0.00    +0.070 C 
ATOM     26  C   UNL     1      -0.138   1.003  -2.518  0.00  0.00    +0.028 C 
BRANCH  25  28
ATOM     27  C   UNL     1      -0.746   1.564   1.240  0.00  0.00    +0.005 C 
ATOM     28  C   UNL     1      -0.034   1.075  -0.023  0.00  0.00    +0.018 C 
ENDBRANCH  25  28
ENDBRANCH  21  25
ENDBRANCH   1  22
BRANCH   1  29
ATOM     29  O   UNL     1      -2.708   5.760  -2.650  0.00  0.00    -0.360 OA
ATOM     30  H   UNL     1      -2.822   5.438  -3.554  0.00  0.00    +0.213 HD
ENDBRANCH   1  29
TORSDOF 5
