REMARK  Name = ZINC31480430
REMARK  8 active torsions:
REMARK  status: ('A' for Active; 'I' for Inactive)
REMARK    1  A    between atoms: C_1  and  C_2
REMARK    2  A    between atoms: C_3  and  C_13
REMARK    3  A    between atoms: C_13  and  C_14
REMARK    4  A    between atoms: N_16  and  N_17
REMARK    5  A    between atoms: C_18  and  C_20
REMARK    6  A    between atoms: C_20  and  C_22
REMARK    7  A    between atoms: C_20  and  O_23
REMARK    8  A    between atoms: O_23  and  C_24
REMARK                            x       y       z     vdW  Elec       q    Type
REMARK                         _______ _______ _______ _____ _____    ______ ____
ROOT
ATOM      1  C   UNL     1       0.017   1.650   0.485  0.00  0.00    +0.233 C 
ATOM      2  O   UNL     1       0.114   0.455   0.669  0.00  0.00    -0.274 OA
ATOM      3  N   UNL     1      -1.198   2.210   0.320  0.00  0.00    -0.234 N 
ATOM      4  H   UNL     1      -1.286   3.294   0.153  0.00  0.00    +0.173 HD
ENDROOT
BRANCH   3   5
ATOM      5  N   UNL     1      -2.349   1.412   0.361  0.00  0.00    -0.231 N 
ATOM      6  C   UNL     1      -3.563   1.972   0.197  0.00  0.00    +0.270 C 
ATOM      7  O   UNL     1      -3.660   3.167   0.013  0.00  0.00    -0.270 OA
ATOM      8  H   UNL     1      -2.261   0.329   0.528  0.00  0.00    +0.173 HD
BRANCH   6   9
ATOM      9  C   UNL     1      -4.801   1.114   0.241  0.00  0.00    +0.257 C 
ATOM     10  C   UNL     1      -4.788   0.139  -0.938  0.00  0.00    +0.062 C 
BRANCH   9  11
ATOM     11  O   UNL     1      -5.961   1.945   0.158  0.00  0.00    -0.477 OA
BRANCH  11  12
ATOM     12  C   UNL     1      -7.112   1.454   0.690  0.00  0.00    +0.157 A 
ATOM     13  C   UNL     1      -7.154   0.156   1.176  0.00  0.00    +0.048 A 
ATOM     14  C   UNL     1      -8.324  -0.342   1.716  0.00  0.00    +0.004 A 
ATOM     15  C   UNL     1      -9.454   0.454   1.774  0.00  0.00    +0.003 A 
ATOM     16  C   UNL     1      -9.416   1.749   1.291  0.00  0.00    +0.042 A 
ATOM     17  C   UNL     1      -8.246   2.253   0.753  0.00  0.00    +0.165 A 
ATOM     18  F   UNL     1      -8.207   3.520   0.285  0.00  0.00    -0.202 F 
ENDBRANCH  11  12
ENDBRANCH   9  11
ENDBRANCH   6   9
ENDBRANCH   3   5
BRANCH   1  19
ATOM     19  C   UNL     1       1.255   2.508   0.435  0.00  0.00    +0.134 C 
BRANCH  19  22
ATOM     20  C   UNL     1       2.586   1.839   3.158  0.00  0.00    +0.063 C 
ATOM     21  C   UNL     1       3.055   1.350   1.812  0.00  0.00    +0.018 A 
ATOM     22  C   UNL     1       2.473   1.644   0.639  0.00  0.00    -0.011 A 
ATOM     23  C   UNL     1       3.249   0.972  -0.405  0.00  0.00    +0.005 A 
ATOM     24  C   UNL     1       3.148   0.901  -1.796  0.00  0.00    +0.025 A 
ATOM     25  C   UNL     1       4.057   0.167  -2.506  0.00  0.00    +0.019 A 
ATOM     26  C   UNL     1       5.081  -0.509  -1.854  0.00  0.00    +0.017 A 
ATOM     27  C   UNL     1       5.199  -0.452  -0.483  0.00  0.00    +0.027 A 
ATOM     28  C   UNL     1       4.285   0.289   0.259  0.00  0.00    +0.047 A 
ATOM     29  N   UNL     1       4.136   0.537   1.606  0.00  0.00    -0.358 N 
ATOM     30  H   UNL     1       4.734   0.188   2.461  0.00  0.00    +0.166 HD
ATOM     31 BR   UNL     1       3.920   0.071  -4.389  0.00  0.00    -0.050 Br
ENDBRANCH  19  22
ENDBRANCH   1  19
TORSDOF 6
