REMARK  Name = ZINC56661587
REMARK  5 active torsions:
REMARK  status: ('A' for Active; 'I' for Inactive)
REMARK    1  A    between atoms: C_1  and  C_2
REMARK    2  A    between atoms: C_6  and  C_7
REMARK    3  A    between atoms: C_7  and  N_8
REMARK    4  A    between atoms: N_11  and  N_12
REMARK    5  A    between atoms: N_15  and  C_16
REMARK                            x       y       z     vdW  Elec       q    Type
REMARK                         _______ _______ _______ _____ _____    ______ ____
ROOT
ATOM      1  N   UNL     1      -1.349  -0.047   3.060  0.00  0.00    -0.294 N 
ATOM      2  C   UNL     1      -1.589   0.405   4.307  0.00  0.00    +0.316 C 
ATOM      3  O   UNL     1      -0.661   0.681   5.042  0.00  0.00    -0.251 OA
ATOM      4  N   UNL     1      -2.857   0.550   4.739  0.00  0.00    -0.217 N 
ATOM      5  H   UNL     1      -2.089  -0.268   2.473  0.00  0.00    +0.151 HD
ATOM      6  H   UNL     1      -3.030   0.875   5.636  0.00  0.00    +0.174 HD
ENDROOT
BRANCH   4   7
ATOM      7  N   UNL     1      -3.926   0.231   3.891  0.00  0.00    -0.217 N 
ATOM      8  C   UNL     1      -5.195   0.376   4.323  0.00  0.00    +0.320 C 
ATOM      9  O   UNL     1      -6.122   0.099   3.587  0.00  0.00    -0.251 OA
ATOM     10  N   UNL     1      -5.435   0.828   5.569  0.00  0.00    -0.268 N 
ATOM     11  H   UNL     1      -3.753  -0.094   2.994  0.00  0.00    +0.174 HD
ATOM     12  H   UNL     1      -4.697   0.984   6.179  0.00  0.00    +0.156 HD
BRANCH  10  13
ATOM     13  C   UNL     1      -6.749   1.071   5.985  0.00  0.00    +0.035 A 
ATOM     14  C   UNL     1      -7.024   2.128   6.842  0.00  0.00    +0.024 A 
ATOM     15  C   UNL     1      -8.322   2.366   7.250  0.00  0.00    +0.017 A 
ATOM     16  C   UNL     1      -9.348   1.552   6.805  0.00  0.00    +0.018 A 
ATOM     17  C   UNL     1      -9.078   0.497   5.951  0.00  0.00    +0.017 A 
ATOM     18  C   UNL     1      -7.782   0.259   5.535  0.00  0.00    +0.024 A 
ATOM     19 BR   UNL     1     -11.124   1.881   7.365  0.00  0.00    -0.050 Br
ENDBRANCH  10  13
ENDBRANCH   4   7
BRANCH   1  20
ATOM     20  C   UNL     1       0.030  -0.205   2.591  0.00  0.00    +0.148 C 
BRANCH  20  26
ATOM     21  C   UNL     1      -0.001   1.484   0.025  0.00  0.00    +0.044 C 
ATOM     22  C   UNL     1       0.010  -0.023   0.013  0.00  0.00    -0.039 A 
ATOM     23  C   UNL     1       0.012  -0.715  -1.184  0.00  0.00    +0.011 A 
ATOM     24  C   UNL     1       0.022  -2.070  -1.160  0.00  0.00    +0.046 A 
ATOM     25  S   UNL     1       0.029  -2.408   0.593  0.00  0.00    -0.100 S 
ATOM     26  C   UNL     1       0.023  -0.721   1.175  0.00  0.00    +0.010 A 
ENDBRANCH  20  26
ENDBRANCH   1  20
TORSDOF 4
