REMARK  Name = ZINC52094368
REMARK  5 active torsions:
REMARK  status: ('A' for Active; 'I' for Inactive)
REMARK    1  A    between atoms: C_1  and  C_2
REMARK    2  A    between atoms: C_5  and  C_9
REMARK    3  A    between atoms: C_6  and  C_8
REMARK    4  A    between atoms: C_9  and  C_11
REMARK    5  A    between atoms: C_9  and  N_24
REMARK                            x       y       z     vdW  Elec       q    Type
REMARK                         _______ _______ _______ _____ _____    ______ ____
ROOT
ATOM      1  C   UNL     1       0.044  -4.240  -0.014  0.00  0.00    -0.012 C 
ENDROOT
BRANCH   1   2
ATOM      2  C   UNL     1       1.467  -4.728   0.082  0.00  0.00    -0.042 A 
ATOM      3  C   UNL     1       2.200  -4.939  -1.069  0.00  0.00    +0.031 A 
ATOM      4  C   UNL     1       3.509  -5.388  -0.981  0.00  0.00    +0.067 A 
ATOM      5  C   UNL     1       4.080  -5.625   0.271  0.00  0.00    +0.068 A 
ATOM      6  C   UNL     1       3.337  -5.410   1.421  0.00  0.00    +0.043 A 
ATOM      7  C   UNL     1       2.035  -4.957   1.324  0.00  0.00    +0.022 A 
ATOM      8 BR   UNL     1       1.023  -4.655   2.893  0.00  0.00    -0.050 Br
ATOM      9  N   UNL     1       5.383  -6.061   0.043  0.00  0.00    -0.306 N 
ATOM     10  H   UNL     1       6.029  -6.304   0.726  0.00  0.00    +0.170 HD
ATOM     11  C   UNL     1       5.595  -6.089  -1.286  0.00  0.00    +0.325 A 
ATOM     12  O   UNL     1       6.633  -6.426  -1.824  0.00  0.00    -0.247 OA
ATOM     13  N   UNL     1       4.483  -5.689  -1.931  0.00  0.00    -0.306 N 
ATOM     14  H   UNL     1       4.378  -5.621  -2.893  0.00  0.00    +0.170 HD
ENDBRANCH   1   2
BRANCH   1  19
ATOM     15  C   UNL     1      -0.053   1.520   0.448  0.00  0.00    +0.044 C 
ATOM     16  C   UNL     1      -0.028   0.018   0.327  0.00  0.00    -0.050 A 
ATOM     17  C   UNL     1       1.151  -0.631   0.008  0.00  0.00    +0.003 A 
ATOM     18  C   UNL     1       1.175  -2.008  -0.102  0.00  0.00    +0.003 A 
ATOM     19  C   UNL     1       0.019  -2.738   0.107  0.00  0.00    -0.055 A 
ATOM     20  C   UNL     1      -1.159  -2.090   0.427  0.00  0.00    -0.048 A 
ATOM     21  C   UNL     1      -1.181  -0.712   0.542  0.00  0.00    +0.007 A 
ATOM     22  C   UNL     1      -2.419  -2.885   0.655  0.00  0.00    +0.044 C 
ENDBRANCH   1  19
BRANCH   1  23
ATOM     23  N   UNL     1      -0.523  -4.636  -1.310  0.00  0.00    +0.385 N 
ATOM     24  H   UNL     1      -0.032  -4.161  -2.051  0.00  0.00    -0.089 HD
ATOM     25  H   UNL     1      -0.427  -5.634  -1.428  0.00  0.00    -0.089 HD
ATOM     26  H   UNL     1      -1.500  -4.386  -1.339  0.00  0.00    -0.089 HD
ENDBRANCH   1  23
TORSDOF 3
