REMARK  Name = ZINC36284962
REMARK  4 active torsions:
REMARK  status: ('A' for Active; 'I' for Inactive)
REMARK    1  A    between atoms: C_1  and  N_2
REMARK    2  A    between atoms: C_7  and  N_19
REMARK    3  A    between atoms: C_10  and  C_11
REMARK    4  A    between atoms: C_11  and  C_12
REMARK                            x       y       z     vdW  Elec       q    Type
REMARK                         _______ _______ _______ _____ _____    ______ ____
ROOT
ATOM      1  C   UNL     1      -0.018   1.461   0.010  0.00  0.00    +0.150 C 
ATOM      2  N   UNL     1       0.002  -0.004   0.002  0.00  0.00    -0.330 N 
ATOM      3  C   UNL     1       0.009  -0.816  -1.114  0.00  0.00    +0.070 A 
ATOM      4  C   UNL     1      -0.000  -0.576  -2.483  0.00  0.00    +0.028 A 
ATOM      5  C   UNL     1       0.011  -1.633  -3.368  0.00  0.00    +0.004 A 
ATOM      6  C   UNL     1       0.031  -2.940  -2.904  0.00  0.00    +0.025 A 
ATOM      7  C   UNL     1       0.040  -3.201  -1.546  0.00  0.00    +0.052 A 
ATOM      8  C   UNL     1       0.029  -2.135  -0.634  0.00  0.00    +0.110 A 
ATOM      9  N   UNL     1       0.034  -2.063   0.722  0.00  0.00    -0.230 NA
ATOM     10  C   UNL     1       0.024  -0.817   1.094  0.00  0.00    +0.115 A 
ENDROOT
BRANCH   7  11
ATOM     11  N   UNL     1       0.059  -4.519  -1.085  0.00  0.00    -0.356 N 
ATOM     12  H   UNL     1       0.067  -5.254  -1.718  0.00  0.00    +0.142 HD
ATOM     13  H   UNL     1       0.065  -4.699  -0.132  0.00  0.00    +0.142 HD
ENDBRANCH   7  11
BRANCH  10  14
ATOM     14  C   UNL     1       0.030  -0.342   2.524  0.00  0.00    +0.109 C 
BRANCH  14  15
ATOM     15  C   UNL     1      -1.388  -0.204   3.014  0.00  0.00    -0.040 A 
ATOM     16  C   UNL     1      -2.060   0.994   2.857  0.00  0.00    +0.007 A 
ATOM     17  C   UNL     1      -3.361   1.122   3.305  0.00  0.00    +0.038 A 
ATOM     18  C   UNL     1      -3.992   0.050   3.912  0.00  0.00    +0.123 A 
ATOM     19  C   UNL     1      -3.318  -1.150   4.070  0.00  0.00    +0.038 A 
ATOM     20  C   UNL     1      -2.019  -1.277   3.616  0.00  0.00    +0.007 A 
ATOM     21  F   UNL     1      -5.263   0.174   4.351  0.00  0.00    -0.205 F 
ENDBRANCH  14  15
ENDBRANCH  10  14
TORSDOF 3
