REMARK  Name = ZINC51091068
REMARK  4 active torsions:
REMARK  status: ('A' for Active; 'I' for Inactive)
REMARK    1  A    between atoms: C_3  and  N_20
REMARK    2  A    between atoms: C_4  and  C_16
REMARK    3  A    between atoms: C_6  and  C_7
REMARK    4  A    between atoms: N_20  and  N_21
REMARK                            x       y       z     vdW  Elec       q    Type
REMARK                         _______ _______ _______ _____ _____    ______ ____
ROOT
ATOM      1  C   UNL     1      -0.017   1.394   0.010  0.00  0.00    +0.015 A 
ATOM      2  C   UNL     1       1.166   2.096   0.002  0.00  0.00    +0.025 A 
ATOM      3  C   UNL     1       2.381   1.417  -0.013  0.00  0.00    +0.053 A 
ATOM      4  C   UNL     1       2.404   0.025  -0.021  0.00  0.00    +0.077 A 
ATOM      5  C   UNL     1       1.224  -0.684  -0.013  0.00  0.00    +0.027 A 
ATOM      6  C   UNL     1       0.002  -0.004   0.002  0.00  0.00    +0.038 A 
ENDROOT
BRANCH   6   7
ATOM      7  C   UNL     1      -1.264  -0.760   0.011  0.00  0.00    +0.250 C 
ATOM      8  O   UNL     1      -1.246  -1.976   0.004  0.00  0.00    -0.270 OA
ATOM      9  N   UNL     1      -2.441  -0.104   0.026  0.00  0.00    -0.261 N 
ATOM     10  C   UNL     1      -3.634  -0.816   0.034  0.00  0.00    +0.166 A 
ATOM     11  N   UNL     1      -3.807  -2.120   0.034  0.00  0.00    -0.232 NA
ATOM     12  C   UNL     1      -5.017  -2.648   0.043  0.00  0.00    +0.136 A 
ATOM     13  C   UNL     1      -6.065  -1.786   0.052  0.00  0.00    +0.076 A 
ATOM     14  S   UNL     1      -5.207  -0.220   0.053  0.00  0.00    -0.045 S 
ATOM     15 BR   UNL     1      -7.921  -2.145   0.066  0.00  0.00    -0.041 Br
ATOM     16  H   UNL     1      -2.455   0.866   0.031  0.00  0.00    +0.157 HD
ENDBRANCH   6   7
BRANCH   4  17
ATOM     17  C   UNL     1       3.721  -0.707  -0.039  0.00  0.00    +0.419 C 
ATOM     18  F   UNL     1       3.488  -2.086  -0.044  0.00  0.00    -0.166 F 
ATOM     19  F   UNL     1       4.437  -0.350  -1.187  0.00  0.00    -0.166 F 
ATOM     20  F   UNL     1       4.460  -0.363   1.098  0.00  0.00    -0.166 F 
ENDBRANCH   4  17
BRANCH   3  21
ATOM     21  N   UNL     1       3.575   2.130  -0.022  0.00  0.00    -0.282 N 
ATOM     22  H   UNL     1       4.422   1.658  -0.033  0.00  0.00    +0.166 HD
BRANCH  21  23
ATOM     23  N   UNL     1       3.555   3.496  -0.015  0.00  0.00    -0.257 NA
ATOM     24  H   UNL     1       3.031   3.846   0.773  0.00  0.00    +0.140 HD
ATOM     25  H   UNL     1       4.491   3.871  -0.022  0.00  0.00    +0.140 HD
ENDBRANCH  21  23
ENDBRANCH   3  21
TORSDOF 4
