REMARK  Name = ZINC35652219
REMARK  2 active torsions:
REMARK  status: ('A' for Active; 'I' for Inactive)
REMARK    1  A    between atoms: C_2  and  N_9
REMARK    2  A    between atoms: N_9  and  C_10
REMARK                            x       y       z     vdW  Elec       q    Type
REMARK                         _______ _______ _______ _____ _____    ______ ____
ROOT
ATOM      1  N   UNL     1       1.161   3.485   0.009  0.00  0.00    -0.341 N 
ATOM      2  H   UNL     1       0.315   3.960   0.019  0.00  0.00    +0.146 HD
ENDROOT
BRANCH   1   4
ATOM      3  C   UNL     1      -0.017   1.379   0.010  0.00  0.00    +0.061 A 
ATOM      4  C   UNL     1       1.177   2.089   0.002  0.00  0.00    +0.033 A 
ATOM      5  C   UNL     1       2.387   1.408  -0.013  0.00  0.00    +0.061 A 
ATOM      6  C   UNL     1       2.401   0.025  -0.021  0.00  0.00    +0.128 A 
ATOM      7  C   UNL     1       1.210  -0.681  -0.014  0.00  0.00    +0.076 A 
ATOM      8  C   UNL     1       0.002  -0.004   0.002  0.00  0.00    +0.128 A 
ATOM      9  F   UNL     1      -1.159  -0.695   0.010  0.00  0.00    -0.205 F 
ATOM     10  F   UNL     1       3.579  -0.638  -0.035  0.00  0.00    -0.205 F 
ENDBRANCH   1   4
BRANCH   1  11
ATOM     11  C   UNL     1       2.421   4.233   0.001  0.00  0.00    +0.073 C 
ATOM     12  C   UNL     1       2.946   4.348   1.429  0.00  0.00    +0.045 C 
ATOM     13  C   UNL     1       4.380   4.883   1.417  0.00  0.00    +0.167 C 
ATOM     14  S   UNL     1       4.376   6.560   0.718  0.00  0.00    -0.031 S 
ATOM     15  O   UNL     1       5.719   6.941   0.450  0.00  0.00    -0.174 OA
ATOM     16  O   UNL     1       3.572   7.392   1.543  0.00  0.00    -0.174 OA
ATOM     17  C   UNL     1       3.519   6.309  -0.865  0.00  0.00    +0.167 C 
ATOM     18  C   UNL     1       2.181   5.615  -0.599  0.00  0.00    +0.045 C 
ENDBRANCH   1  11
TORSDOF 2
