REMARK  Name = ZINC48861749
REMARK  5 active torsions:
REMARK  status: ('A' for Active; 'I' for Inactive)
REMARK    1  A    between atoms: C_5  and  S_8
REMARK    2  A    between atoms: C_6  and  N_7
REMARK    3  A    between atoms: S_8  and  N_11
REMARK    4  A    between atoms: C_15  and  C_17
REMARK    5  A    between atoms: C_17  and  O_18
REMARK                            x       y       z     vdW  Elec       q    Type
REMARK                         _______ _______ _______ _____ _____    ______ ____
ROOT
ATOM      1  C   UNL     1       0.063   1.395   0.409  0.00  0.00    +0.044 A 
ATOM      2  C   UNL     1       1.237   2.080   0.158  0.00  0.00    +0.044 A 
ATOM      3  C   UNL     1       2.365   1.394  -0.256  0.00  0.00    +0.042 A 
ATOM      4  C   UNL     1       2.321   0.021  -0.419  0.00  0.00    +0.070 A 
ATOM      5  C   UNL     1       1.150  -0.669  -0.170  0.00  0.00    +0.144 A 
ATOM      6  C   UNL     1       0.016   0.017   0.246  0.00  0.00    +0.054 A 
ATOM      7 CL   UNL     1       3.739  -0.836  -0.938  0.00  0.00    -0.081 Cl
ATOM      8 CL   UNL     1       1.296   3.804   0.361  0.00  0.00    -0.083 Cl
ENDROOT
BRANCH   6   9
ATOM      9  N   UNL     1      -1.168  -0.678   0.499  0.00  0.00    -0.356 N 
ATOM     10  H   UNL     1      -2.003  -0.194   0.600  0.00  0.00    +0.142 HD
ATOM     11  H   UNL     1      -1.157  -1.645   0.575  0.00  0.00    +0.142 HD
ENDBRANCH   6   9
BRANCH   5  12
ATOM     12  S   UNL     1       1.096  -2.418  -0.380  0.00  0.00    +0.064 S 
ATOM     13  O   UNL     1      -0.237  -2.741  -0.751  0.00  0.00    -0.153 OA
ATOM     14  O   UNL     1       2.216  -2.766  -1.181  0.00  0.00    -0.153 OA
BRANCH  12  15
ATOM     15  N   UNL     1       1.349  -3.098   1.109  0.00  0.00    -0.171 NA
ATOM     16  C   UNL     1       2.662  -3.457   1.677  0.00  0.00    +0.110 C 
ATOM     17  C   UNL     1       2.446  -3.446   3.211  0.00  0.00    +0.019 C 
ATOM     18  C   UNL     1       1.010  -4.021   3.328  0.00  0.00    +0.024 C 
ATOM     19  C   UNL     1       0.304  -3.437   2.086  0.00  0.00    +0.105 C 
BRANCH  19  20
ATOM     20  C   UNL     1      -0.644  -4.481   1.491  0.00  0.00    +0.176 C 
BRANCH  20  21
ATOM     21  O   UNL     1       0.068  -5.699   1.268  0.00  0.00    -0.393 OA
ATOM     22  H   UNL     1      -0.472  -6.407   0.891  0.00  0.00    +0.209 HD
ENDBRANCH  20  21
ENDBRANCH  19  20
ENDBRANCH  12  15
ENDBRANCH   5  12
TORSDOF 5
