REMARK  Name = ZINC05026027
REMARK  3 active torsions:
REMARK  status: ('A' for Active; 'I' for Inactive)
REMARK    1  A    between atoms: C_1  and  C_2
REMARK    2  A    between atoms: C_2  and  C_24
REMARK    3  A    between atoms: C_12  and  C_15
REMARK                            x       y       z     vdW  Elec       q    Type
REMARK                         _______ _______ _______ _____ _____    ______ ____
ROOT
ATOM      1  C   UNL     1      -0.019   1.526   0.010  0.00  0.00    +0.041 C 
ATOM      2  C   UNL     1       0.002  -0.004   0.002  0.00  0.00    +0.068 C 
ATOM      3  C   UNL     1       0.704  -0.495  -1.268  0.00  0.00    +0.071 C 
ATOM      4  C   UNL     1       0.927  -1.996  -1.131  0.00  0.00    -0.018 A 
ATOM      5  C   UNL     1       0.851  -2.582   0.086  0.00  0.00    +0.021 A 
ATOM      6  S   UNL     1       1.170  -4.296  -0.216  0.00  0.00    -0.075 S 
ATOM      7  C   UNL     1       1.397  -4.248  -1.860  0.00  0.00    +0.080 A 
ATOM      8  C   UNL     1       1.226  -2.903  -2.223  0.00  0.00    +0.068 A 
ATOM      9  C   UNL     1       1.358  -2.556  -3.656  0.00  0.00    +0.248 C 
ATOM     10  O   UNL     1       1.050  -1.454  -4.072  0.00  0.00    -0.270 OA
ATOM     11  N   UNL     1       1.834  -3.511  -4.482  0.00  0.00    -0.289 N 
ATOM     12  C   UNL     1       2.364  -4.788  -4.016  0.00  0.00    +0.190 C 
ATOM     13  N   UNL     1       1.696  -5.226  -2.777  0.00  0.00    -0.316 N 
ATOM     14  C   UNL     1       0.559  -1.889   1.379  0.00  0.00    +0.203 C 
ATOM     15  O   UNL     1       0.694  -0.475   1.161  0.00  0.00    -0.368 OA
ATOM     16  C   UNL     1      -1.434  -0.531   0.020  0.00  0.00    +0.041 C 
ATOM     17  H   UNL     1       1.823  -3.340  -5.437  0.00  0.00    +0.151 HD
ATOM     18  H   UNL     1       1.479  -6.157  -2.618  0.00  0.00    +0.149 HD
ENDROOT
BRANCH  12  19
ATOM     19  C   UNL     1       3.841  -4.643  -3.753  0.00  0.00    -0.009 A 
ATOM     20  C   UNL     1       4.450  -5.417  -2.783  0.00  0.00    +0.008 A 
ATOM     21  C   UNL     1       5.805  -5.284  -2.543  0.00  0.00    +0.015 A 
ATOM     22  C   UNL     1       6.551  -4.377  -3.273  0.00  0.00    +0.018 A 
ATOM     23  C   UNL     1       5.941  -3.603  -4.244  0.00  0.00    +0.015 A 
ATOM     24  C   UNL     1       4.588  -3.740  -4.487  0.00  0.00    +0.008 A 
ATOM     25 BR   UNL     1       8.404  -4.194  -2.944  0.00  0.00    -0.050 Br
ENDBRANCH  12  19
TORSDOF 1
