REMARK  Name = ZINC62778642
REMARK  3 active torsions:
REMARK  status: ('A' for Active; 'I' for Inactive)
REMARK    1  A    between atoms: C_4  and  C_8
REMARK    2  A    between atoms: C_8  and  C_10
REMARK    3  A    between atoms: C_8  and  O_16
REMARK                            x       y       z     vdW  Elec       q    Type
REMARK                         _______ _______ _______ _____ _____    ______ ____
ROOT
ATOM      1  C   UNL     1       3.712  -0.708  -0.037  0.00  0.00    +0.194 C 
ENDROOT
BRANCH   1   5
ATOM      2  C   UNL     1      -0.017   1.379   0.010  0.00  0.00    +0.021 A 
ATOM      3  C   UNL     1       1.171   2.086   0.002  0.00  0.00    +0.022 A 
ATOM      4  C   UNL     1       2.378   1.411  -0.013  0.00  0.00    +0.047 A 
ATOM      5  C   UNL     1       2.397   0.028  -0.021  0.00  0.00    +0.006 A 
ATOM      6  C   UNL     1       1.210  -0.680  -0.013  0.00  0.00    +0.028 A 
ATOM      7  C   UNL     1       0.002  -0.004   0.002  0.00  0.00    +0.041 A 
ATOM      8 CL   UNL     1      -1.489  -0.892   0.012  0.00  0.00    -0.084 Cl
ATOM      9 CL   UNL     1       3.869   2.300  -0.023  0.00  0.00    -0.083 Cl
ENDBRANCH   1   5
BRANCH   1  10
ATOM     10  C   UNL     1       4.225  -0.853   1.372  0.00  0.00    +0.069 A 
ATOM     11  C   UNL     1       4.944   0.066   2.058  0.00  0.00    +0.047 A 
ATOM     12  C   UNL     1       5.216  -0.459   3.325  0.00  0.00    +0.134 A 
ATOM     13  N   UNL     1       4.681  -1.651   3.397  0.00  0.00    -0.182 NA
ATOM     14  N   UNL     1       4.045  -1.919   2.179  0.00  0.00    -0.279 N 
ATOM     15  H   UNL     1       3.562  -2.730   1.954  0.00  0.00    +0.189 HD
ENDBRANCH   1  10
BRANCH   1  16
ATOM     16  O   UNL     1       3.526  -2.003  -0.612  0.00  0.00    -0.381 OA
ATOM     17  H   UNL     1       2.894  -2.558  -0.134  0.00  0.00    +0.211 HD
ENDBRANCH   1  16
TORSDOF 3
