REMARK  Name = ZINC37801984
REMARK  6 active torsions:
REMARK  status: ('A' for Active; 'I' for Inactive)
REMARK    1  A    between atoms: C_1  and  N_2
REMARK    2  A    between atoms: C_6  and  C_7
REMARK    3  A    between atoms: C_15  and  C_17
REMARK    4  A    between atoms: C_17  and  N_18
REMARK    5  A    between atoms: C_19  and  C_21
REMARK    6  A    between atoms: C_21  and  N_22
REMARK                            x       y       z     vdW  Elec       q    Type
REMARK                         _______ _______ _______ _____ _____    ______ ____
ROOT
ATOM      1  C   UNL     1       0.113  -0.143   2.457  0.00  0.00    +0.123 C 
ATOM      2  C   UNL     1      -1.167   0.698   2.691  0.00  0.00    +0.029 C 
ATOM      3  C   UNL     1      -1.037   1.494   3.921  0.00  0.00    +0.002 C 
ATOM      4  C   UNL     1      -0.891   0.666   5.194  0.00  0.00    +0.002 C 
ATOM      5  C   UNL     1       0.560   0.300   5.388  0.00  0.00    +0.019 C 
ATOM      6  C   UNL     1       0.855  -1.061   4.733  0.00  0.00    +0.108 C 
ATOM      7  N   UNL     1       0.177  -1.210   3.430  0.00  0.00    -0.292 N 
ATOM      8  C   UNL     1      -0.407  -2.389   3.136  0.00  0.00    +0.233 C 
ATOM      9  O   UNL     1      -0.902  -2.564   2.043  0.00  0.00    -0.274 OA
ENDROOT
BRANCH   1  15
ATOM     10  C   UNL     1      -2.371  -0.384   0.617  0.00  0.00    +0.148 C 
ATOM     11  N   UNL     1      -1.020  -0.831   0.270  0.00  0.00    -0.352 N 
ATOM     12  C   UNL     1      -0.653  -1.411  -0.908  0.00  0.00    +0.085 A 
ATOM     13  C   UNL     1       0.667  -1.680  -0.852  0.00  0.00    +0.019 A 
ATOM     14  C   UNL     1       1.132  -1.251   0.406  0.00  0.00    +0.024 A 
ATOM     15  C   UNL     1       0.080  -0.730   1.069  0.00  0.00    +0.039 A 
ENDBRANCH   1  15
BRANCH   8  16
ATOM     16  C   UNL     1      -0.443  -3.489   4.165  0.00  0.00    +0.200 C 
BRANCH  16  17
ATOM     17  N   UNL     1      -1.126  -4.658   3.606  0.00  0.00    -0.308 N 
ATOM     18  C   UNL     1      -1.278  -5.770   4.352  0.00  0.00    +0.196 C 
ATOM     19  O   UNL     1      -0.849  -5.803   5.486  0.00  0.00    -0.278 OA
ATOM     20  H   UNL     1      -1.469  -4.632   2.699  0.00  0.00    +0.149 HD
BRANCH  18  21
ATOM     21  C   UNL     1      -1.980  -6.973   3.777  0.00  0.00    +0.011 C 
BRANCH  21  22
ATOM     22  N   UNL     1      -2.016  -8.046   4.780  0.00  0.00    +0.384 N 
ATOM     23  H   UNL     1      -2.513  -7.725   5.598  0.00  0.00    -0.089 HD
ATOM     24  H   UNL     1      -2.486  -8.851   4.395  0.00  0.00    -0.089 HD
ATOM     25  H   UNL     1      -1.073  -8.297   5.037  0.00  0.00    -0.089 HD
ENDBRANCH  21  22
ENDBRANCH  18  21
ENDBRANCH  16  17
ENDBRANCH   8  16
TORSDOF 5
