REMARK  Name = ZINC00036783
REMARK  6 active torsions:
REMARK  status: ('A' for Active; 'I' for Inactive)
REMARK    1  A    between atoms: C_1  and  C_2
REMARK    2  A    between atoms: C_5  and  C_8
REMARK    3  A    between atoms: C_9  and  C_18
REMARK    4  A    between atoms: C_10  and  N_17
REMARK    5  A    between atoms: C_12  and  N_16
REMARK    6  A    between atoms: C_13  and  C_14
REMARK                            x       y       z     vdW  Elec       q    Type
REMARK                         _______ _______ _______ _____ _____    ______ ____
ROOT
ATOM      1  C   UNL     1       0.059  -4.275  -0.021  0.00  0.00    +0.104 C 
ATOM      2  C   UNL     1      -1.216  -4.763   0.566  0.00  0.00    +0.069 C 
ATOM      3  C   UNL     1      -1.394  -5.175   1.838  0.00  0.00    +0.079 C 
ATOM      4  S   UNL     1      -0.059  -5.203   2.986  0.00  0.00    -0.058 S 
ATOM      5  C   UNL     1       1.369  -5.140   1.958  0.00  0.00    +0.079 C 
ATOM      6  C   UNL     1       1.292  -4.731   0.675  0.00  0.00    +0.069 C 
ENDROOT
BRANCH   1  11
ATOM      7  C   UNL     1      -0.018   1.503   0.010  0.00  0.00    +0.044 C 
ATOM      8  C   UNL     1       0.002  -0.004   0.002  0.00  0.00    -0.050 A 
ATOM      9  C   UNL     1       0.006  -0.689  -1.199  0.00  0.00    +0.003 A 
ATOM     10  C   UNL     1       0.025  -2.071  -1.206  0.00  0.00    +0.005 A 
ATOM     11  C   UNL     1       0.040  -2.768  -0.013  0.00  0.00    -0.034 A 
ATOM     12  C   UNL     1       0.037  -2.084   1.188  0.00  0.00    +0.005 A 
ATOM     13  C   UNL     1       0.023  -0.702   1.195  0.00  0.00    +0.003 A 
ENDBRANCH   1  11
BRANCH   5  14
ATOM     14  N   UNL     1       2.587  -5.513   2.474  0.00  0.00    -0.352 N 
ATOM     15  H   UNL     1       2.654  -5.808   3.395  0.00  0.00    +0.143 HD
ATOM     16  H   UNL     1       3.380  -5.482   1.916  0.00  0.00    +0.143 HD
ENDBRANCH   5  14
BRANCH   3  17
ATOM     17  N   UNL     1      -2.642  -5.581   2.247  0.00  0.00    -0.352 N 
ATOM     18  H   UNL     1      -3.384  -5.569   1.622  0.00  0.00    +0.143 HD
ATOM     19  H   UNL     1      -2.781  -5.879   3.159  0.00  0.00    +0.143 HD
ENDBRANCH   3  17
BRANCH   6  20
ATOM     20  C   UNL     1       2.505  -4.737  -0.085  0.00  0.00    +0.098 C 
ATOM     21  N   UNL     1       3.468  -4.742  -0.688  0.00  0.00    -0.191 NA
ENDBRANCH   6  20
BRANCH   2  22
ATOM     22  C   UNL     1      -2.359  -4.798  -0.295  0.00  0.00    +0.098 C 
ATOM     23  N   UNL     1      -3.266  -4.826  -0.979  0.00  0.00    -0.191 NA
ENDBRANCH   2  22
TORSDOF 5
