REMARK  Name = ZINC50306195
REMARK  5 active torsions:
REMARK  status: ('A' for Active; 'I' for Inactive)
REMARK    1  A    between atoms: C_1  and  C_2
REMARK    2  A    between atoms: C_7  and  C_8
REMARK    3  A    between atoms: C_14  and  C_16
REMARK    4  A    between atoms: C_17  and  N_23
REMARK    5  A    between atoms: C_18  and  C_22
REMARK                            x       y       z     vdW  Elec       q    Type
REMARK                         _______ _______ _______ _____ _____    ______ ____
ROOT
ATOM      1  C   UNL     1       0.025   0.045   2.504  0.00  0.00    +0.107 C 
ATOM      2  C   UNL     1       1.452   0.536   2.826  0.00  0.00    +0.029 C 
ATOM      3  C   UNL     1       1.552   0.333   4.361  0.00  0.00    +0.021 C 
ATOM      4  C   UNL     1       0.728  -0.964   4.557  0.00  0.00    +0.109 C 
ATOM      5  N   UNL     1      -0.386  -0.854   3.593  0.00  0.00    -0.289 N 
ATOM      6  C   UNL     1      -1.579  -1.472   3.693  0.00  0.00    +0.269 C 
ATOM      7  O   UNL     1      -2.424  -1.305   2.834  0.00  0.00    -0.268 OA
ENDROOT
BRANCH   1  14
ATOM      8  C   UNL     1      -0.018   1.503   0.010  0.00  0.00    +0.044 C 
ATOM      9  C   UNL     1       0.002  -0.004   0.002  0.00  0.00    -0.046 A 
ATOM     10  C   UNL     1       0.006  -0.689  -1.199  0.00  0.00    +0.004 A 
ATOM     11  C   UNL     1       0.025  -2.071  -1.207  0.00  0.00    +0.000 A 
ATOM     12  C   UNL     1       0.040  -2.768  -0.013  0.00  0.00    +0.000 A 
ATOM     13  C   UNL     1       0.037  -2.084   1.188  0.00  0.00    +0.006 A 
ATOM     14  C   UNL     1       0.023  -0.702   1.195  0.00  0.00    -0.024 A 
ENDBRANCH   1  14
BRANCH   6  15
ATOM     15  C   UNL     1      -1.861  -2.350   4.843  0.00  0.00    +0.168 A 
ATOM     16  C   UNL     1      -3.061  -3.069   5.082  0.00  0.00    +0.078 A 
ATOM     17  C   UNL     1      -2.859  -3.732   6.251  0.00  0.00    +0.054 A 
ATOM     18  N   UNL     1      -1.606  -3.419   6.675  0.00  0.00    -0.279 N 
ATOM     19  H   UNL     1      -1.196  -3.754   7.488  0.00  0.00    +0.189 HD
ATOM     20  N   UNL     1      -1.042  -2.621   5.842  0.00  0.00    -0.167 NA
ATOM     21  C   UNL     1      -3.838  -4.643   6.945  0.00  0.00    +0.067 C 
BRANCH  16  22
ATOM     22  N   UNL     1      -4.212  -3.090   4.281  0.00  0.00    -0.355 N 
ATOM     23  H   UNL     1      -4.242  -2.573   3.461  0.00  0.00    +0.142 HD
ATOM     24  H   UNL     1      -4.978  -3.623   4.546  0.00  0.00    +0.142 HD
ENDBRANCH  16  22
ENDBRANCH   6  15
TORSDOF 3
