REMARK  Name = ZINC09103779
REMARK  12 active torsions:
REMARK  status: ('A' for Active; 'I' for Inactive)
REMARK    1  A    between atoms: C_1  and  C_2
REMARK    2  A    between atoms: C_2  and  C_4
REMARK    3  A    between atoms: C_2  and  N_58
REMARK    4  A    between atoms: C_7  and  S_16
REMARK    5  A    between atoms: N_8  and  C_9
REMARK    6  A    between atoms: S_16  and  C_17
REMARK    7  A    between atoms: C_17  and  C_18
REMARK    8  A    between atoms: N_23  and  C_24
REMARK    9  A    between atoms: C_27  and  O_30
REMARK   10  A    between atoms: O_30  and  C_31
REMARK   11  A    between atoms: C_32  and  N_58
REMARK   12  A    between atoms: C_33  and  N_58
REMARK                            x       y       z     vdW  Elec       q    Type
REMARK                         _______ _______ _______ _____ _____    ______ ____
ROOT
ATOM      1  C   UNL     1       5.310 -10.713  -0.936  0.00  0.00    +0.125 A 
ATOM      2  N   UNL     1       4.040 -10.436  -0.845  0.00  0.00    -0.135 NA
ATOM      3  N   UNL     1       3.871  -9.167  -0.733  0.00  0.00    -0.122 NA
ATOM      4  C   UNL     1       5.034  -8.557  -0.747  0.00  0.00    +0.197 A 
ATOM      5  N   UNL     1       5.991  -9.525  -0.882  0.00  0.00    -0.275 N 
ENDROOT
BRANCH   5   6
ATOM      6  C   UNL     1       7.380  -9.340  -0.949  0.00  0.00    +0.050 A 
ATOM      7  C   UNL     1       8.069  -9.667  -2.109  0.00  0.00    +0.028 A 
ATOM      8  C   UNL     1       9.436  -9.479  -2.174  0.00  0.00    +0.022 A 
ATOM      9  C   UNL     1      10.120  -8.976  -1.081  0.00  0.00    +0.041 A 
ATOM     10  C   UNL     1       9.435  -8.655   0.078  0.00  0.00    +0.022 A 
ATOM     11  C   UNL     1       8.067  -8.836   0.146  0.00  0.00    +0.028 A 
ATOM     12 CL   UNL     1      11.839  -8.748  -1.164  0.00  0.00    -0.084 Cl
ENDBRANCH   5   6
BRANCH   1  14
ATOM     13  C   UNL     1       5.707 -12.589  -2.509  0.00  0.00    -0.005 C 
ATOM     14  C   UNL     1       5.918 -12.085  -1.079  0.00  0.00    -0.003 C 
BRANCH  14  17
ATOM     15  C   UNL     1       3.860 -13.212  -0.481  0.00  0.00    -0.096 C 
ATOM     16  C   UNL     1       5.992 -14.286  -0.075  0.00  0.00    -0.096 C 
ATOM     17  N   UNL     1       5.274 -12.995  -0.109  0.00  0.00    +0.382 N 
ATOM     18  H   UNL     1       5.311 -12.568   0.824  0.00  0.00    -0.082 HD
ENDBRANCH  14  17
ENDBRANCH   1  14
BRANCH   4  19
ATOM     19  S   UNL     1       5.309  -6.822  -0.623  0.00  0.00    -0.076 S 
BRANCH  19  20
ATOM     20  C   UNL     1       3.600  -6.242  -0.483  0.00  0.00    +0.173 C 
BRANCH  20  21
ATOM     21  C   UNL     1       3.587  -4.740  -0.362  0.00  0.00    +0.231 C 
ATOM     22  O   UNL     1       4.630  -4.122  -0.369  0.00  0.00    -0.274 OA
ATOM     23  N   UNL     1       2.416  -4.083  -0.245  0.00  0.00    -0.239 N 
ATOM     24  C   UNL     1       2.405  -2.740  -0.137  0.00  0.00    +0.310 C 
ATOM     25  O   UNL     1       3.451  -2.120  -0.144  0.00  0.00    -0.252 OA
ATOM     26  N   UNL     1       1.234  -2.083  -0.021  0.00  0.00    -0.269 N 
ATOM     27  H   UNL     1       1.581  -4.577  -0.240  0.00  0.00    +0.159 HD
ATOM     28  H   UNL     1       0.405  -2.580   0.063  0.00  0.00    +0.156 HD
BRANCH  26  29
ATOM     29  C   UNL     1       1.213  -0.681  -0.020  0.00  0.00    +0.035 A 
ATOM     30  C   UNL     1       2.137   0.027  -0.776  0.00  0.00    +0.027 A 
ATOM     31  C   UNL     1       2.116   1.408  -0.775  0.00  0.00    +0.047 A 
ATOM     32  C   UNL     1       1.172   2.087  -0.019  0.00  0.00    +0.120 A 
ATOM     33  C   UNL     1       0.249   1.380   0.736  0.00  0.00    +0.047 A 
ATOM     34  C   UNL     1       0.269  -0.001   0.736  0.00  0.00    +0.027 A 
BRANCH  32  35
ATOM     35  O   UNL     1       1.152   3.446  -0.019  0.00  0.00    -0.495 OA
ATOM     36  C   UNL     1       0.153   4.080   0.782  0.00  0.00    +0.277 C 
ENDBRANCH  32  35
ENDBRANCH  26  29
ENDBRANCH  20  21
ENDBRANCH  19  20
ENDBRANCH   4  19
TORSDOF 8
