REMARK  Name = ZINC07486128
REMARK  6 active torsions:
REMARK  status: ('A' for Active; 'I' for Inactive)
REMARK    1  A    between atoms: C_1  and  C_2
REMARK    2  A    between atoms: C_2  and  C_3
REMARK    3  A    between atoms: C_2  and  C_4
REMARK    4  A    between atoms: C_9  and  N_10
REMARK    5  A    between atoms: N_10  and  S_11
REMARK    6  A    between atoms: S_11  and  C_14
REMARK                            x       y       z     vdW  Elec       q    Type
REMARK                         _______ _______ _______ _____ _____    ______ ____
ROOT
ATOM      1  S   UNL     1      -1.635  -1.913  -3.599  0.00  0.00    +0.072 S 
ATOM      2  O   UNL     1      -0.544  -2.302  -4.423  0.00  0.00    -0.150 OA
ATOM      3  O   UNL     1      -2.788  -2.725  -3.427  0.00  0.00    -0.150 OA
ENDROOT
BRANCH   1   4
ATOM      4  C   UNL     1      -2.199  -0.360  -4.211  0.00  0.00    +0.111 A 
ATOM      5  C   UNL     1      -3.500   0.046  -3.966  0.00  0.00    +0.031 A 
ATOM      6  C   UNL     1      -3.951   1.262  -4.441  0.00  0.00    +0.030 A 
ATOM      7  C   UNL     1      -3.099   2.079  -5.168  0.00  0.00    +0.067 A 
ATOM      8  C   UNL     1      -1.787   1.669  -5.415  0.00  0.00    +0.069 A 
ATOM      9  C   UNL     1      -1.341   0.450  -4.929  0.00  0.00    +0.056 A 
ATOM     10  N   UNL     1      -1.182   2.682  -6.156  0.00  0.00    -0.306 N 
ATOM     11  H   UNL     1      -0.267   2.681  -6.478  0.00  0.00    +0.170 HD
ATOM     12  C   UNL     1      -2.084   3.662  -6.350  0.00  0.00    +0.325 A 
ATOM     13  O   UNL     1      -1.878   4.694  -6.961  0.00  0.00    -0.247 OA
ATOM     14  N   UNL     1      -3.250   3.328  -5.766  0.00  0.00    -0.306 N 
ATOM     15  H   UNL     1      -4.058   3.865  -5.762  0.00  0.00    +0.170 HD
ENDBRANCH   1   4
BRANCH   1  16
ATOM     16  N   UNL     1      -1.013  -1.646  -2.087  0.00  0.00    -0.216 N 
ATOM     17  H   UNL     1      -0.082  -1.846  -1.903  0.00  0.00    +0.174 HD
BRANCH  16  23
ATOM     18  C   UNL     1      -1.306  -0.258  -0.135  0.00  0.00    -0.022 A 
ATOM     19  C   UNL     1      -2.118   0.251   0.860  0.00  0.00    +0.006 A 
ATOM     20  C   UNL     1      -3.450  -0.114   0.922  0.00  0.00    +0.000 A 
ATOM     21  C   UNL     1      -3.974  -0.990  -0.012  0.00  0.00    +0.002 A 
ATOM     22  C   UNL     1      -3.168  -1.502  -1.009  0.00  0.00    +0.025 A 
ATOM     23  C   UNL     1      -1.830  -1.134  -1.077  0.00  0.00    +0.051 A 
BRANCH  18  25
ATOM     24  C   UNL     1       0.252   1.656  -0.372  0.00  0.00    +0.012 C 
ATOM     25  C   UNL     1       0.146   0.140  -0.201  0.00  0.00    +0.015 C 
ATOM     26  C   UNL     1       0.849  -0.278   1.092  0.00  0.00    +0.012 C 
ENDBRANCH  18  25
ENDBRANCH  16  23
ENDBRANCH   1  16
TORSDOF 4
