REMARK  Name = ZINC06575788
REMARK  4 active torsions:
REMARK  status: ('A' for Active; 'I' for Inactive)
REMARK    1  A    between atoms: C_4  and  P_7
REMARK    2  A    between atoms: P_7  and  C_9
REMARK    3  A    between atoms: P_7  and  O_20
REMARK    4  A    between atoms: N_11  and  C_12
REMARK                            x       y       z     vdW  Elec       q    Type
REMARK                         _______ _______ _______ _____ _____    ______ ____
ROOT
ATOM      1  C   UNL     1       1.682   2.109   0.000  0.00  0.00    +0.307 C 
ATOM      2  O   UNL     1       2.062   2.814  -0.911  0.00  0.00    -0.264 OA
ATOM      3  N   UNL     1       2.528   1.784   0.998  0.00  0.00    -0.276 N 
ATOM      4  H   UNL     1       2.207   1.275   1.759  0.00  0.00    +0.155 HD
ENDROOT
BRANCH   3   5
ATOM      5  C   UNL     1       3.869   2.181   0.937  0.00  0.00    +0.052 A 
ATOM      6  C   UNL     1       4.209   3.396   0.359  0.00  0.00    +0.026 A 
ATOM      7  C   UNL     1       5.533   3.785   0.299  0.00  0.00    +0.022 A 
ATOM      8  C   UNL     1       6.521   2.965   0.815  0.00  0.00    +0.042 A 
ATOM      9  C   UNL     1       6.186   1.752   1.391  0.00  0.00    +0.041 A 
ATOM     10  C   UNL     1       4.862   1.361   1.459  0.00  0.00    +0.064 A 
ATOM     11 CL   UNL     1       4.441  -0.157   2.189  0.00  0.00    -0.082 Cl
ATOM     12 CL   UNL     1       8.184   3.457   0.738  0.00  0.00    -0.083 Cl
ENDBRANCH   3   5
BRANCH   1  13
ATOM     13  P   UNL     1      -0.024   1.493   0.020  0.00  0.00    +0.313 P 
ATOM     14  O   UNL     1      -0.014   0.013   0.012  0.00  0.00    -0.276 OA
BRANCH  13  18
ATOM     15  C   UNL     1      -2.242   3.024  -3.682  0.00  0.00    +0.000 A 
ATOM     16  C   UNL     1      -1.563   1.821  -3.731  0.00  0.00    +0.001 A 
ATOM     17  C   UNL     1      -0.893   1.359  -2.614  0.00  0.00    +0.014 A 
ATOM     18  C   UNL     1      -0.902   2.100  -1.447  0.00  0.00    +0.045 A 
ATOM     19  C   UNL     1      -1.586   3.300  -1.396  0.00  0.00    +0.014 A 
ATOM     20  C   UNL     1      -2.252   3.765  -2.514  0.00  0.00    +0.001 A 
ENDBRANCH  13  18
BRANCH  13  21
ATOM     21  O   UNL     1      -0.769   2.018   1.347  0.00  0.00    -0.334 OA
ATOM     22  H   UNL     1      -0.812   2.982   1.419  0.00  0.00    +0.218 HD
ENDBRANCH  13  21
ENDBRANCH   1  13
TORSDOF 4
