REMARK  Name = ZINC06664910
REMARK  7 active torsions:
REMARK  status: ('A' for Active; 'I' for Inactive)
REMARK    1  A    between atoms: C_1  and  O_2
REMARK    2  A    between atoms: O_2  and  C_3
REMARK    3  A    between atoms: C_3  and  C_4
REMARK    4  A    between atoms: C_4  and  N_5
REMARK    5  A    between atoms: N_5  and  C_6
REMARK    6  A    between atoms: C_8  and  N_23
REMARK    7  A    between atoms: C_9  and  N_22
REMARK                            x       y       z     vdW  Elec       q    Type
REMARK                         _______ _______ _______ _____ _____    ______ ____
ROOT
ATOM      1  C   UNL     1      -0.072  -3.915   1.359  0.00  0.00    +0.041 A 
ATOM      2  C   UNL     1      -0.666  -4.849   0.512  0.00  0.00    +0.048 A 
ATOM      3  C   UNL     1      -0.646  -6.194   0.827  0.00  0.00    +0.053 A 
ATOM      4  C   UNL     1      -0.024  -6.639   2.011  0.00  0.00    +0.058 A 
ATOM      5  C   UNL     1       0.575  -5.715   2.866  0.00  0.00    +0.057 A 
ATOM      6  C   UNL     1       0.556  -4.339   2.537  0.00  0.00    +0.056 A 
ATOM      7  C   UNL     1       1.192  -3.368   3.436  0.00  0.00    +0.196 C 
ATOM      8  O   UNL     1       0.972  -2.178   3.310  0.00  0.00    -0.287 OA
ATOM      9  C   UNL     1       2.102  -3.852   4.496  0.00  0.00    +0.033 A 
ATOM     10  C   UNL     1       2.936  -2.967   5.172  0.00  0.00    +0.012 A 
ATOM     11  C   UNL     1       3.781  -3.438   6.161  0.00  0.00    +0.001 A 
ATOM     12  C   UNL     1       3.804  -4.783   6.483  0.00  0.00    +0.001 A 
ATOM     13  C   UNL     1       2.982  -5.677   5.821  0.00  0.00    +0.012 A 
ATOM     14  C   UNL     1       2.126  -5.221   4.823  0.00  0.00    +0.033 A 
ATOM     15  C   UNL     1       1.231  -6.159   4.107  0.00  0.00    +0.196 C 
ATOM     16  O   UNL     1       1.050  -7.285   4.531  0.00  0.00    -0.287 OA
ENDROOT
BRANCH   3  17
ATOM     17  N   UNL     1      -1.243  -7.113  -0.028  0.00  0.00    -0.328 N 
ATOM     18  C   UNL     1      -0.484  -7.606  -1.155  0.00  0.00    +0.105 C 
ATOM     19  C   UNL     1      -0.706  -6.679  -2.376  0.00  0.00    +0.019 C 
ATOM     20  C   UNL     1      -2.069  -6.847  -2.904  0.00  0.00    +0.002 C 
ATOM     21  C   UNL     1      -3.174  -6.457  -1.927  0.00  0.00    +0.002 C 
ATOM     22  C   UNL     1      -3.480  -7.627  -1.025  0.00  0.00    +0.019 C 
ATOM     23  C   UNL     1      -2.624  -7.551   0.257  0.00  0.00    +0.105 C 
ENDBRANCH   3  17
BRANCH   4  24
ATOM     24  N   UNL     1      -0.007  -7.990   2.323  0.00  0.00    -0.356 N 
ATOM     25  H   UNL     1       0.625  -8.329   2.976  0.00  0.00    +0.142 HD
ATOM     26  H   UNL     1      -0.628  -8.595   1.888  0.00  0.00    +0.142 HD
ENDBRANCH   4  24
BRANCH   1  27
ATOM     27  N   UNL     1      -0.098  -2.567   1.034  0.00  0.00    -0.341 N 
ATOM     28  H   UNL     1       0.343  -1.921   1.607  0.00  0.00    +0.146 HD
BRANCH  27  29
ATOM     29  C   UNL     1      -0.791  -2.120  -0.176  0.00  0.00    +0.129 C 
BRANCH  29  30
ATOM     30  C   UNL     1      -0.670  -0.600  -0.301  0.00  0.00    +0.178 C 
BRANCH  30  32
ATOM     31  C   UNL     1       0.925   1.159  -0.627  0.00  0.00    +0.194 C 
ATOM     32  O   UNL     1       0.701  -0.246  -0.498  0.00  0.00    -0.381 OA
ENDBRANCH  30  32
ENDBRANCH  29  30
ENDBRANCH  27  29
ENDBRANCH   1  27
TORSDOF 6
