REMARK  Name = ZINC42191754
REMARK  4 active torsions:
REMARK  status: ('A' for Active; 'I' for Inactive)
REMARK    1  A    between atoms: C_8  and  O_22
REMARK    2  A    between atoms: C_10  and  N_12
REMARK    3  A    between atoms: N_12  and  S_13
REMARK    4  A    between atoms: S_13  and  C_16
REMARK                            x       y       z     vdW  Elec       q    Type
REMARK                         _______ _______ _______ _____ _____    ______ ____
ROOT
ATOM      1  C   UNL     1      -0.017   1.377   0.010  0.00  0.00    +0.000 A 
ATOM      2  C   UNL     1       1.172   2.083   0.002  0.00  0.00    +0.000 A 
ATOM      3  C   UNL     1       2.376   1.406  -0.013  0.00  0.00    +0.005 A 
ATOM      4  C   UNL     1       2.396   0.021  -0.021  0.00  0.00    -0.023 A 
ATOM      5  C   UNL     1       1.208  -0.685  -0.013  0.00  0.00    -0.040 A 
ATOM      6  C   UNL     1       0.002  -0.004   0.002  0.00  0.00    +0.004 A 
ATOM      7  C   UNL     1       1.496  -2.171  -0.025  0.00  0.00    +0.068 C 
ATOM      8  C   UNL     1       2.966  -2.294  -0.480  0.00  0.00    +0.142 C 
ATOM      9  C   UNL     1       3.564  -0.942  -0.037  0.00  0.00    +0.135 C 
ENDROOT
BRANCH   9  10
ATOM     10  N   UNL     1       4.577  -0.496  -0.997  0.00  0.00    -0.180 NA
ATOM     11  H   UNL     1       4.485  -0.717  -1.937  0.00  0.00    +0.149 HD
BRANCH  10  12
ATOM     12  S   UNL     1       5.880   0.384  -0.477  0.00  0.00    +0.065 S 
ATOM     13  O   UNL     1       6.682   0.638  -1.622  0.00  0.00    -0.153 OA
ATOM     14  O   UNL     1       5.365   1.428   0.339  0.00  0.00    -0.153 OA
BRANCH  12  15
ATOM     15  C   UNL     1       6.826  -0.660   0.580  0.00  0.00    +0.144 A 
ATOM     16  C   UNL     1       7.845  -1.496   0.264  0.00  0.00    +0.038 A 
ATOM     17  C   UNL     1       8.449  -2.228   1.269  0.00  0.00    +0.030 A 
ATOM     18  C   UNL     1       8.003  -2.088   2.543  0.00  0.00    +0.080 A 
ATOM     19  S   UNL     1       6.697  -0.886   2.346  0.00  0.00    -0.057 S 
ATOM     20 CL   UNL     1       8.562  -2.869   3.989  0.00  0.00    -0.076 Cl
ENDBRANCH  12  15
ENDBRANCH  10  12
ENDBRANCH   9  10
BRANCH   8  21
ATOM     21  O   UNL     1       3.613  -3.382   0.184  0.00  0.00    -0.390 OA
ATOM     22  H   UNL     1       3.217  -4.245   0.002  0.00  0.00    +0.210 HD
ENDBRANCH   8  21
TORSDOF 4
