REMARK  Name = ZINC44307230
REMARK  6 active torsions:
REMARK  status: ('A' for Active; 'I' for Inactive)
REMARK    1  A    between atoms: C_1  and  O_2
REMARK    2  A    between atoms: O_2  and  C_3
REMARK    3  A    between atoms: C_6  and  N_15
REMARK    4  A    between atoms: C_8  and  N_9
REMARK    5  A    between atoms: N_18  and  C_19
REMARK    6  A    between atoms: C_19  and  C_20
REMARK                            x       y       z     vdW  Elec       q    Type
REMARK                         _______ _______ _______ _____ _____    ______ ____
ROOT
ATOM      1  N   UNL     1      -4.897  -2.579   0.037  0.00  0.00    -0.269 N 
ATOM      2  C   UNL     1      -6.032  -1.860   0.149  0.00  0.00    +0.304 C 
ATOM      3  O   UNL     1      -5.985  -0.645   0.150  0.00  0.00    -0.253 OA
ATOM      4  N   UNL     1      -7.219  -2.489   0.260  0.00  0.00    -0.299 N 
ATOM      5  H   UNL     1      -4.940  -3.545  -0.031  0.00  0.00    +0.156 HD
ATOM      6  H   UNL     1      -7.257  -3.458   0.259  0.00  0.00    +0.150 HD
ENDROOT
BRANCH   1  10
ATOM      7  C   UNL     1      -1.195  -0.651  -0.013  0.00  0.00    +0.142 A 
ATOM      8  C   UNL     1      -1.325  -1.889   0.596  0.00  0.00    +0.049 A 
ATOM      9  C   UNL     1      -2.551  -2.526   0.612  0.00  0.00    +0.027 A 
ATOM     10  C   UNL     1      -3.656  -1.929   0.019  0.00  0.00    +0.037 A 
ATOM     11  C   UNL     1      -3.530  -0.689  -0.591  0.00  0.00    +0.050 A 
ATOM     12  C   UNL     1      -2.302  -0.046  -0.604  0.00  0.00    +0.080 A 
BRANCH  12  13
ATOM     13  N   UNL     1      -2.174   1.209  -1.215  0.00  0.00    -0.268 N 
ATOM     14  C   UNL     1      -1.837   1.410  -2.629  0.00  0.00    +0.114 C 
ATOM     15  C   UNL     1      -2.231   2.871  -2.942  0.00  0.00    +0.029 C 
ATOM     16  C   UNL     1      -2.137   3.529  -1.546  0.00  0.00    +0.098 C 
ATOM     17  C   UNL     1      -2.348   2.382  -0.582  0.00  0.00    +0.220 C 
ATOM     18  O   UNL     1      -2.630   2.503   0.591  0.00  0.00    -0.275 OA
ENDBRANCH  12  13
BRANCH   7  20
ATOM     19  C   UNL     1       1.104  -0.703   0.595  0.00  0.00    +0.277 C 
ATOM     20  O   UNL     1       0.012  -0.024  -0.029  0.00  0.00    -0.493 OA
ENDBRANCH   7  20
ENDBRANCH   1  10
BRANCH   4  21
ATOM     21  C   UNL     1      -8.453  -1.708   0.382  0.00  0.00    +0.113 C 
BRANCH  21  22
ATOM     22  C   UNL     1      -9.648  -2.656   0.492  0.00  0.00    +0.048 C 
ATOM     23  C   UNL     1     -10.948  -1.849   0.508  0.00  0.00    +0.047 C 
ATOM     24  C   UNL     1     -12.095  -2.741   0.910  0.00  0.00    -0.005 A 
ATOM     25  C   UNL     1     -13.388  -2.329   0.632  0.00  0.00    +0.007 A 
ATOM     26  C   UNL     1     -14.463  -3.119   0.990  0.00  0.00    +0.000 A 
ATOM     27  C   UNL     1     -14.251  -4.327   1.630  0.00  0.00    +0.004 A 
ATOM     28  C   UNL     1     -12.965  -4.743   1.907  0.00  0.00    +0.046 A 
ATOM     29  C   UNL     1     -11.879  -3.950   1.547  0.00  0.00    +0.124 A 
ATOM     30  O   UNL     1     -10.628  -4.397   1.828  0.00  0.00    -0.491 OA
ATOM     31  C   UNL     1      -9.558  -3.452   1.801  0.00  0.00    +0.234 C 
ENDBRANCH  21  22
ENDBRANCH   4  21
TORSDOF 5
