REMARK  Name = ZINC52591983
REMARK  4 active torsions:
REMARK  status: ('A' for Active; 'I' for Inactive)
REMARK    1  A    between atoms: C_6  and  C_7
REMARK    2  A    between atoms: C_7  and  C_11
REMARK    3  A    between atoms: C_11  and  N_12
REMARK    4  A    between atoms: C_19  and  O_22
REMARK                            x       y       z     vdW  Elec       q    Type
REMARK                         _______ _______ _______ _____ _____    ______ ____
ROOT
ATOM      1  C   UNL     1      -2.336  -0.200  -0.951  0.00  0.00    +0.117 C 
ENDROOT
BRANCH   1   2
ATOM      2  N   UNL     1      -2.382   1.257  -0.805  0.00  0.00    -0.298 N 
ATOM      3  C   UNL     1      -3.297   1.974  -1.486  0.00  0.00    +0.302 C 
ATOM      4  O   UNL     1      -4.025   1.423  -2.290  0.00  0.00    -0.253 OA
ATOM      5  N   UNL     1      -3.406   3.301  -1.278  0.00  0.00    -0.283 N 
ATOM      6  C   UNL     1      -2.457   4.001  -0.401  0.00  0.00    +0.109 C 
ATOM      7  C   UNL     1      -1.852   5.179  -1.171  0.00  0.00    +0.022 C 
ATOM      8  C   UNL     1      -2.979   6.063  -1.711  0.00  0.00    +0.034 C 
ATOM      9  C   UNL     1      -3.848   5.252  -2.674  0.00  0.00    +0.132 C 
ATOM     10  C   UNL     1      -4.473   4.076  -1.926  0.00  0.00    +0.140 C 
ATOM     11  H   UNL     1      -1.754   1.706  -0.217  0.00  0.00    +0.150 HD
BRANCH   9  12
ATOM     12  O   UNL     1      -4.881   6.087  -3.202  0.00  0.00    -0.390 OA
ATOM     13  H   UNL     1      -5.472   5.637  -3.822  0.00  0.00    +0.210 HD
ENDBRANCH   9  12
ENDBRANCH   1   2
BRANCH   1  14
ATOM     14  C   UNL     1      -1.297  -0.776   0.014  0.00  0.00    +0.011 C 
ATOM     15  C   UNL     1      -1.714  -0.694   1.492  0.00  0.00    +0.013 C 
ATOM     16  C   UNL     1      -2.377  -2.068   1.301  0.00  0.00    +0.002 C 
ATOM     17  C   UNL     1      -1.373  -2.305   0.160  0.00  0.00    +0.013 C 
BRANCH  14  23
ATOM     18  C   UNL     1       0.823  -0.758  -1.316  0.00  0.00    +0.005 A 
ATOM     19  C   UNL     1       2.100  -0.288  -1.559  0.00  0.00    +0.015 A 
ATOM     20  C   UNL     1       2.649   0.677  -0.735  0.00  0.00    +0.018 A 
ATOM     21  C   UNL     1       1.921   1.171   0.332  0.00  0.00    +0.015 A 
ATOM     22  C   UNL     1       0.644   0.701   0.574  0.00  0.00    +0.005 A 
ATOM     23  C   UNL     1       0.095  -0.264  -0.250  0.00  0.00    -0.040 A 
ATOM     24 BR   UNL     1       4.397   1.320  -1.066  0.00  0.00    -0.050 Br
ENDBRANCH  14  23
ENDBRANCH   1  14
TORSDOF 4
