REMARK  Name = ZINC41713565
REMARK  5 active torsions:
REMARK  status: ('A' for Active; 'I' for Inactive)
REMARK    1  A    between atoms: C_1  and  C_2
REMARK    2  A    between atoms: N_6  and  C_7
REMARK    3  A    between atoms: C_11  and  S_13
REMARK    4  A    between atoms: S_13  and  N_16
REMARK    5  A    between atoms: C_20  and  O_22
REMARK                            x       y       z     vdW  Elec       q    Type
REMARK                         _______ _______ _______ _____ _____    ______ ____
ROOT
ATOM      1  C   UNL     1      -0.018   1.503   0.010  0.00  0.00    +0.064 C 
ATOM      2  C   UNL     1       0.002  -0.004   0.002  0.00  0.00    +0.021 A 
ATOM      3  C   UNL     1       0.008  -0.789  -1.097  0.00  0.00    +0.029 A 
ATOM      4  C   UNL     1       0.028  -2.122  -0.658  0.00  0.00    +0.002 A 
ATOM      5  C   UNL     1       0.035  -2.108   0.695  0.00  0.00    +0.030 A 
ATOM      6  N   UNL     1       0.024  -0.811   1.106  0.00  0.00    -0.317 N 
ATOM      7  C   UNL     1       0.059  -3.350   1.551  0.00  0.00    +0.054 C 
ATOM      8  C   UNL     1       0.488  -4.534   0.676  0.00  0.00    +0.009 C 
ATOM      9  C   UNL     1      -0.355  -4.558  -0.602  0.00  0.00    +0.036 C 
ATOM     10  C   UNL     1       0.038  -3.375  -1.496  0.00  0.00    +0.146 C 
ENDROOT
BRANCH   6  11
ATOM     11  C   UNL     1       0.030  -0.376   2.438  0.00  0.00    +0.048 A 
ATOM     12  C   UNL     1       1.133  -0.621   3.246  0.00  0.00    +0.026 A 
ATOM     13  C   UNL     1       1.136  -0.190   4.558  0.00  0.00    +0.004 A 
ATOM     14  C   UNL     1       0.042   0.485   5.068  0.00  0.00    +0.028 A 
ATOM     15  C   UNL     1      -1.057   0.731   4.267  0.00  0.00    +0.107 A 
ATOM     16  C   UNL     1      -1.064   0.308   2.952  0.00  0.00    +0.054 A 
BRANCH  15  17
ATOM     17  S   UNL     1      -2.448   1.592   4.921  0.00  0.00    +0.056 S 
ATOM     18  O   UNL     1      -3.567   1.217   4.130  0.00  0.00    -0.153 OA
ATOM     19  O   UNL     1      -2.415   1.407   6.330  0.00  0.00    -0.153 OA
BRANCH  17  20
ATOM     20  N   UNL     1      -2.197   3.206   4.650  0.00  0.00    -0.204 NA
ATOM     21  H   UNL     1      -2.954   3.800   4.520  0.00  0.00    +0.144 HD
ATOM     22  H   UNL     1      -1.294   3.558   4.622  0.00  0.00    +0.144 HD
ENDBRANCH  17  20
ENDBRANCH  15  17
ENDBRANCH   6  11
BRANCH  10  23
ATOM     23  O   UNL     1      -0.901  -3.247  -2.565  0.00  0.00    -0.387 OA
ATOM     24  H   UNL     1      -0.945  -4.021  -3.144  0.00  0.00    +0.210 HD
ENDBRANCH  10  23
TORSDOF 4
