REMARK  Name = ZINC29961350
REMARK  8 active torsions:
REMARK  status: ('A' for Active; 'I' for Inactive)
REMARK    1  A    between atoms: C_1  and  C_2
REMARK    2  A    between atoms: N_10  and  C_14
REMARK    3  A    between atoms: C_14  and  C_15
REMARK    4  A    between atoms: N_17  and  C_18
REMARK    5  A    between atoms: C_18  and  C_19
REMARK    6  A    between atoms: C_19  and  C_20
REMARK    7  A    between atoms: C_19  and  C_21
REMARK    8  A    between atoms: C_19  and  N_22
REMARK                            x       y       z     vdW  Elec       q    Type
REMARK                         _______ _______ _______ _____ _____    ______ ____
ROOT
ATOM      1  C   UNL     1      -1.242   2.387   0.801  0.00  0.00    +0.213 C 
ENDROOT
BRANCH   1  11
ATOM      2  C   UNL     1      -7.320  -2.230   3.201  0.00  0.00    +0.007 C 
ATOM      3  C   UNL     1      -6.087  -1.339   3.368  0.00  0.00    -0.014 C 
ATOM      4  C   UNL     1      -4.899  -1.970   2.639  0.00  0.00    +0.006 C 
ATOM      5  C   UNL     1      -3.664  -1.084   2.816  0.00  0.00    +0.035 C 
ATOM      6  C   UNL     1      -3.946   0.306   2.256  0.00  0.00    +0.113 C 
ATOM      7  C   UNL     1      -5.144   0.938   2.956  0.00  0.00    +0.035 C 
ATOM      8  C   UNL     1      -6.373   0.043   2.778  0.00  0.00    +0.006 C 
ATOM      9  C   UNL     1      -2.727   1.188   2.397  0.00  0.00    +0.247 C 
ATOM     10  O   UNL     1      -2.176   1.520   3.425  0.00  0.00    -0.273 OA
ATOM     11  N   UNL     1      -2.381   1.529   1.138  0.00  0.00    -0.215 N 
ATOM     12  C   UNL     1      -3.211   0.991   0.236  0.00  0.00    +0.310 C 
ATOM     13  O   UNL     1      -3.106   1.158  -0.963  0.00  0.00    -0.252 OA
ATOM     14  N   UNL     1      -4.173   0.240   0.806  0.00  0.00    -0.285 N 
ATOM     15  H   UNL     1      -5.010  -0.350   0.407  0.00  0.00    +0.151 HD
ENDBRANCH   1  11
BRANCH   1  16
ATOM     16  C   UNL     1      -0.013   1.537   0.606  0.00  0.00    +0.231 C 
ATOM     17  O   UNL     1      -0.082   0.333   0.737  0.00  0.00    -0.274 OA
ATOM     18  N   UNL     1       1.161   2.114   0.282  0.00  0.00    -0.312 N 
ATOM     19  H   UNL     1       1.223   3.205   0.164  0.00  0.00    +0.149 HD
BRANCH  18  20
ATOM     20  C   UNL     1       2.354   1.287   0.087  0.00  0.00    +0.126 C 
BRANCH  20  21
ATOM     21  C   UNL     1       3.567   2.189  -0.146  0.00  0.00    +0.032 C 
ATOM     22  C   UNL     1       3.850   3.000   1.120  0.00  0.00    +0.029 C 
ATOM     23  C   UNL     1       4.786   1.328  -0.483  0.00  0.00    +0.029 C 
BRANCH  21  24
ATOM     24  N   UNL     1       3.290   3.104  -1.262  0.00  0.00    -0.291 NA
ATOM     25  C   UNL     1       2.960   2.358  -2.485  0.00  0.00    +0.113 C 
ATOM     26  C   UNL     1       2.621   3.347  -3.603  0.00  0.00    +0.175 C 
ATOM     27  O   UNL     1       3.723   4.240  -3.793  0.00  0.00    -0.377 OA
ATOM     28  C   UNL     1       4.071   4.983  -2.622  0.00  0.00    +0.175 C 
ATOM     29  C   UNL     1       4.424   4.010  -1.494  0.00  0.00    +0.113 C 
ENDBRANCH  21  24
ENDBRANCH  20  21
ENDBRANCH  18  20
ENDBRANCH   1  16
TORSDOF 5
