REMARK  Name = ZINC12483486
REMARK  8 active torsions:
REMARK  status: ('A' for Active; 'I' for Inactive)
REMARK    1  A    between atoms: C_1  and  C_2
REMARK    2  A    between atoms: C_7  and  O_8
REMARK    3  A    between atoms: O_8  and  C_9
REMARK    4  A    between atoms: C_9  and  C_10
REMARK    5  A    between atoms: N_12  and  N_13
REMARK    6  A    between atoms: C_14  and  C_15
REMARK    7  A    between atoms: C_14  and  C_16
REMARK    8  A    between atoms: C_20  and  N_22
REMARK                            x       y       z     vdW  Elec       q    Type
REMARK                         _______ _______ _______ _____ _____    ______ ____
ROOT
ATOM      1  C   UNL     1      -3.562   5.908  -0.235  0.00  0.00    +0.270 C 
ATOM      2  O   UNL     1      -3.563   7.108  -0.410  0.00  0.00    -0.270 OA
ATOM      3  N   UNL     1      -2.398   5.255  -0.046  0.00  0.00    -0.204 N 
ATOM      4  H   UNL     1      -2.397   4.295   0.094  0.00  0.00    +0.177 HD
ENDROOT
BRANCH   3   5
ATOM      5  N   UNL     1      -1.189   5.963  -0.053  0.00  0.00    -0.184 NA
ATOM      6  C   UNL     1      -0.081   5.357   0.242  0.00  0.00    +0.063 C 
ATOM      7  C   UNL     1       1.236   6.069   0.070  0.00  0.00    +0.068 C 
BRANCH   6   8
ATOM      8  C   UNL     1      -0.109   3.971   0.746  0.00  0.00    -0.001 A 
ATOM      9  C   UNL     1       0.904   3.076   0.394  0.00  0.00    +0.010 A 
ATOM     10  C   UNL     1       0.874   1.780   0.867  0.00  0.00    +0.002 A 
ATOM     11  C   UNL     1      -0.155   1.363   1.691  0.00  0.00    +0.023 A 
ATOM     12  C   UNL     1      -1.170   2.244   2.043  0.00  0.00    +0.025 A 
ATOM     13  C   UNL     1      -1.148   3.550   1.577  0.00  0.00    +0.032 A 
BRANCH  12  14
ATOM     14  N   UNL     1      -2.211   1.815   2.871  0.00  0.00    -0.358 N 
ATOM     15  H   UNL     1      -2.225   0.903   3.200  0.00  0.00    +0.142 HD
ATOM     16  H   UNL     1      -2.920   2.430   3.117  0.00  0.00    +0.142 HD
ENDBRANCH  12  14
ENDBRANCH   6   8
ENDBRANCH   3   5
BRANCH   1  17
ATOM     17  C   UNL     1      -4.862   5.146  -0.228  0.00  0.00    +0.326 C 
BRANCH  17  18
ATOM     18  O   UNL     1      -5.946   6.051  -0.447  0.00  0.00    -0.481 OA
BRANCH  18  25
ATOM     19  C   UNL     1      -7.342   5.904   2.004  0.00  0.00    +0.047 C 
ATOM     20  C   UNL     1      -7.932   5.424   0.703  0.00  0.00    -0.007 A 
ATOM     21  C   UNL     1      -9.204   4.886   0.677  0.00  0.00    +0.022 A 
ATOM     22  C   UNL     1      -9.746   4.444  -0.516  0.00  0.00    +0.019 A 
ATOM     23  C   UNL     1      -9.016   4.541  -1.688  0.00  0.00    +0.034 A 
ATOM     24  C   UNL     1      -7.745   5.083  -1.668  0.00  0.00    +0.061 A 
ATOM     25  C   UNL     1      -7.198   5.522  -0.470  0.00  0.00    +0.138 A 
ATOM     26 BR   UNL     1      -6.750   5.221  -3.270  0.00  0.00    -0.046 Br
ATOM     27 BR   UNL     1     -11.488   3.708  -0.547  0.00  0.00    -0.050 Br
ENDBRANCH  18  25
ENDBRANCH  17  18
ENDBRANCH   1  17
TORSDOF 6
