REMARK  Name = ZINC48861796
REMARK  5 active torsions:
REMARK  status: ('A' for Active; 'I' for Inactive)
REMARK    1  A    between atoms: C_2  and  N_20
REMARK    2  A    between atoms: C_6  and  S_7
REMARK    3  A    between atoms: S_7  and  N_10
REMARK    4  A    between atoms: C_14  and  C_16
REMARK    5  A    between atoms: C_16  and  O_17
REMARK                            x       y       z     vdW  Elec       q    Type
REMARK                         _______ _______ _______ _____ _____    ______ ____
ROOT
ATOM      1  C   UNL     1      -2.875  -2.170   2.227  0.00  0.00    +0.054 A 
ATOM      2  C   UNL     1      -4.015  -2.540   2.928  0.00  0.00    +0.028 A 
ATOM      3  C   UNL     1      -5.270  -2.211   2.434  0.00  0.00    +0.045 A 
ATOM      4  C   UNL     1      -5.382  -1.516   1.244  0.00  0.00    +0.080 A 
ATOM      5  C   UNL     1      -4.243  -1.148   0.546  0.00  0.00    +0.168 A 
ATOM      6  C   UNL     1      -2.991  -1.476   1.038  0.00  0.00    +0.144 A 
ATOM      7  F   UNL     1      -4.354  -0.468  -0.616  0.00  0.00    -0.202 F 
ATOM      8 CL   UNL     1      -6.950  -1.104   0.624  0.00  0.00    -0.080 Cl
ENDROOT
BRANCH   6   9
ATOM      9  S   UNL     1      -1.545  -1.006   0.148  0.00  0.00    +0.064 S 
ATOM     10  O   UNL     1      -1.700   0.367  -0.183  0.00  0.00    -0.153 OA
ATOM     11  O   UNL     1      -0.435  -1.490   0.892  0.00  0.00    -0.153 OA
BRANCH   9  12
ATOM     12  N   UNL     1      -1.556  -1.842  -1.281  0.00  0.00    -0.171 NA
ATOM     13  C   UNL     1      -2.065  -1.335  -2.569  0.00  0.00    +0.110 C 
ATOM     14  C   UNL     1      -2.430  -2.604  -3.378  0.00  0.00    +0.019 C 
ATOM     15  C   UNL     1      -1.300  -3.579  -2.957  0.00  0.00    +0.024 C 
ATOM     16  C   UNL     1      -1.056  -3.210  -1.478  0.00  0.00    +0.105 C 
BRANCH  16  17
ATOM     17  C   UNL     1       0.440  -3.267  -1.164  0.00  0.00    +0.176 C 
BRANCH  17  18
ATOM     18  O   UNL     1       1.152  -2.442  -2.089  0.00  0.00    -0.393 OA
ATOM     19  H   UNL     1       2.109  -2.430  -1.949  0.00  0.00    +0.209 HD
ENDBRANCH  17  18
ENDBRANCH  16  17
ENDBRANCH   9  12
ENDBRANCH   6   9
BRANCH   2  20
ATOM     20  N   UNL     1      -3.899  -3.244   4.131  0.00  0.00    -0.358 N 
ATOM     21  H   UNL     1      -3.022  -3.474   4.476  0.00  0.00    +0.142 HD
ATOM     22  H   UNL     1      -4.696  -3.502   4.620  0.00  0.00    +0.142 HD
ENDBRANCH   2  20
TORSDOF 5
