REMARK  Name = ZINC59464799
REMARK  1 active torsions:
REMARK  status: ('A' for Active; 'I' for Inactive)
REMARK    1  A    between atoms: C_5  and  C_7
REMARK                            x       y       z     vdW  Elec       q    Type
REMARK                         _______ _______ _______ _____ _____    ______ ____
ROOT
ATOM      1  C   UNL     1       1.229  -2.186  -0.022  0.00  0.00    +0.192 C 
ATOM      2  N   UNL     1      -0.100  -2.741  -0.451  0.00  0.00    -0.197 N 
ATOM      3  C   UNL     1      -0.044  -3.490  -1.614  0.00  0.00    +0.100 C 
ATOM      4  C   UNL     1       1.102  -3.694  -2.289  0.00  0.00    +0.075 C 
ATOM      5  S   UNL     1       2.331  -2.822  -1.341  0.00  0.00    -0.101 S 
ATOM      6  S   UNL     1      -1.757  -3.982  -1.827  0.00  0.00    -0.036 S 
ATOM      7  C   UNL     1      -2.420  -3.175  -0.384  0.00  0.00    +0.175 C 
ATOM      8  N   UNL     1      -1.373  -2.622   0.133  0.00  0.00    -0.155 NA
ATOM      9  N   UNL     1      -3.732  -3.148   0.072  0.00  0.00    -0.336 N 
ATOM     10  H   UNL     1      -4.426  -3.614  -0.421  0.00  0.00    +0.144 HD
ATOM     11  H   UNL     1      -3.954  -2.664   0.882  0.00  0.00    +0.144 HD
ENDROOT
BRANCH   1  16
ATOM     12  C   UNL     1      -0.017   1.378   0.010  0.00  0.00    +0.000 A 
ATOM     13  C   UNL     1       1.171   2.086   0.002  0.00  0.00    +0.001 A 
ATOM     14  C   UNL     1       2.377   1.412  -0.013  0.00  0.00    +0.020 A 
ATOM     15  C   UNL     1       2.397   0.029  -0.021  0.00  0.00    +0.047 A 
ATOM     16  C   UNL     1       1.208  -0.679  -0.013  0.00  0.00    +0.003 A 
ATOM     17  C   UNL     1       0.002  -0.004   0.002  0.00  0.00    +0.008 A 
ATOM     18 CL   UNL     1       3.912  -0.818  -0.041  0.00  0.00    -0.083 Cl
ENDBRANCH   1  16
TORSDOF 1
