REMARK  Name = ZINC40347711
REMARK  8 active torsions:
REMARK  status: ('A' for Active; 'I' for Inactive)
REMARK    1  A    between atoms: C_1  and  C_2
REMARK    2  A    between atoms: C_5  and  N_21
REMARK    3  A    between atoms: C_6  and  C_20
REMARK    4  A    between atoms: C_7  and  S_8
REMARK    5  A    between atoms: S_8  and  N_11
REMARK    6  A    between atoms: N_11  and  C_12
REMARK    7  A    between atoms: C_12  and  C_13
REMARK    8  A    between atoms: C_17  and  C_19
REMARK                            x       y       z     vdW  Elec       q    Type
REMARK                         _______ _______ _______ _____ _____    ______ ____
ROOT
ATOM      1  S   UNL     1       0.025   0.175   2.725  0.00  0.00    +0.059 S 
ATOM      2  O   UNL     1       0.597  -0.696   3.692  0.00  0.00    -0.153 OA
ATOM      3  O   UNL     1       0.556   1.465   2.454  0.00  0.00    -0.153 OA
ENDROOT
BRANCH   1  10
ATOM      4  C   UNL     1      -0.018   1.503   0.010  0.00  0.00    +0.046 C 
ATOM      5  C   UNL     1       0.002  -0.004   0.002  0.00  0.00    -0.024 A 
ATOM      6  C   UNL     1       0.006  -0.687  -1.200  0.00  0.00    +0.007 A 
ATOM      7  C   UNL     1       0.024  -2.068  -1.212  0.00  0.00    +0.023 A 
ATOM      8  C   UNL     1       0.040  -2.771  -0.013  0.00  0.00    +0.029 A 
ATOM      9  C   UNL     1       0.036  -2.081   1.192  0.00  0.00    -0.003 A 
ATOM     10  C   UNL     1       0.023  -0.700   1.196  0.00  0.00    +0.113 A 
ATOM     11  C   UNL     1       0.052  -2.839   2.495  0.00  0.00    +0.048 C 
BRANCH   8  12
ATOM     12  N   UNL     1       0.058  -4.167  -0.021  0.00  0.00    -0.358 N 
ATOM     13  H   UNL     1       0.060  -4.648  -0.864  0.00  0.00    +0.142 HD
ATOM     14  H   UNL     1       0.069  -4.657   0.816  0.00  0.00    +0.142 HD
ENDBRANCH   8  12
ENDBRANCH   1  10
BRANCH   1  15
ATOM     15  N   UNL     1      -1.556   0.397   3.165  0.00  0.00    -0.184 NA
ATOM     16  H   UNL     1      -1.926   1.293   3.209  0.00  0.00    +0.148 HD
BRANCH  15  17
ATOM     17  C   UNL     1      -2.395  -0.759   3.488  0.00  0.00    +0.161 C 
BRANCH  17  18
ATOM     18  C   UNL     1      -3.640  -0.293   4.198  0.00  0.00    +0.060 A 
ATOM     19  C   UNL     1      -4.811  -0.069   3.489  0.00  0.00    +0.044 A 
ATOM     20  C   UNL     1      -5.930   0.359   4.184  0.00  0.00    +0.114 A 
ATOM     21  N   UNL     1      -5.846   0.538   5.493  0.00  0.00    -0.241 NA
ATOM     22  C   UNL     1      -4.716   0.315   6.134  0.00  0.00    +0.126 A 
ATOM     23  N   UNL     1      -3.633  -0.097   5.506  0.00  0.00    -0.236 NA
ATOM     24  C   UNL     1      -4.663   0.533   7.624  0.00  0.00    +0.088 C 
ENDBRANCH  17  18
ENDBRANCH  15  17
ENDBRANCH   1  15
TORSDOF 5
