REMARK  Name = ZINC40824362
REMARK  4 active torsions:
REMARK  status: ('A' for Active; 'I' for Inactive)
REMARK    1  A    between atoms: C_1  and  C_2
REMARK    2  A    between atoms: C_6  and  C_7
REMARK    3  A    between atoms: N_9  and  C_10
REMARK    4  A    between atoms: N_24  and  N_25
REMARK                            x       y       z     vdW  Elec       q    Type
REMARK                         _______ _______ _______ _____ _____    ______ ____
ROOT
ATOM      1  C   UNL     1      -0.009   1.502   0.010  0.00  0.00    +0.048 C 
ATOM      2  C   UNL     1       0.019  -0.004   0.002  0.00  0.00    +0.009 A 
ATOM      3  C   UNL     1       0.037  -0.838  -1.123  0.00  0.00    +0.042 A 
ATOM      4  C   UNL     1       0.059  -2.137  -0.673  0.00  0.00    +0.115 A 
ATOM      5  O   UNL     1       0.058  -2.112   0.658  0.00  0.00    -0.454 OA
ATOM      6  C   UNL     1       0.038  -0.831   1.091  0.00  0.00    +0.193 A 
ATOM      7  C   UNL     1       0.077  -3.326  -1.600  0.00  0.00    +0.075 C 
ATOM      8  C   UNL     1      -0.440  -2.905  -2.978  0.00  0.00    +0.014 C 
ATOM      9  C   UNL     1       0.328  -1.684  -3.493  0.00  0.00    +0.058 C 
ATOM     10  C   UNL     1       0.037  -0.512  -2.566  0.00  0.00    +0.070 C 
ATOM     11  N   UNL     1      -0.194   0.685  -3.009  0.00  0.00    -0.183 NA
ENDROOT
BRANCH  11  12
ATOM     12  N   UNL     1      -0.181   0.936  -4.388  0.00  0.00    -0.191 N 
ATOM     13  C   UNL     1      -0.421   2.180  -4.848  0.00  0.00    +0.317 C 
ATOM     14  O   UNL     1      -0.410   2.399  -6.044  0.00  0.00    -0.251 OA
ATOM     15  N   UNL     1      -0.673   3.182  -3.982  0.00  0.00    -0.312 N 
ATOM     16  H   UNL     1       0.001   0.215  -5.011  0.00  0.00    +0.179 HD
ATOM     17  H   UNL     1      -0.682   3.008  -3.028  0.00  0.00    +0.147 HD
ATOM     18  H   UNL     1      -0.846   4.077  -4.313  0.00  0.00    +0.147 HD
ENDBRANCH  11  12
BRANCH   6  19
ATOM     19  C   UNL     1       0.034  -0.400   2.493  0.00  0.00    +0.284 C 
ATOM     20  O   UNL     1       0.013   0.786   2.765  0.00  0.00    -0.266 OA
ATOM     21  N   UNL     1       0.054  -1.318   3.480  0.00  0.00    -0.278 N 
ATOM     22  H   UNL     1      -0.010  -2.262   3.266  0.00  0.00    +0.155 HD
BRANCH  21  23
ATOM     23  C   UNL     1       0.167  -0.910   4.809  0.00  0.00    +0.042 A 
ATOM     24  C   UNL     1       0.754   0.298   5.119  0.00  0.00    +0.024 A 
ATOM     25  C   UNL     1       0.872   0.714   6.442  0.00  0.00    +0.002 A 
ATOM     26  C   UNL     1       0.412  -0.058   7.465  0.00  0.00    +0.008 A 
ATOM     27  C   UNL     1      -0.194  -1.297   7.192  0.00  0.00    -0.016 A 
ATOM     28  C   UNL     1      -0.324  -1.728   5.849  0.00  0.00    +0.003 A 
ATOM     29  C   UNL     1      -0.933  -2.964   5.578  0.00  0.00    +0.010 A 
ATOM     30  C   UNL     1      -1.395  -3.728   6.606  0.00  0.00    +0.001 A 
ATOM     31  C   UNL     1      -1.272  -3.301   7.927  0.00  0.00    +0.001 A 
ATOM     32  C   UNL     1      -0.678  -2.114   8.228  0.00  0.00    +0.008 A 
ENDBRANCH  21  23
ENDBRANCH   6  19
TORSDOF 3
