REMARK  Name = ZINC20732388
REMARK  3 active torsions:
REMARK  status: ('A' for Active; 'I' for Inactive)
REMARK    1  A    between atoms: C_1  and  S_2
REMARK    2  A    between atoms: S_2  and  C_3
REMARK    3  A    between atoms: C_6  and  C_9
REMARK                            x       y       z     vdW  Elec       q    Type
REMARK                         _______ _______ _______ _____ _____    ______ ____
ROOT
ATOM      1  C   UNL     1       2.901  -1.397  -5.106  0.00  0.00    +0.063 C 
ATOM      2  C   UNL     1       1.988  -2.235  -6.005  0.00  0.00    +0.109 C 
ATOM      3  C   UNL     1       1.868  -3.648  -5.519  0.00  0.00    +0.219 C 
ATOM      4  O   UNL     1       0.794  -4.204  -5.612  0.00  0.00    -0.275 OA
ATOM      5  N   UNL     1       2.903  -4.329  -4.982  0.00  0.00    -0.269 N 
ATOM      6  C   UNL     1       4.093  -3.626  -4.739  0.00  0.00    +0.150 A 
ATOM      7  C   UNL     1       4.130  -2.211  -4.787  0.00  0.00    +0.020 A 
ATOM      8  C   UNL     1       5.381  -1.818  -4.513  0.00  0.00    +0.111 A 
ATOM      9  N   UNL     1       6.123  -2.930  -4.299  0.00  0.00    -0.283 N 
ATOM     10  H   UNL     1       7.068  -2.950  -4.081  0.00  0.00    +0.188 HD
ATOM     11  N   UNL     1       5.287  -4.051  -4.450  0.00  0.00    -0.158 NA
ATOM     12  H   UNL     1       2.826  -5.272  -4.770  0.00  0.00    +0.156 HD
ENDROOT
BRANCH   1  16
ATOM     13  C   UNL     1       0.848  -0.411  -1.489  0.00  0.00    +0.008 A 
ATOM     14  C   UNL     1       1.315   0.599  -2.322  0.00  0.00    +0.015 A 
ATOM     15  C   UNL     1       1.978   0.276  -3.490  0.00  0.00    +0.005 A 
ATOM     16  C   UNL     1       2.178  -1.049  -3.830  0.00  0.00    -0.039 A 
ATOM     17  C   UNL     1       1.714  -2.056  -3.004  0.00  0.00    +0.005 A 
ATOM     18  C   UNL     1       1.056  -1.742  -1.831  0.00  0.00    +0.015 A 
BRANCH  13  20
ATOM     19  C   UNL     1      -0.022   1.810   0.012  0.00  0.00    +0.090 C 
ATOM     20  S   UNL     1       0.002  -0.004   0.002  0.00  0.00    -0.129 S 
ENDBRANCH  13  20
ENDBRANCH   1  16
TORSDOF 2
