REMARK  Name = ZINC20751519
REMARK  5 active torsions:
REMARK  status: ('A' for Active; 'I' for Inactive)
REMARK    1  A    between atoms: C_1  and  C_2
REMARK    2  A    between atoms: N_4  and  C_5
REMARK    3  A    between atoms: N_4  and  C_6
REMARK    4  A    between atoms: C_19  and  C_22
REMARK    5  A    between atoms: C_31  and  O_32
REMARK                            x       y       z     vdW  Elec       q    Type
REMARK                         _______ _______ _______ _____ _____    ______ ____
ROOT
ATOM      1  C   UNL     1       2.404   0.034  -0.000  0.00  0.00    +0.036 A 
ATOM      2  C   UNL     1       2.401   1.423   0.044  0.00  0.00    +0.025 A 
ATOM      3  C   UNL     1       1.206   2.111   0.044  0.00  0.00    +0.025 A 
ATOM      4  C   UNL     1      -0.002   1.425  -0.000  0.00  0.00    +0.031 A 
ATOM      5  C   UNL     1       0.006   0.027  -0.059  0.00  0.00    -0.018 A 
ATOM      6  C   UNL     1       1.202  -0.658  -0.052  0.00  0.00    +0.029 A 
ATOM      7  C   UNL     1      -1.300  -0.659  -0.149  0.00  0.00    +0.049 C 
ATOM      8  C   UNL     1      -1.495  -2.046   0.348  0.00  0.00    -0.023 C 
ATOM      9  C   UNL     1      -2.737  -2.189   0.760  0.00  0.00    -0.030 C 
ATOM     10  C   UNL     1      -3.481  -0.858   0.633  0.00  0.00    +0.033 C 
ATOM     11  C   UNL     1      -2.325   0.150   0.700  0.00  0.00    +0.029 C 
ATOM     12  C   UNL     1      -2.512   1.465  -0.034  0.00  0.00    +0.109 C 
ATOM     13  N   UNL     1      -1.202   2.150   0.035  0.00  0.00    -0.336 N 
ATOM     14  H   UNL     1      -1.158   3.246   0.116  0.00  0.00    +0.147 HD
ENDROOT
BRANCH  12  15
ATOM     15  C   UNL     1      -3.570   2.296   0.646  0.00  0.00    +0.022 A 
ATOM     16  C   UNL     1      -4.847   2.418   0.075  0.00  0.00    -0.009 A 
ATOM     17  C   UNL     1      -5.170   1.776  -1.133  0.00  0.00    +0.009 A 
ATOM     18  C   UNL     1      -6.417   1.917  -1.658  0.00  0.00    +0.001 A 
ATOM     19  C   UNL     1      -7.383   2.689  -1.015  0.00  0.00    +0.001 A 
ATOM     20  C   UNL     1      -7.107   3.325   0.156  0.00  0.00    +0.008 A 
ATOM     21  C   UNL     1      -5.829   3.203   0.729  0.00  0.00    -0.017 A 
ATOM     22  C   UNL     1      -5.508   3.846   1.937  0.00  0.00    +0.012 A 
ATOM     23  C   UNL     1      -4.263   3.708   2.464  0.00  0.00    +0.046 A 
ATOM     24  C   UNL     1      -3.293   2.929   1.824  0.00  0.00    +0.122 A 
BRANCH  24  25
ATOM     25  O   UNL     1      -2.059   2.806   2.378  0.00  0.00    -0.506 OA
ATOM     26  H   UNL     1      -1.829   3.313   3.327  0.00  0.00    +0.292 HD
ENDBRANCH  24  25
ENDBRANCH  12  15
BRANCH   1  30
ATOM     27  C   UNL     1       6.082  -0.753  -0.198  0.00  0.00    +0.109 C 
ATOM     28  C   UNL     1       4.784   0.005  -0.091  0.00  0.00    +0.216 C 
ATOM     29  O   UNL     1       4.787   1.218  -0.091  0.00  0.00    -0.276 OA
ATOM     30  N   UNL     1       3.618  -0.666   0.006  0.00  0.00    -0.275 N 
ATOM     31  C   UNL     1       3.621  -2.126   0.118  0.00  0.00    +0.138 C 
ENDBRANCH   1  30
TORSDOF 3
