REMARK  Name = ZINC09712646
REMARK  5 active torsions:
REMARK  status: ('A' for Active; 'I' for Inactive)
REMARK    1  A    between atoms: C_1  and  C_2
REMARK    2  A    between atoms: C_7  and  N_8
REMARK    3  A    between atoms: C_11  and  C_16
REMARK    4  A    between atoms: C_16  and  N_52
REMARK    5  A    between atoms: C_24  and  C_26
REMARK                            x       y       z     vdW  Elec       q    Type
REMARK                         _______ _______ _______ _____ _____    ______ ____
ROOT
ATOM      1  N   UNL     1      -5.672   1.970  -5.048  0.00  0.00    -0.283 N 
ATOM      2  C   UNL     1      -4.651   1.295  -4.409  0.00  0.00    +0.224 A 
ATOM      3  N   UNL     1      -3.751   1.970  -3.696  0.00  0.00    -0.201 NA
ATOM      4  C   UNL     1      -2.773   1.325  -3.084  0.00  0.00    +0.120 A 
ATOM      5  N   UNL     1      -2.681   0.011  -3.181  0.00  0.00    -0.202 NA
ATOM      6  C   UNL     1      -3.579  -0.671  -3.888  0.00  0.00    +0.217 A 
ATOM      7  N   UNL     1      -4.564  -0.027  -4.505  0.00  0.00    -0.181 NA
ATOM      8  N   UNL     1      -3.485  -2.044  -3.984  0.00  0.00    -0.327 N 
ATOM      9  H   UNL     1      -5.786   2.923  -4.910  0.00  0.00    +0.155 HD
ATOM     10  H   UNL     1      -4.138  -2.540  -4.503  0.00  0.00    +0.145 HD
ATOM     11  H   UNL     1      -2.766  -2.514  -3.534  0.00  0.00    +0.145 HD
ENDROOT
BRANCH   1  18
ATOM     12  C   UNL     1      -8.269   3.051  -5.477  0.00  0.00    +0.045 C 
ATOM     13  C   UNL     1      -7.821   1.770  -6.133  0.00  0.00    -0.029 A 
ATOM     14  C   UNL     1      -8.679   1.084  -6.970  0.00  0.00    +0.005 A 
ATOM     15  C   UNL     1      -8.268  -0.090  -7.572  0.00  0.00    +0.000 A 
ATOM     16  C   UNL     1      -6.997  -0.583  -7.338  0.00  0.00    +0.002 A 
ATOM     17  C   UNL     1      -6.132   0.101  -6.507  0.00  0.00    +0.023 A 
ATOM     18  C   UNL     1      -6.544   1.278  -5.896  0.00  0.00    +0.036 A 
ENDBRANCH   1  18
BRANCH   4  19
ATOM     19  C   UNL     1      -1.756   2.093  -2.279  0.00  0.00    +0.000 C 
BRANCH  19  28
ATOM     20  C   UNL     1      -3.450   3.009  -0.805  0.00  0.00    -0.072 C 
ATOM     21  C   UNL     1      -4.110   2.767   0.563  0.00  0.00    +0.024 C 
ATOM     22  C   UNL     1      -3.045   2.868   1.606  0.00  0.00    -0.010 A 
ATOM     23  C   UNL     1      -1.699   2.862   1.397  0.00  0.00    -0.046 A 
ATOM     24  C   UNL     1      -0.893   2.972   2.529  0.00  0.00    +0.010 A 
ATOM     25  C   UNL     1      -1.458   3.076   3.754  0.00  0.00    +0.045 A 
ATOM     26  S   UNL     1      -3.201   3.024   3.362  0.00  0.00    -0.101 S 
ATOM     27  C   UNL     1      -1.157   2.738  -0.024  0.00  0.00    +0.001 C 
ATOM     28  N   UNL     1      -2.225   2.174  -0.881  0.00  0.00    +0.392 N 
ATOM     29  H   UNL     1      -2.450   1.228  -0.550  0.00  0.00    -0.080 HD
BRANCH  27  30
ATOM     30  C   UNL     1       0.021   1.798  -0.036  0.00  0.00    -0.019 A 
ATOM     31  C   UNL     1       1.345   2.089  -0.061  0.00  0.00    +0.010 A 
ATOM     32  C   UNL     1       2.259   1.053  -0.074  0.00  0.00    +0.008 A 
ATOM     33  C   UNL     1       1.804  -0.224  -0.060  0.00  0.00    +0.045 A 
ATOM     34  S   UNL     1       0.035   0.013  -0.029  0.00  0.00    -0.103 S 
ENDBRANCH  27  30
ENDBRANCH  19  28
ENDBRANCH   4  19
TORSDOF 4
