REMARK  Name = ZINC37270433
REMARK  7 active torsions:
REMARK  status: ('A' for Active; 'I' for Inactive)
REMARK    1  A    between atoms: C_1  and  N_2
REMARK    2  A    between atoms: C_3  and  C_5
REMARK    3  A    between atoms: C_5  and  N_6
REMARK    4  A    between atoms: N_6  and  C_7
REMARK    5  A    between atoms: N_6  and  S_8
REMARK    6  A    between atoms: S_8  and  C_11
REMARK    7  A    between atoms: C_13  and  N_19
REMARK                            x       y       z     vdW  Elec       q    Type
REMARK                         _______ _______ _______ _____ _____    ______ ____
ROOT
ATOM      1  S   UNL     1       0.416  -3.042  -3.580  0.00  0.00    +0.064 S 
ATOM      2  O   UNL     1       1.213  -3.950  -4.328  0.00  0.00    -0.153 OA
ATOM      3  O   UNL     1      -0.893  -3.368  -3.133  0.00  0.00    -0.153 OA
ENDROOT
BRANCH   1   4
ATOM      4  C   UNL     1       0.266  -1.582  -4.554  0.00  0.00    +0.142 A 
ATOM      5  C   UNL     1       0.854  -1.522  -5.804  0.00  0.00    +0.057 A 
ATOM      6  C   UNL     1       0.736  -0.372  -6.571  0.00  0.00    +0.062 A 
ATOM      7  C   UNL     1       0.027   0.719  -6.081  0.00  0.00    +0.147 A 
ATOM      8  C   UNL     1      -0.559   0.654  -4.830  0.00  0.00    +0.080 A 
ATOM      9  C   UNL     1      -0.444  -0.497  -4.069  0.00  0.00    +0.152 A 
ATOM     10  F   UNL     1      -1.023  -0.561  -2.850  0.00  0.00    -0.203 F 
ATOM     11  F   UNL     1      -0.089   1.840  -6.825  0.00  0.00    -0.203 F 
BRANCH   6  12
ATOM     12  N   UNL     1       1.331  -0.310  -7.837  0.00  0.00    -0.356 N 
ATOM     13  H   UNL     1       1.826  -1.071  -8.178  0.00  0.00    +0.142 HD
ATOM     14  H   UNL     1       1.248   0.494  -8.373  0.00  0.00    +0.142 HD
ENDBRANCH   6  12
ENDBRANCH   1   4
BRANCH   1  15
ATOM     15  N   UNL     1       1.291  -2.644  -2.232  0.00  0.00    -0.171 NA
ATOM     16  C   UNL     1       2.751  -2.764  -2.244  0.00  0.00    +0.132 C 
BRANCH  15  17
ATOM     17  C   UNL     1       0.606  -2.171  -1.026  0.00  0.00    +0.204 C 
BRANCH  17  20
ATOM     18  C   UNL     1      -0.018   1.461   0.010  0.00  0.00    +0.128 C 
ATOM     19  N   UNL     1       0.002  -0.004   0.002  0.00  0.00    -0.317 N 
ATOM     20  C   UNL     1       0.585  -0.664  -1.018  0.00  0.00    +0.229 C 
ATOM     21  O   UNL     1       1.093  -0.046  -1.929  0.00  0.00    -0.274 OA
ATOM     22  H   UNL     1      -0.404  -0.499   0.731  0.00  0.00    +0.148 HD
ENDBRANCH  17  20
ENDBRANCH  15  17
ENDBRANCH   1  15
TORSDOF 5
