REMARK  Name = ZINC08644756
REMARK  8 active torsions:
REMARK  status: ('A' for Active; 'I' for Inactive)
REMARK    1  A    between atoms: C_1  and  C_2
REMARK    2  A    between atoms: C_2  and  N_3
REMARK    3  A    between atoms: C_7  and  C_9
REMARK    4  A    between atoms: C_9  and  C_11
REMARK    5  A    between atoms: C_9  and  S_12
REMARK    6  A    between atoms: S_12  and  C_13
REMARK    7  A    between atoms: C_16  and  C_19
REMARK    8  A    between atoms: N_17  and  N_18
REMARK                            x       y       z     vdW  Elec       q    Type
REMARK                         _______ _______ _______ _____ _____    ______ ____
ROOT
ATOM      1  C   UNL     1      -5.120   0.730   0.731  0.00  0.00    +0.209 A 
ATOM      2  N   UNL     1      -5.095  -0.493   0.251  0.00  0.00    -0.121 NA
ATOM      3  N   UNL     1      -6.256  -1.033   0.357  0.00  0.00    -0.127 NA
ATOM      4  C   UNL     1      -7.094  -0.188   0.911  0.00  0.00    +0.183 A 
ATOM      5  N   UNL     1      -6.391   0.965   1.172  0.00  0.00    -0.224 N 
ENDROOT
BRANCH   4   6
ATOM      6  C   UNL     1      -8.523  -0.432   1.203  0.00  0.00    +0.039 A 
ATOM      7  C   UNL     1      -9.481   0.522   0.859  0.00  0.00    +0.014 A 
ATOM      8  C   UNL     1     -10.813   0.287   1.129  0.00  0.00    +0.021 A 
ATOM      9  C   UNL     1     -11.199  -0.889   1.752  0.00  0.00    +0.042 A 
ATOM     10  C   UNL     1     -10.254  -1.837   2.101  0.00  0.00    +0.040 A 
ATOM     11  C   UNL     1      -8.918  -1.615   1.831  0.00  0.00    +0.053 A 
ATOM     12 CL   UNL     1      -7.732  -2.805   2.270  0.00  0.00    -0.083 Cl
ATOM     13 CL   UNL     1     -12.877  -1.174   2.096  0.00  0.00    -0.083 Cl
ENDBRANCH   4   6
BRANCH   5  14
ATOM     14  N   UNL     1      -6.866   2.108   1.750  0.00  0.00    -0.295 N 
ATOM     15  H   UNL     1      -7.302   2.706   1.064  0.00  0.00    +0.163 HD
ATOM     16  H   UNL     1      -7.505   1.895   2.502  0.00  0.00    +0.163 HD
ENDBRANCH   5  14
BRANCH   1  17
ATOM     17  S   UNL     1      -3.765   1.855   0.799  0.00  0.00    -0.072 S 
BRANCH  17  18
ATOM     18  C   UNL     1      -2.471   0.833   0.053  0.00  0.00    +0.137 C 
ATOM     19  C   UNL     1      -2.825   0.547  -1.408  0.00  0.00    +0.029 C 
BRANCH  18  24
ATOM     20  N   UNL     1       2.335   0.853  -0.062  0.00  0.00    -0.299 N 
ATOM     21  C   UNL     1       1.179   1.535   0.056  0.00  0.00    +0.306 C 
ATOM     22  O   UNL     1       1.197   2.741   0.208  0.00  0.00    -0.252 OA
ATOM     23  N   UNL     1       0.002   0.881   0.005  0.00  0.00    -0.239 N 
ATOM     24  C   UNL     1      -1.155   1.564   0.116  0.00  0.00    +0.234 C 
ATOM     25  O   UNL     1      -1.136   2.767   0.268  0.00  0.00    -0.274 OA
ATOM     26  H   UNL     1       2.320  -0.109  -0.183  0.00  0.00    +0.150 HD
ATOM     27  H   UNL     1      -0.013  -0.082  -0.117  0.00  0.00    +0.159 HD
BRANCH  20  29
ATOM     28  C   UNL     1       4.761   0.564  -0.163  0.00  0.00    +0.024 C 
ATOM     29  C   UNL     1       3.614   1.564  -0.006  0.00  0.00    +0.102 C 
ENDBRANCH  20  29
ENDBRANCH  18  24
ENDBRANCH  17  18
ENDBRANCH   1  17
TORSDOF 6
