REMARK  Name = ZINC09908934
REMARK  4 active torsions:
REMARK  status: ('A' for Active; 'I' for Inactive)
REMARK    1  A    between atoms: C_3  and  O_20
REMARK    2  A    between atoms: C_6  and  N_7
REMARK    3  A    between atoms: C_8  and  C_10
REMARK    4  A    between atoms: N_12  and  C_13
REMARK                            x       y       z     vdW  Elec       q    Type
REMARK                         _______ _______ _______ _____ _____    ______ ____
ROOT
ATOM      1  N   UNL     1       1.245  -2.131   0.303  0.00  0.00    -0.278 N 
ATOM      2  C   UNL     1       2.403  -2.763   0.025  0.00  0.00    +0.303 C 
ATOM      3  O   UNL     1       3.422  -2.121  -0.130  0.00  0.00    -0.265 OA
ATOM      4  H   UNL     1       0.447  -2.647   0.500  0.00  0.00    +0.155 HD
ENDROOT
BRANCH   1  10
ATOM      5  C   UNL     1       1.992  -0.006  -0.566  0.00  0.00    +0.027 A 
ATOM      6  C   UNL     1       1.940   1.374  -0.560  0.00  0.00    +0.047 A 
ATOM      7  C   UNL     1       1.093   2.033   0.319  0.00  0.00    +0.117 A 
ATOM      8  C   UNL     1       0.297   1.307   1.193  0.00  0.00    +0.047 A 
ATOM      9  C   UNL     1       0.346  -0.072   1.189  0.00  0.00    +0.027 A 
ATOM     10  C   UNL     1       1.194  -0.734   0.309  0.00  0.00    +0.034 A 
BRANCH   7  11
ATOM     11  O   UNL     1       1.044   3.392   0.325  0.00  0.00    -0.507 OA
ATOM     12  H   UNL     1       0.386   3.764  -0.279  0.00  0.00    +0.292 HD
ENDBRANCH   7  11
ENDBRANCH   1  10
BRANCH   2  13
ATOM     13  C   UNL     1       2.432  -4.250  -0.094  0.00  0.00    +0.303 C 
ATOM     14  O   UNL     1       1.413  -4.891   0.060  0.00  0.00    -0.265 OA
ATOM     15  N   UNL     1       3.590  -4.881  -0.373  0.00  0.00    -0.278 N 
ATOM     16  H   UNL     1       4.417  -4.377  -0.423  0.00  0.00    +0.155 HD
BRANCH  15  17
ATOM     17  C   UNL     1       3.598  -6.262  -0.591  0.00  0.00    +0.034 A 
ATOM     18  C   UNL     1       4.700  -7.019  -0.213  0.00  0.00    +0.025 A 
ATOM     19  C   UNL     1       4.704  -8.383  -0.424  0.00  0.00    +0.022 A 
ATOM     20  C   UNL     1       3.616  -8.995  -1.022  0.00  0.00    +0.041 A 
ATOM     21  C   UNL     1       2.519  -8.243  -1.404  0.00  0.00    +0.022 A 
ATOM     22  C   UNL     1       2.507  -6.879  -1.190  0.00  0.00    +0.025 A 
ATOM     23 CL   UNL     1       3.626 -10.710  -1.291  0.00  0.00    -0.084 Cl
ENDBRANCH  15  17
ENDBRANCH   2  13
TORSDOF 4
