REMARK  Name = ZINC61122017
REMARK  3 active torsions:
REMARK  status: ('A' for Active; 'I' for Inactive)
REMARK    1  A    between atoms: C_6  and  N_7
REMARK    2  A    between atoms: C_11  and  C_13
REMARK    3  A    between atoms: C_13  and  C_14
REMARK                            x       y       z     vdW  Elec       q    Type
REMARK                         _______ _______ _______ _____ _____    ______ ____
ROOT
ATOM      1  N   UNL     1      -1.200  -0.722   0.010  0.00  0.00    -0.267 N 
ATOM      2  C   UNL     1      -2.374  -0.069   0.127  0.00  0.00    +0.310 C 
ATOM      3  O   UNL     1      -2.396   1.146   0.134  0.00  0.00    -0.252 OA
ATOM      4  N   UNL     1      -3.524  -0.764   0.236  0.00  0.00    -0.240 N 
ATOM      5  C   UNL     1      -4.697  -0.112   0.353  0.00  0.00    +0.222 C 
ATOM      6  O   UNL     1      -4.719   1.100   0.360  0.00  0.00    -0.275 OA
ATOM      7  H   UNL     1      -1.189  -1.688  -0.078  0.00  0.00    +0.156 HD
ATOM      8  H   UNL     1      -3.506  -1.734   0.231  0.00  0.00    +0.159 HD
ENDROOT
BRANCH   1  14
ATOM      9  C   UNL     1       0.069   1.237   0.630  0.00  0.00    +0.064 A 
ATOM     10  C   UNL     1       1.259   1.944   0.635  0.00  0.00    +0.128 A 
ATOM     11  C   UNL     1       2.383   1.413   0.027  0.00  0.00    +0.079 A 
ATOM     12  C   UNL     1       2.321   0.174  -0.588  0.00  0.00    +0.163 A 
ATOM     13  C   UNL     1       1.133  -0.537  -0.596  0.00  0.00    +0.180 A 
ATOM     14  C   UNL     1       0.003  -0.005   0.015  0.00  0.00    +0.076 A 
ATOM     15  F   UNL     1       1.071  -1.746  -1.196  0.00  0.00    -0.201 F 
ATOM     16  F   UNL     1       3.420  -0.342  -1.182  0.00  0.00    -0.202 F 
ATOM     17  F   UNL     1       1.323   3.153   1.234  0.00  0.00    -0.205 F 
ENDBRANCH   1  14
BRANCH   5  18
ATOM     18  C   UNL     1      -5.982  -0.889   0.475  0.00  0.00    +0.112 C 
BRANCH  18  19
ATOM     19  C   UNL     1      -7.157   0.084   0.594  0.00  0.00    +0.118 C 
ATOM     20 CL   UNL     1      -8.695  -0.846   0.740  0.00  0.00    -0.125 Cl
ENDBRANCH  18  19
ENDBRANCH   5  18
TORSDOF 3
