REMARK  Name = ZINC43669070
REMARK  8 active torsions:
REMARK  status: ('A' for Active; 'I' for Inactive)
REMARK    1  A    between atoms: C_1  and  C_2
REMARK    2  A    between atoms: C_2  and  C_4
REMARK    3  A    between atoms: C_2  and  N_12
REMARK    4  A    between atoms: N_15  and  C_16
REMARK    5  A    between atoms: C_18  and  N_24
REMARK    6  A    between atoms: C_21  and  O_22
REMARK    7  A    between atoms: O_22  and  C_23
REMARK    8  A    between atoms: C_25  and  C_27
REMARK                            x       y       z     vdW  Elec       q    Type
REMARK                         _______ _______ _______ _____ _____    ______ ____
ROOT
ATOM      1  N   UNL     1      -1.392  -0.581   0.031  0.00  0.00    -0.293 N 
ATOM      2  C   UNL     1      -2.066  -0.688  -1.131  0.00  0.00    +0.304 C 
ATOM      3  O   UNL     1      -1.520  -0.397  -2.179  0.00  0.00    -0.252 OA
ATOM      4  N   UNL     1      -3.344  -1.116  -1.133  0.00  0.00    -0.266 N 
ATOM      5  H   UNL     1      -1.827  -0.813   0.867  0.00  0.00    +0.151 HD
ATOM      6  H   UNL     1      -3.757  -1.412  -0.307  0.00  0.00    +0.156 HD
ENDROOT
BRANCH   4   7
ATOM      7  C   UNL     1      -4.075  -1.135  -2.328  0.00  0.00    +0.079 A 
ATOM      8  C   UNL     1      -3.441  -1.428  -3.526  0.00  0.00    +0.050 A 
ATOM      9  C   UNL     1      -4.168  -1.446  -4.708  0.00  0.00    +0.035 A 
ATOM     10  C   UNL     1      -5.528  -1.170  -4.691  0.00  0.00    +0.027 A 
ATOM     11  C   UNL     1      -6.161  -0.877  -3.498  0.00  0.00    +0.049 A 
ATOM     12  C   UNL     1      -5.441  -0.864  -2.314  0.00  0.00    +0.141 A 
BRANCH   9  13
ATOM     13  N   UNL     1      -3.528  -1.742  -5.919  0.00  0.00    -0.286 N 
ATOM     14  C   UNL     1      -4.231  -2.270  -6.941  0.00  0.00    +0.214 C 
ATOM     15  O   UNL     1      -5.391  -2.587  -6.779  0.00  0.00    -0.276 OA
ATOM     16  C   UNL     1      -3.576  -2.466  -8.284  0.00  0.00    +0.109 C 
ATOM     17  H   UNL     1      -2.580  -1.568  -6.022  0.00  0.00    +0.155 HD
ENDBRANCH   9  13
BRANCH  12  18
ATOM     18  O   UNL     1      -6.067  -0.581  -1.140  0.00  0.00    -0.493 OA
ATOM     19  C   UNL     1      -7.469  -0.314  -1.200  0.00  0.00    +0.277 C 
ENDBRANCH  12  18
ENDBRANCH   4   7
BRANCH   1  21
ATOM     20  C   UNL     1       0.021   1.414   0.048  0.00  0.00    +0.033 C 
ATOM     21  C   UNL     1      -0.003  -0.115   0.033  0.00  0.00    +0.102 C 
BRANCH  21  22
ATOM     22  C   UNL     1       0.701  -0.641   1.257  0.00  0.00    -0.026 A 
ATOM     23  C   UNL     1       0.040  -0.682   2.471  0.00  0.00    +0.007 A 
ATOM     24  C   UNL     1       0.685  -1.163   3.594  0.00  0.00    +0.022 A 
ATOM     25  C   UNL     1       1.993  -1.605   3.505  0.00  0.00    +0.059 A 
ATOM     26  C   UNL     1       2.655  -1.565   2.289  0.00  0.00    +0.060 A 
ATOM     27  C   UNL     1       2.006  -1.088   1.165  0.00  0.00    +0.027 A 
ATOM     28 CL   UNL     1       4.296  -2.119   2.175  0.00  0.00    -0.082 Cl
ATOM     29 CL   UNL     1       2.804  -2.210   4.916  0.00  0.00    -0.082 Cl
ENDBRANCH  21  22
ENDBRANCH   1  21
TORSDOF 5
