REMARK  Name = ZINC63172469
REMARK  6 active torsions:
REMARK  status: ('A' for Active; 'I' for Inactive)
REMARK    1  A    between atoms: C_1  and  O_2
REMARK    2  A    between atoms: O_2  and  C_3
REMARK    3  A    between atoms: C_6  and  C_23
REMARK    4  A    between atoms: C_8  and  C_9
REMARK    5  A    between atoms: C_9  and  N_10
REMARK    6  A    between atoms: N_13  and  C_16
REMARK                            x       y       z     vdW  Elec       q    Type
REMARK                         _______ _______ _______ _____ _____    ______ ____
ROOT
ATOM      1  C   UNL     1       0.626  -0.618   1.042  0.00  0.00    +0.121 A 
ATOM      2  C   UNL     1       1.199   0.139   2.054  0.00  0.00    +0.046 A 
ATOM      3  C   UNL     1       1.832  -0.488   3.109  0.00  0.00    +0.009 A 
ATOM      4  C   UNL     1       1.895  -1.869   3.158  0.00  0.00    -0.028 A 
ATOM      5  C   UNL     1       1.325  -2.625   2.151  0.00  0.00    +0.010 A 
ATOM      6  C   UNL     1       0.686  -2.003   1.095  0.00  0.00    -0.022 A 
ENDROOT
BRANCH   4   7
ATOM      7  C   UNL     1       2.586  -2.550   4.311  0.00  0.00    +0.111 C 
ATOM      8  C   UNL     1       2.001  -2.048   5.633  0.00  0.00    +0.128 C 
ATOM      9  C   UNL     1       2.381  -0.575   5.735  0.00  0.00    -0.035 C 
ATOM     10  C   UNL     1       1.253   0.091   5.934  0.00  0.00    -0.001 A 
ATOM     11  C   UNL     1       0.986   1.516   6.192  0.00  0.00    +0.010 A 
ATOM     12  C   UNL     1      -0.320   1.865   6.337  0.00  0.00    +0.001 A 
ATOM     13  C   UNL     1      -1.374   0.951   6.251  0.00  0.00    +0.002 A 
ATOM     14  C   UNL     1      -1.221  -0.378   6.022  0.00  0.00    +0.026 A 
ATOM     15  C   UNL     1       0.107  -0.867   5.859  0.00  0.00    +0.043 A 
ATOM     16  N   UNL     1       0.539  -2.097   5.656  0.00  0.00    -0.376 N 
ATOM     17  C   UNL     1       3.801  -0.108   5.525  0.00  0.00    +0.048 C 
ATOM     18  C   UNL     1       4.291  -0.788   4.234  0.00  0.00    +0.086 C 
ATOM     19  N   UNL     1       4.022  -2.229   4.288  0.00  0.00    -0.307 NA
ATOM     20  H   UNL     1       4.500  -2.657   5.066  0.00  0.00    +0.123 HD
ATOM     21  H   UNL     1      -0.004  -2.892   5.538  0.00  0.00    +0.160 HD
ENDBRANCH   4   7
BRANCH   1  23
ATOM     22  C   UNL     1      -0.021   1.425   0.012  0.00  0.00    +0.277 C 
ATOM     23  O   UNL     1       0.002  -0.004   0.002  0.00  0.00    -0.495 OA
ENDBRANCH   1  23
BRANCH   6  24
ATOM     24  C   UNL     1       0.060  -2.828   0.001  0.00  0.00    -0.039 C 
BRANCH  24  25
ATOM     25  N   UNL     1      -1.401  -2.820   0.156  0.00  0.00    +0.384 N 
ATOM     26  C   UNL     1      -1.761  -3.487   1.414  0.00  0.00    -0.059 C 
ATOM     27  C   UNL     1      -3.274  -3.378   1.633  0.00  0.00    +0.086 C 
ATOM     28  N   UNL     1      -3.957  -3.913   0.445  0.00  0.00    -0.331 N 
ATOM     29  C   UNL     1      -3.541  -3.417  -0.876  0.00  0.00    +0.086 C 
ATOM     30  C   UNL     1      -2.016  -3.523  -0.977  0.00  0.00    -0.059 C 
ATOM     31  H   UNL     1      -1.730  -1.867   0.177  0.00  0.00    -0.081 HD
BRANCH  28  32
ATOM     32  C   UNL     1      -4.972  -4.867   0.567  0.00  0.00    +0.065 A 
ATOM     33  C   UNL     1      -6.294  -4.463   0.696  0.00  0.00    +0.026 A 
ATOM     34  C   UNL     1      -7.295  -5.407   0.816  0.00  0.00    +0.002 A 
ATOM     35  C   UNL     1      -6.983  -6.754   0.809  0.00  0.00    +0.003 A 
ATOM     36  C   UNL     1      -5.668  -7.162   0.682  0.00  0.00    +0.040 A 
ATOM     37  C   UNL     1      -4.661  -6.222   0.554  0.00  0.00    +0.144 A 
ATOM     38  F   UNL     1      -3.377  -6.620   0.424  0.00  0.00    -0.204 F 
ENDBRANCH  28  32
ENDBRANCH  24  25
ENDBRANCH   6  24
TORSDOF 5
