REMARK  Name = ZINC19824120
REMARK  5 active torsions:
REMARK  status: ('A' for Active; 'I' for Inactive)
REMARK    1  A    between atoms: C_6  and  N_7
REMARK    2  A    between atoms: C_11  and  C_12
REMARK    3  A    between atoms: C_15  and  O_19
REMARK    4  A    between atoms: O_19  and  C_20
REMARK    5  A    between atoms: C_20  and  C_21
REMARK                            x       y       z     vdW  Elec       q    Type
REMARK                         _______ _______ _______ _____ _____    ______ ____
ROOT
ATOM      1  N   UNL     1       3.839   2.487   1.515  0.00  0.00    -0.216 N 
ATOM      2  C   UNL     1       3.750   3.748   1.046  0.00  0.00    +0.262 C 
ATOM      3  O   UNL     1       2.751   4.417   1.237  0.00  0.00    -0.269 OA
ATOM      4  C   UNL     1       4.897   4.296   0.296  0.00  0.00    +0.102 C 
ATOM      5  C   UNL     1       4.880   5.579  -0.214  0.00  0.00    +0.026 C 
ATOM      6  C   UNL     1       6.065   3.410   0.116  0.00  0.00    +0.274 C 
ATOM      7  O   UNL     1       7.049   3.788  -0.491  0.00  0.00    -0.268 OA
ATOM      8  N   UNL     1       6.011   2.169   0.642  0.00  0.00    -0.153 NA
ATOM      9  C   UNL     1       4.935   1.741   1.318  0.00  0.00    +0.171 C 
ATOM     10  S   UNL     1       4.959   0.153   1.956  0.00  0.00    -0.016 S 
ENDROOT
BRANCH   1  16
ATOM     11  C   UNL     1       2.438   2.447   3.484  0.00  0.00    +0.025 A 
ATOM     12  C   UNL     1       1.377   1.912   4.188  0.00  0.00    +0.022 A 
ATOM     13  C   UNL     1       0.638   0.875   3.645  0.00  0.00    +0.041 A 
ATOM     14  C   UNL     1       0.960   0.373   2.396  0.00  0.00    +0.022 A 
ATOM     15  C   UNL     1       2.020   0.905   1.689  0.00  0.00    +0.025 A 
ATOM     16  C   UNL     1       2.763   1.945   2.231  0.00  0.00    +0.043 A 
ATOM     17 CL   UNL     1      -0.694   0.203   4.532  0.00  0.00    -0.084 Cl
ENDBRANCH   1  16
BRANCH   5  18
ATOM     18  C   UNL     1       3.639   6.354  -0.202  0.00  0.00    -0.023 A 
ATOM     19  C   UNL     1       3.648   7.691   0.223  0.00  0.00    +0.011 A 
ATOM     20  C   UNL     1       2.489   8.413   0.234  0.00  0.00    +0.048 A 
ATOM     21  C   UNL     1       1.295   7.827  -0.176  0.00  0.00    +0.140 A 
ATOM     22  C   UNL     1       1.273   6.501  -0.600  0.00  0.00    +0.083 A 
ATOM     23  C   UNL     1       2.436   5.765  -0.620  0.00  0.00    +0.031 A 
ATOM     24 CL   UNL     1      -0.221   5.778  -1.110  0.00  0.00    -0.080 Cl
BRANCH  21  25
ATOM     25  O   UNL     1       0.148   8.552  -0.163  0.00  0.00    -0.479 OA
BRANCH  25  26
ATOM     26  C   UNL     1       0.242   9.906   0.283  0.00  0.00    +0.353 C 
BRANCH  26  27
ATOM     27  C   UNL     1      -1.121  10.548   0.229  0.00  0.00    +0.393 C 
ATOM     28  O   UNL     1      -2.074   9.911  -0.152  0.00  0.00    -0.243 OA
ATOM     29  O   UNL     1      -1.275  11.827   0.605  0.00  0.00    -0.243 OA
ENDBRANCH  26  27
ENDBRANCH  25  26
ENDBRANCH  21  25
ENDBRANCH   5  18
TORSDOF 5
