REMARK  Name = ZINC37581656
REMARK  7 active torsions:
REMARK  status: ('A' for Active; 'I' for Inactive)
REMARK    1  A    between atoms: C_3  and  S_11
REMARK    2  A    between atoms: C_6  and  C_7
REMARK    3  A    between atoms: C_8  and  C_9
REMARK    4  A    between atoms: C_9  and  N_10
REMARK    5  A    between atoms: S_11  and  N_14
REMARK    6  A    between atoms: C_18  and  C_21
REMARK    7  A    between atoms: C_21  and  O_22
REMARK                            x       y       z     vdW  Elec       q    Type
REMARK                         _______ _______ _______ _____ _____    ______ ____
ROOT
ATOM      1  C   UNL     1      -0.017   1.391   0.010  0.00  0.00    +0.019 A 
ATOM      2  C   UNL     1       1.170   2.094   0.002  0.00  0.00    +0.030 A 
ATOM      3  C   UNL     1       2.378   1.419  -0.013  0.00  0.00    +0.106 A 
ATOM      4  C   UNL     1       2.403   0.036  -0.021  0.00  0.00    +0.030 A 
ATOM      5  C   UNL     1       1.223  -0.679  -0.014  0.00  0.00    +0.019 A 
ATOM      6  C   UNL     1       0.002  -0.004   0.002  0.00  0.00    +0.025 A 
ENDROOT
BRANCH   3   7
ATOM      7  S   UNL     1       3.889   2.324  -0.023  0.00  0.00    +0.061 S 
ATOM      8  O   UNL     1       4.872   1.467  -0.588  0.00  0.00    -0.153 OA
ATOM      9  O   UNL     1       3.592   3.604  -0.565  0.00  0.00    -0.153 OA
BRANCH   7  10
ATOM     10  N   UNL     1       4.325   2.568   1.556  0.00  0.00    -0.176 NA
ATOM     11  C   UNL     1       3.867   3.760   2.283  0.00  0.00    +0.109 C 
ATOM     12  C   UNL     1       5.085   4.473   2.878  0.00  0.00    +0.017 C 
ATOM     13  C   UNL     1       5.884   3.484   3.730  0.00  0.00    +0.008 C 
ATOM     14  C   UNL     1       6.379   2.334   2.851  0.00  0.00    +0.030 C 
ATOM     15  C   UNL     1       5.171   1.593   2.258  0.00  0.00    +0.115 C 
BRANCH  14  16
ATOM     16  C   UNL     1       7.206   1.364   3.697  0.00  0.00    +0.160 C 
BRANCH  16  17
ATOM     17  O   UNL     1       8.388   2.022   4.158  0.00  0.00    -0.395 OA
ATOM     18  H   UNL     1       8.961   1.465   4.703  0.00  0.00    +0.209 HD
ENDBRANCH  16  17
ENDBRANCH  14  16
ENDBRANCH   7  10
ENDBRANCH   3   7
BRANCH   6  19
ATOM     19  C   UNL     1      -1.226  -0.740   0.010  0.00  0.00    -0.068 C 
ATOM     20  C   UNL     1      -2.233  -1.343   0.017  0.00  0.00    -0.117 C 
BRANCH  20  21
ATOM     21  C   UNL     1      -3.496  -2.100   0.025  0.00  0.00    +0.005 C 
BRANCH  21  22
ATOM     22  N   UNL     1      -3.205  -3.539   0.015  0.00  0.00    +0.385 N 
ATOM     23  H   UNL     1      -2.680  -3.770  -0.816  0.00  0.00    -0.089 HD
ATOM     24  H   UNL     1      -2.664  -3.779   0.832  0.00  0.00    -0.089 HD
ATOM     25  H   UNL     1      -4.070  -4.058   0.021  0.00  0.00    -0.089 HD
ENDBRANCH  21  22
ENDBRANCH  20  21
ENDBRANCH   6  19
TORSDOF 7
