REMARK  Name = ZINC49063624
REMARK  8 active torsions:
REMARK  status: ('A' for Active; 'I' for Inactive)
REMARK    1  A    between atoms: C_1  and  C_2
REMARK    2  A    between atoms: C_2  and  C_4
REMARK    3  A    between atoms: C_2  and  S_8
REMARK    4  A    between atoms: C_4  and  O_6
REMARK    5  A    between atoms: O_6  and  C_7
REMARK    6  A    between atoms: S_8  and  N_11
REMARK    7  A    between atoms: N_11  and  C_12
REMARK    8  A    between atoms: C_17  and  C_18
REMARK                            x       y       z     vdW  Elec       q    Type
REMARK                         _______ _______ _______ _____ _____    ______ ____
ROOT
ATOM      1  N   UNL     1       0.017  -0.011   2.755  0.00  0.00    -0.101 NA
ENDROOT
BRANCH   1   2
ATOM      2  C   UNL     1       0.423  -0.289   4.051  0.00  0.00    +0.089 A 
ATOM      3  C   UNL     1       1.557  -1.060   4.279  0.00  0.00    +0.042 A 
ATOM      4  C   UNL     1       1.959  -1.335   5.570  0.00  0.00    +0.020 A 
ATOM      5  C   UNL     1       1.238  -0.845   6.650  0.00  0.00    +0.016 A 
ATOM      6  C   UNL     1       0.113  -0.079   6.447  0.00  0.00    +0.018 A 
ATOM      7  C   UNL     1      -0.306   0.213   5.143  0.00  0.00    +0.088 A 
ATOM      8 BR   UNL     1       3.502  -2.385   5.870  0.00  0.00    -0.050 Br
BRANCH   7   9
ATOM      9  C   UNL     1      -1.503   1.035   4.918  0.00  0.00    +0.388 C 
ATOM     10  O   UNL     1      -2.135   1.470   5.871  0.00  0.00    -0.241 OA
ATOM     11  O   UNL     1      -1.869   1.284   3.777  0.00  0.00    -0.241 OA
ENDBRANCH   7   9
ENDBRANCH   1   2
BRANCH   1  12
ATOM     12  S   UNL     1       0.879  -0.605   1.472  0.00  0.00    +0.075 S 
ATOM     13  O   UNL     1       0.754  -2.017   1.573  0.00  0.00    -0.153 OA
ATOM     14  O   UNL     1       2.152   0.018   1.571  0.00  0.00    -0.153 OA
BRANCH  12  16
ATOM     15  C   UNL     1      -0.019   1.526   0.010  0.00  0.00    +0.046 C 
ATOM     16  C   UNL     1       0.002  -0.004   0.002  0.00  0.00    +0.258 C 
BRANCH  16  17
ATOM     17  C   UNL     1       0.707  -0.490  -1.238  0.00  0.00    +0.333 C 
ATOM     18  O   UNL     1       1.860  -0.848  -1.176  0.00  0.00    -0.249 OA
BRANCH  17  19
ATOM     19  O   UNL     1       0.055  -0.526  -2.411  0.00  0.00    -0.467 OA
ATOM     20  C   UNL     1       0.785  -0.998  -3.545  0.00  0.00    +0.280 C 
ENDBRANCH  17  19
ENDBRANCH  16  17
ENDBRANCH  12  16
ENDBRANCH   1  12
TORSDOF 6
