REMARK  Name = ZINC35662920
REMARK  6 active torsions:
REMARK  status: ('A' for Active; 'I' for Inactive)
REMARK    1  A    between atoms: C_1  and  C_2
REMARK    2  A    between atoms: C_2  and  C_4
REMARK    3  A    between atoms: C_2  and  O_7
REMARK    4  A    between atoms: O_7  and  C_8
REMARK    5  A    between atoms: C_9  and  C_16
REMARK    6  A    between atoms: C_17  and  C_18
REMARK                            x       y       z     vdW  Elec       q    Type
REMARK                         _______ _______ _______ _____ _____    ______ ____
ROOT
ATOM      1  C   UNL     1      -0.093  -0.675  -2.275  0.00  0.00    +0.147 A 
ATOM      2  C   UNL     1      -0.679  -1.931  -2.499  0.00  0.00    +0.020 A 
ATOM      3  C   UNL     1      -1.466  -2.134  -3.639  0.00  0.00    +0.031 A 
ATOM      4  C   UNL     1      -1.660  -1.102  -4.532  0.00  0.00    +0.043 A 
ATOM      5  C   UNL     1      -1.080   0.137  -4.307  0.00  0.00    +0.043 A 
ATOM      6  C   UNL     1      -0.305   0.353  -3.183  0.00  0.00    +0.085 A 
ATOM      7 CL   UNL     1       0.410   1.911  -2.909  0.00  0.00    -0.080 Cl
ATOM      8 CL   UNL     1      -2.635  -1.355  -5.946  0.00  0.00    -0.083 Cl
ENDROOT
BRANCH   2   9
ATOM      9  C   UNL     1      -0.467  -3.026  -1.543  0.00  0.00    +0.019 C 
ATOM     10  C   UNL     1      -1.034  -4.235  -1.763  0.00  0.00    +0.096 C 
BRANCH  10  11
ATOM     11  C   UNL     1      -0.830  -5.288  -0.843  0.00  0.00    +0.380 C 
ATOM     12  O   UNL     1      -0.140  -5.107   0.153  0.00  0.00    -0.241 OA
ATOM     13  O   UNL     1      -1.343  -6.383  -1.042  0.00  0.00    -0.241 OA
ENDBRANCH  10  11
ENDBRANCH   2   9
BRANCH   1  14
ATOM     14  O   UNL     1       0.671  -0.465  -1.174  0.00  0.00    -0.478 OA
BRANCH  14  16
ATOM     15  C   UNL     1      -0.019   1.526   0.010  0.00  0.00    +0.062 C 
ATOM     16  C   UNL     1       0.002  -0.004   0.002  0.00  0.00    +0.255 C 
BRANCH  16  17
ATOM     17  C   UNL     1       0.731  -0.503   1.223  0.00  0.00    +0.251 C 
ATOM     18  O   UNL     1       1.774  -1.109   1.101  0.00  0.00    -0.272 OA
ATOM     19  N   UNL     1       0.223  -0.277   2.451  0.00  0.00    -0.326 N 
ATOM     20  H   UNL     1      -0.611   0.208   2.548  0.00  0.00    +0.145 HD
ATOM     21  H   UNL     1       0.692  -0.598   3.236  0.00  0.00    +0.145 HD
ENDBRANCH  16  17
ENDBRANCH  14  16
ENDBRANCH   1  14
TORSDOF 5
