REMARK  Name = ZINC16137908
REMARK  8 active torsions:
REMARK  status: ('A' for Active; 'I' for Inactive)
REMARK    1  A    between atoms: C_4  and  N_12
REMARK    2  A    between atoms: N_7  and  O_8
REMARK    3  A    between atoms: C_15  and  C_18
REMARK    4  A    between atoms: C_18  and  C_19
REMARK    5  A    between atoms: C_19  and  C_20
REMARK    6  A    between atoms: C_20  and  C_21
REMARK    7  A    between atoms: N_24  and  C_27
REMARK    8  A    between atoms: N_30  and  O_31
REMARK                            x       y       z     vdW  Elec       q    Type
REMARK                         _______ _______ _______ _____ _____    ______ ____
ROOT
ATOM      1  C   UNL     1       4.253  -0.230  -8.214  0.00  0.00    +0.001 C 
ENDROOT
BRANCH   1   2
ATOM      2  C   UNL     1       4.881  -0.778  -6.931  0.00  0.00    +0.003 C 
BRANCH   2   6
ATOM      3  N   UNL     1       2.807  -0.461  -3.206  0.00  0.00    +0.385 N 
ATOM      4  C   UNL     1       3.319  -1.790  -3.561  0.00  0.00    -0.078 C 
ATOM      5  C   UNL     1       4.397  -1.653  -4.639  0.00  0.00    -0.015 C 
ATOM      6  C   UNL     1       3.791  -0.990  -5.879  0.00  0.00    -0.014 C 
ATOM      7  C   UNL     1       3.193   0.363  -5.481  0.00  0.00    -0.015 C 
ATOM      8  C   UNL     1       2.160   0.152  -4.372  0.00  0.00    -0.078 C 
ATOM      9  H   UNL     1       3.572   0.122  -2.902  0.00  0.00    -0.081 HD
BRANCH   3  13
ATOM     10  C   UNL     1      -0.699  -0.061  -0.505  0.00  0.00    -0.000 C 
ATOM     11  C   UNL     1       0.624   0.694  -0.365  0.00  0.00    -0.001 C 
ATOM     12  C   UNL     1       1.300   0.799  -1.740  0.00  0.00    -0.009 C 
ATOM     13  C   UNL     1       1.829  -0.590  -2.117  0.00  0.00    -0.020 C 
ATOM     14  C   UNL     1       2.490  -1.226  -0.928  0.00  0.00    +0.044 C 
ATOM     15  N   UNL     1       3.577  -0.739  -0.460  0.00  0.00    -0.098 NA
ATOM     16  C   UNL     1       1.866  -2.444  -0.284  0.00  0.00    +0.052 C 
ATOM     17  C   UNL     1       0.599  -1.971   0.450  0.00  0.00    +0.006 C 
ATOM     18  C   UNL     1      -0.441  -1.560  -0.601  0.00  0.00    +0.000 C 
BRANCH  15  19
ATOM     19  O   UNL     1       4.198  -1.340   0.661  0.00  0.00    -0.409 OA
ATOM     20  H   UNL     1       5.013  -0.902   0.941  0.00  0.00    +0.328 HD
ENDBRANCH  15  19
ENDBRANCH   3  13
ENDBRANCH   2   6
ENDBRANCH   1   2
BRANCH   1  21
ATOM     21  C   UNL     1       5.344  -0.019  -9.265  0.00  0.00    +0.003 C 
BRANCH  21  22
ATOM     22  C   UNL     1       4.715   0.529 -10.549  0.00  0.00    -0.014 C 
ATOM     23  C   UNL     1       4.144   1.925 -10.284  0.00  0.00    -0.015 C 
ATOM     24  C   UNL     1       3.589   2.498 -11.589  0.00  0.00    -0.078 C 
ATOM     25  N   UNL     1       4.664   2.588 -12.585  0.00  0.00    +0.385 N 
ATOM     26  C   UNL     1       5.168   1.246 -12.897  0.00  0.00    -0.078 C 
ATOM     27  C   UNL     1       5.784   0.624 -11.642  0.00  0.00    -0.015 C 
ATOM     28  H   UNL     1       5.415   3.152 -12.217  0.00  0.00    -0.081 HD
BRANCH  25  29
ATOM     29  C   UNL     1       4.144   3.211 -13.810  0.00  0.00    -0.020 C 
ATOM     30  C   UNL     1       5.210   3.188 -14.880  0.00  0.00    +0.044 C 
ATOM     31  N   UNL     1       6.387   3.625 -14.633  0.00  0.00    -0.098 NA
ATOM     32  C   UNL     1       4.872   2.646 -16.232  0.00  0.00    +0.052 C 
ATOM     33  C   UNL     1       3.490   3.192 -16.624  0.00  0.00    +0.006 C 
ATOM     34  C   UNL     1       3.626   4.646 -17.067  0.00  0.00    +0.000 C 
ATOM     35  C   UNL     1       3.870   5.558 -15.850  0.00  0.00    -0.000 C 
ATOM     36  C   UNL     1       2.933   5.202 -14.702  0.00  0.00    -0.001 C 
ATOM     37  C   UNL     1       3.757   4.653 -13.521  0.00  0.00    -0.009 C 
BRANCH  31  38
ATOM     38  O   UNL     1       7.379   3.598 -15.643  0.00  0.00    -0.409 OA
ATOM     39  H   UNL     1       8.235   3.949 -15.362  0.00  0.00    +0.328 HD
ENDBRANCH  31  38
ENDBRANCH  25  29
ENDBRANCH  21  22
ENDBRANCH   1  21
TORSDOF 8
