REMARK  Name = ZINC07795452
REMARK  5 active torsions:
REMARK  status: ('A' for Active; 'I' for Inactive)
REMARK    1  A    between atoms: C_1  and  C_2
REMARK    2  A    between atoms: C_5  and  C_8
REMARK    3  A    between atoms: N_10  and  N_11
REMARK    4  A    between atoms: C_12  and  C_14
REMARK    5  A    between atoms: C_14  and  C_15
REMARK                            x       y       z     vdW  Elec       q    Type
REMARK                         _______ _______ _______ _____ _____    ______ ____
ROOT
ATOM      1  N   UNL     1       4.240   5.842  -1.668  0.00  0.00    -0.234 N 
ATOM      2  C   UNL     1       2.928   6.015  -1.409  0.00  0.00    +0.234 C 
ATOM      3  O   UNL     1       2.128   6.030  -2.320  0.00  0.00    -0.274 OA
ATOM      4  H   UNL     1       4.880   5.829  -0.940  0.00  0.00    +0.173 HD
ENDROOT
BRANCH   1   7
ATOM      5  C   UNL     1       5.989   5.507  -3.248  0.00  0.00    +0.260 C 
ATOM      6  O   UNL     1       6.792   5.491  -2.335  0.00  0.00    -0.269 OA
ATOM      7  N   UNL     1       4.678   5.680  -2.989  0.00  0.00    -0.230 N 
ATOM      8  H   UNL     1       4.037   5.693  -3.717  0.00  0.00    +0.173 HD
BRANCH   5  13
ATOM      9  C   UNL     1       7.789   4.841  -8.673  0.00  0.00    +0.044 C 
ATOM     10  C   UNL     1       7.318   5.016  -7.252  0.00  0.00    -0.050 A 
ATOM     11  C   UNL     1       8.234   4.998  -6.215  0.00  0.00    +0.004 A 
ATOM     12  C   UNL     1       7.809   5.157  -4.913  0.00  0.00    +0.013 A 
ATOM     13  C   UNL     1       6.452   5.336  -4.641  0.00  0.00    +0.038 A 
ATOM     14  C   UNL     1       5.532   5.348  -5.691  0.00  0.00    +0.013 A 
ATOM     15  C   UNL     1       5.971   5.193  -6.990  0.00  0.00    +0.004 A 
ENDBRANCH   5  13
ENDBRANCH   1   7
BRANCH   2  16
ATOM     16  C   UNL     1       2.457   6.189   0.011  0.00  0.00    +0.136 C 
BRANCH  16  17
ATOM     17  C   UNL     1       0.960   6.363   0.026  0.00  0.00    +0.007 A 
ATOM     18  C   UNL     1       0.282   7.522   0.038  0.00  0.00    +0.200 A 
ATOM     19  O   UNL     1      -1.039   7.280   0.050  0.00  0.00    -0.463 OA
ATOM     20  C   UNL     1      -1.285   5.954   0.045  0.00  0.00    +0.136 A 
ATOM     21  C   UNL     1      -0.047   5.304   0.030  0.00  0.00    +0.031 A 
ATOM     22  C   UNL     1      -0.006   3.847   0.023  0.00  0.00    -0.007 A 
ATOM     23  C   UNL     1       1.202   3.142   0.007  0.00  0.00    +0.009 A 
ATOM     24  C   UNL     1       1.189   1.778   0.000  0.00  0.00    +0.001 A 
ATOM     25  C   UNL     1      -0.013   1.076   0.008  0.00  0.00    +0.001 A 
ATOM     26  C   UNL     1      -1.207   1.731   0.017  0.00  0.00    +0.008 A 
ATOM     27  C   UNL     1      -1.230   3.135   0.031  0.00  0.00    -0.017 A 
ATOM     28  C   UNL     1      -2.445   3.846   0.045  0.00  0.00    +0.012 A 
ATOM     29  C   UNL     1      -2.465   5.202   0.052  0.00  0.00    +0.047 A 
ENDBRANCH  16  17
ENDBRANCH   2  16
TORSDOF 4
