REMARK  Name = ZINC61592867
REMARK  5 active torsions:
REMARK  status: ('A' for Active; 'I' for Inactive)
REMARK    1  A    between atoms: C_1  and  C_2
REMARK    2  A    between atoms: C_5  and  C_17
REMARK    3  A    between atoms: C_6  and  S_8
REMARK    4  A    between atoms: S_8  and  C_9
REMARK    5  A    between atoms: N_15  and  C_16
REMARK                            x       y       z     vdW  Elec       q    Type
REMARK                         _______ _______ _______ _____ _____    ______ ____
ROOT
ATOM      1  C   UNL     1      -0.183   1.515   0.088  0.00  0.00    +0.044 C 
ATOM      2  C   UNL     1      -0.075   0.012   0.049  0.00  0.00    -0.049 A 
ATOM      3  C   UNL     1      -0.141  -0.652  -1.166  0.00  0.00    +0.004 A 
ATOM      4  C   UNL     1      -0.044  -2.025  -1.215  0.00  0.00    +0.012 A 
ATOM      5  C   UNL     1       0.122  -2.755  -0.035  0.00  0.00    +0.026 A 
ATOM      6  C   UNL     1       0.189  -2.080   1.193  0.00  0.00    +0.026 A 
ATOM      7  C   UNL     1       0.094  -0.693   1.222  0.00  0.00    +0.019 A 
ENDROOT
BRANCH   5   8
ATOM      8  C   UNL     1       0.227  -4.226  -0.081  0.00  0.00    +0.095 C 
ATOM      9  N   UNL     1      -0.623  -4.976   0.620  0.00  0.00    -0.387 N 
ATOM     10  N   UNL     1       1.171  -4.805  -0.823  0.00  0.00    -0.345 N 
ATOM     11  H   UNL     1      -0.599  -5.943   0.537  0.00  0.00    +0.157 HD
ATOM     12  H   UNL     1       1.789  -4.259  -1.333  0.00  0.00    +0.144 HD
ATOM     13  H   UNL     1       1.240  -5.772  -0.853  0.00  0.00    +0.144 HD
ATOM     14  H   UNL     1      -1.265  -4.556   1.214  0.00  0.00    +0.157 HD
ENDBRANCH   5   8
BRANCH   6  15
ATOM     15  S   UNL     1       0.399  -2.985   2.690  0.00  0.00    -0.049 S 
BRANCH  15  16
ATOM     16  C   UNL     1       2.100  -3.443   2.677  0.00  0.00    +0.197 A 
ATOM     17  N   UNL     1       2.980  -3.071   1.792  0.00  0.00    -0.144 NA
ATOM     18  N   UNL     1       4.211  -3.647   2.135  0.00  0.00    -0.226 N 
ATOM     19  H   UNL     1       5.047  -3.543   1.655  0.00  0.00    +0.194 HD
ATOM     20  C   UNL     1       4.019  -4.371   3.257  0.00  0.00    +0.345 A 
ATOM     21  O   UNL     1       4.865  -5.015   3.852  0.00  0.00    -0.245 OA
ATOM     22  N   UNL     1       2.722  -4.249   3.604  0.00  0.00    -0.274 N 
ATOM     23  C   UNL     1       2.083  -4.870   4.767  0.00  0.00    +0.156 C 
ENDBRANCH  15  16
ENDBRANCH   6  15
TORSDOF 3
