REMARK  Name = ZINC01320401
REMARK  2 active torsions:
REMARK  status: ('A' for Active; 'I' for Inactive)
REMARK    1  A    between atoms: C_9  and  C_13
REMARK    2  A    between atoms: C_13  and  O_24
REMARK                            x       y       z     vdW  Elec       q    Type
REMARK                         _______ _______ _______ _____ _____    ______ ____
ROOT
ATOM      1  C   UNL     1       0.002  -0.004   0.002  0.00  0.00    +0.178 C 
ATOM      2  C   UNL     1       0.803  -0.516  -1.173  0.00  0.00    +0.016 A 
ATOM      3  C   UNL     1       0.654  -0.386  -2.535  0.00  0.00    +0.024 A 
ATOM      4  C   UNL     1       1.566  -0.982  -3.390  0.00  0.00    +0.018 A 
ATOM      5  C   UNL     1       2.625  -1.706  -2.870  0.00  0.00    +0.017 A 
ATOM      6  C   UNL     1       2.776  -1.837  -1.505  0.00  0.00    +0.025 A 
ATOM      7  C   UNL     1       1.861  -1.240  -0.639  0.00  0.00    +0.040 A 
ATOM      8  N   UNL     1       1.798  -1.230   0.755  0.00  0.00    -0.282 N 
ATOM      9  C   UNL     1       0.745  -0.531   1.211  0.00  0.00    +0.254 C 
ATOM     10  O   UNL     1       0.446  -0.355   2.374  0.00  0.00    -0.272 OA
ATOM     11 BR   UNL     1       1.367  -0.806  -5.262  0.00  0.00    -0.050 Br
ATOM     12  H   UNL     1       2.441  -1.675   1.329  0.00  0.00    +0.155 HD
ENDROOT
BRANCH   1  21
ATOM     13  C   UNL     1      -4.935  -4.132   1.050  0.00  0.00    +0.000 A 
ATOM     14  C   UNL     1      -3.876  -4.830   0.495  0.00  0.00    +0.001 A 
ATOM     15  C   UNL     1      -2.722  -4.163   0.142  0.00  0.00    +0.011 A 
ATOM     16  C   UNL     1      -2.626  -2.784   0.348  0.00  0.00    +0.021 A 
ATOM     17  C   UNL     1      -3.697  -2.082   0.904  0.00  0.00    -0.037 A 
ATOM     18  C   UNL     1      -4.846  -2.767   1.253  0.00  0.00    +0.004 A 
ATOM     19  C   UNL     1      -3.634  -0.596   1.127  0.00  0.00    +0.036 C 
ATOM     20  C   UNL     1      -2.190  -0.110   1.217  0.00  0.00    +0.020 C 
ATOM     21  C   UNL     1      -1.424  -0.558  -0.035  0.00  0.00    +0.106 C 
ATOM     22  C   UNL     1      -1.388  -2.072  -0.025  0.00  0.00    +0.170 C 
ATOM     23  O   UNL     1      -0.379  -2.678  -0.315  0.00  0.00    -0.292 OA
ENDBRANCH   1  21
BRANCH   1  24
ATOM     24  O   UNL     1      -0.017   1.425   0.010  0.00  0.00    -0.374 OA
ATOM     25  H   UNL     1       0.861   1.830   0.004  0.00  0.00    +0.211 HD
ENDBRANCH   1  24
TORSDOF 2
