REMARK  Name = ZINC12580309
REMARK  6 active torsions:
REMARK  status: ('A' for Active; 'I' for Inactive)
REMARK    1  A    between atoms: C_3  and  C_5
REMARK    2  A    between atoms: C_5  and  N_6
REMARK    3  A    between atoms: C_10  and  C_13
REMARK    4  A    between atoms: C_10  and  O_24
REMARK    5  A    between atoms: C_13  and  N_58
REMARK    6  A    between atoms: C_14  and  N_58
REMARK                            x       y       z     vdW  Elec       q    Type
REMARK                         _______ _______ _______ _____ _____    ______ ____
ROOT
ATOM      1  N   UNL     1      -0.722  -5.667   0.596  0.00  0.00    -0.299 N 
ATOM      2  C   UNL     1       0.591  -5.631   1.228  0.00  0.00    +0.108 C 
ATOM      3  C   UNL     1       1.464  -4.551   0.587  0.00  0.00    +0.022 C 
ATOM      4  C   UNL     1       1.436  -4.737  -0.934  0.00  0.00    +0.044 C 
ATOM      5  C   UNL     1       0.025  -4.420  -1.436  0.00  0.00    +0.127 C 
ATOM      6  C   UNL     1      -0.988  -5.155  -0.606  0.00  0.00    +0.245 C 
ATOM      7  O   UNL     1      -2.109  -5.285  -1.050  0.00  0.00    -0.273 OA
ENDROOT
BRANCH   5   8
ATOM      8  O   UNL     1      -0.206  -3.013  -1.340  0.00  0.00    -0.381 OA
ATOM      9  H   UNL     1      -1.083  -2.737  -1.642  0.00  0.00    +0.211 HD
ENDBRANCH   5   8
BRANCH   1  10
ATOM     10  C   UNL     1      -1.817  -6.312   1.325  0.00  0.00    +0.111 C 
BRANCH  10  13
ATOM     11  C   UNL     1      -4.468  -4.634   2.766  0.00  0.00    +0.001 C 
ATOM     12  C   UNL     1      -3.623  -5.876   3.097  0.00  0.00    +0.005 C 
ATOM     13  C   UNL     1      -2.531  -5.276   2.196  0.00  0.00    +0.006 C 
ATOM     14  C   UNL     1      -3.657  -4.526   1.464  0.00  0.00    +0.005 C 
ENDBRANCH  10  13
ENDBRANCH   1  10
BRANCH   5  15
ATOM     15  C   UNL     1      -0.106  -4.859  -2.896  0.00  0.00    -0.037 C 
BRANCH  15  16
ATOM     16  N   UNL     1       0.932  -4.186  -3.698  0.00  0.00    +0.385 N 
ATOM     17  H   UNL     1       1.857  -4.406  -3.309  0.00  0.00    -0.085 HD
ATOM     18  H   UNL     1       0.780  -3.171  -3.666  0.00  0.00    -0.085 HD
BRANCH  16  19
ATOM     19  C   UNL     1       0.873  -4.643  -5.099  0.00  0.00    -0.067 C 
ATOM     20  C   UNL     1      -0.499  -4.314  -5.690  0.00  0.00    -0.009 C 
ATOM     21  C   UNL     1      -0.554  -4.782  -7.145  0.00  0.00    -0.012 C 
ATOM     22  C   UNL     1       0.533  -4.069  -7.952  0.00  0.00    +0.007 C 
ATOM     23  C   UNL     1       1.905  -4.398  -7.362  0.00  0.00    -0.012 C 
ATOM     24  C   UNL     1       1.960  -3.929  -5.906  0.00  0.00    -0.009 C 
ATOM     25  C   UNL     1       2.136  -5.909  -7.420  0.00  0.00    +0.007 C 
ATOM     26  C   UNL     1       1.050  -6.623  -6.613  0.00  0.00    -0.012 C 
ATOM     27  C   UNL     1      -0.323  -6.294  -7.204  0.00  0.00    +0.007 C 
ATOM     28  C   UNL     1       1.104  -6.154  -5.157  0.00  0.00    -0.009 C 
ENDBRANCH  16  19
ENDBRANCH  15  16
ENDBRANCH   5  15
TORSDOF 6
