REMARK  Name = ZINC36752376
REMARK  7 active torsions:
REMARK  status: ('A' for Active; 'I' for Inactive)
REMARK    1  A    between atoms: C_1  and  S_2
REMARK    2  A    between atoms: S_2  and  C_5
REMARK    3  A    between atoms: C_5  and  C_6
REMARK    4  A    between atoms: C_6  and  C_7
REMARK    5  A    between atoms: C_7  and  C_9
REMARK    6  A    between atoms: C_7  and  N_20
REMARK    7  A    between atoms: N_11  and  C_12
REMARK                            x       y       z     vdW  Elec       q    Type
REMARK                         _______ _______ _______ _____ _____    ______ ____
ROOT
ATOM      1  C   UNL     1       1.721  -3.715  -3.222  0.00  0.00    +0.203 C 
ATOM      2  O   UNL     1       2.704  -4.370  -2.947  0.00  0.00    -0.277 OA
ATOM      3  N   UNL     1       0.632  -4.318  -3.739  0.00  0.00    -0.285 N 
ATOM      4  H   UNL     1      -0.176  -3.805  -3.899  0.00  0.00    +0.155 HD
ENDROOT
BRANCH   3   5
ATOM      5  C   UNL     1       0.667  -5.684  -4.044  0.00  0.00    +0.070 A 
ATOM      6  C   UNL     1       1.403  -6.555  -3.253  0.00  0.00    +0.041 A 
ATOM      7  C   UNL     1       1.435  -7.903  -3.557  0.00  0.00    +0.020 A 
ATOM      8  C   UNL     1       0.736  -8.385  -4.649  0.00  0.00    +0.018 A 
ATOM      9  C   UNL     1       0.002  -7.521  -5.440  0.00  0.00    +0.041 A 
ATOM     10  C   UNL     1      -0.040  -6.172  -5.138  0.00  0.00    +0.145 A 
ATOM     11  F   UNL     1      -0.762  -5.328  -5.907  0.00  0.00    -0.204 F 
ATOM     12 BR   UNL     1       2.438  -9.090  -2.479  0.00  0.00    -0.050 Br
ENDBRANCH   3   5
BRANCH   1  13
ATOM     13  C   UNL     1       1.718  -2.226  -2.987  0.00  0.00    +0.015 C 
BRANCH  13  14
ATOM     14  N   UNL     1       3.102  -1.743  -2.889  0.00  0.00    +0.386 N 
ATOM     15  H   UNL     1       3.566  -2.204  -2.121  0.00  0.00    -0.089 HD
ATOM     16  H   UNL     1       3.591  -1.946  -3.748  0.00  0.00    -0.089 HD
ATOM     17  H   UNL     1       3.099  -0.746  -2.732  0.00  0.00    -0.089 HD
ENDBRANCH  13  14
BRANCH  13  18
ATOM     18  C   UNL     1       0.977  -1.917  -1.685  0.00  0.00    +0.015 C 
BRANCH  18  19
ATOM     19  C   UNL     1       0.864  -0.401  -1.509  0.00  0.00    +0.164 C 
BRANCH  19  21
ATOM     20  C   UNL     1      -0.043   1.779   0.059  0.00  0.00    +0.194 C 
ATOM     21  S   UNL     1      -0.015  -0.035   0.035  0.00  0.00    -0.034 S 
ATOM     22  O   UNL     1       0.780  -0.487   1.123  0.00  0.00    -0.175 OA
ATOM     23  O   UNL     1      -1.350  -0.504  -0.086  0.00  0.00    -0.175 OA
ENDBRANCH  19  21
ENDBRANCH  18  19
ENDBRANCH  13  18
ENDBRANCH   1  13
TORSDOF 6
