REMARK  Name = ZINC20352481
REMARK  8 active torsions:
REMARK  status: ('A' for Active; 'I' for Inactive)
REMARK    1  A    between atoms: C_1  and  C_2
REMARK    2  A    between atoms: C_4  and  N_9
REMARK    3  A    between atoms: N_9  and  C_10
REMARK    4  A    between atoms: C_10  and  C_12
REMARK    5  A    between atoms: C_10  and  C_13
REMARK    6  A    between atoms: N_15  and  N_16
REMARK    7  A    between atoms: C_17  and  C_18
REMARK    8  A    between atoms: C_21  and  O_24
REMARK                            x       y       z     vdW  Elec       q    Type
REMARK                         _______ _______ _______ _____ _____    ______ ____
ROOT
ATOM      1  C   UNL     1       0.000   1.080   2.488  0.00  0.00    +0.252 C 
ATOM      2  O   UNL     1       0.458   1.870   3.286  0.00  0.00    -0.272 OA
ATOM      3  N   UNL     1       0.143  -0.244   2.692  0.00  0.00    -0.205 N 
ATOM      4  H   UNL     1      -0.272  -0.961   1.968  0.00  0.00    +0.177 HD
ENDROOT
BRANCH   1   5
ATOM      5  C   UNL     1      -0.729   1.579   1.267  0.00  0.00    +0.155 C 
ATOM      6  C   UNL     1      -0.013   1.086   0.008  0.00  0.00    +0.038 C 
BRANCH   5   7
ATOM      7  N   UNL     1      -0.749   3.044   1.275  0.00  0.00    -0.333 N 
ATOM      8  H   UNL     1       0.029   3.602   1.817  0.00  0.00    +0.147 HD
BRANCH   7  12
ATOM      9  C   UNL     1      -2.796   7.306  -0.066  0.00  0.00    +0.045 C 
ATOM     10  C   UNL     1      -2.773   5.800  -0.073  0.00  0.00    -0.036 A 
ATOM     11  C   UNL     1      -1.779   5.121   0.606  0.00  0.00    +0.027 A 
ATOM     12  C   UNL     1      -1.756   3.733   0.594  0.00  0.00    +0.028 A 
ATOM     13  C   UNL     1      -2.739   3.030  -0.091  0.00  0.00    +0.024 A 
ATOM     14  C   UNL     1      -3.733   3.713  -0.763  0.00  0.00    +0.016 A 
ATOM     15  C   UNL     1      -3.750   5.097  -0.754  0.00  0.00    +0.016 A 
ATOM     16  I   UNL     1      -5.261   6.130  -1.775  0.00  0.00    -0.044 I 
ENDBRANCH   7  12
ENDBRANCH   5   7
ENDBRANCH   1   5
BRANCH   3  17
ATOM     17  N   UNL     1       0.821  -0.709   3.828  0.00  0.00    -0.188 NA
ATOM     18  C   UNL     1       0.959  -1.984   4.025  0.00  0.00    +0.138 C 
BRANCH  18  19
ATOM     19  C   UNL     1       1.672  -2.472   5.219  0.00  0.00    -0.005 A 
ATOM     20  C   UNL     1       2.205  -1.564   6.137  0.00  0.00    +0.013 A 
ATOM     21  C   UNL     1       2.866  -2.025   7.255  0.00  0.00    +0.046 A 
ATOM     22  C   UNL     1       3.013  -3.390   7.464  0.00  0.00    +0.117 A 
ATOM     23  C   UNL     1       2.489  -4.297   6.551  0.00  0.00    +0.046 A 
ATOM     24  C   UNL     1       1.821  -3.845   5.434  0.00  0.00    +0.013 A 
BRANCH  22  25
ATOM     25  O   UNL     1       3.671  -3.840   8.564  0.00  0.00    -0.507 OA
ATOM     26  H   UNL     1       3.787  -4.921   8.731  0.00  0.00    +0.292 HD
ENDBRANCH  22  25
ENDBRANCH  18  19
ENDBRANCH   3  17
TORSDOF 6
