REMARK  Name = ZINC08503909
REMARK  7 active torsions:
REMARK  status: ('A' for Active; 'I' for Inactive)
REMARK    1  A    between atoms: C_1  and  C_2
REMARK    2  A    between atoms: C_2  and  C_3
REMARK    3  A    between atoms: C_2  and  C_4
REMARK    4  A    between atoms: C_4  and  C_6
REMARK    5  A    between atoms: C_4  and  S_12
REMARK    6  A    between atoms: S_12  and  C_13
REMARK    7  A    between atoms: N_19  and  C_20
REMARK                            x       y       z     vdW  Elec       q    Type
REMARK                         _______ _______ _______ _____ _____    ______ ____
ROOT
ATOM      1  C   UNL     1      -0.019   1.526   0.010  0.00  0.00    +0.143 C 
ENDROOT
BRANCH   1   2
ATOM      2  C   UNL     1      -0.748   2.025  -1.210  0.00  0.00    +0.234 C 
ATOM      3  O   UNL     1      -0.126   2.327  -2.206  0.00  0.00    -0.274 OA
ATOM      4  N   UNL     1      -2.091   2.135  -1.195  0.00  0.00    -0.239 N 
ATOM      5  C   UNL     1      -2.743   2.582  -2.287  0.00  0.00    +0.303 C 
ATOM      6  O   UNL     1      -2.119   2.885  -3.285  0.00  0.00    -0.253 OA
ATOM      7  N   UNL     1      -4.086   2.692  -2.272  0.00  0.00    -0.313 N 
ATOM      8  H   UNL     1      -2.588   1.894  -0.399  0.00  0.00    +0.159 HD
ATOM      9  H   UNL     1      -4.583   2.450  -1.475  0.00  0.00    +0.146 HD
ATOM     10  H   UNL     1      -4.555   3.014  -3.058  0.00  0.00    +0.146 HD
ENDBRANCH   1   2
BRANCH   1  12
ATOM     11  C   UNL     1      -1.433  -0.534   0.013  0.00  0.00    +0.009 C 
ATOM     12  C   UNL     1       0.002  -0.004   0.002  0.00  0.00    +0.005 C 
ATOM     13  C   UNL     1       0.718  -0.497  -1.257  0.00  0.00    +0.009 C 
ENDBRANCH   1  12
BRANCH   1  14
ATOM     14  S   UNL     1       1.679   2.152  -0.002  0.00  0.00    -0.073 S 
BRANCH  14  15
ATOM     15  C   UNL     1       2.235   1.562   1.562  0.00  0.00    +0.193 A 
ATOM     16  N   UNL     1       1.526   0.873   2.409  0.00  0.00    -0.145 NA
ATOM     17  N   UNL     1       2.329   0.600   3.525  0.00  0.00    -0.226 N 
ATOM     18  H   UNL     1       2.064   0.102   4.315  0.00  0.00    +0.194 HD
ATOM     19  C   UNL     1       3.537   1.156   3.300  0.00  0.00    +0.345 A 
ATOM     20  O   UNL     1       4.495   1.125   4.051  0.00  0.00    -0.245 OA
ATOM     21  N   UNL     1       3.493   1.747   2.089  0.00  0.00    -0.268 N 
BRANCH  21  22
ATOM     22  C   UNL     1       4.595   2.467   1.446  0.00  0.00    +0.094 C 
ATOM     23  C   UNL     1       5.973   2.385   2.106  0.00  0.00    +0.027 C 
ATOM     24  C   UNL     1       5.166   3.684   2.177  0.00  0.00    +0.027 C 
ENDBRANCH  21  22
ENDBRANCH  14  15
ENDBRANCH   1  14
TORSDOF 5
