REMARK  Name = ZINC01686321
REMARK  7 active torsions:
REMARK  status: ('A' for Active; 'I' for Inactive)
REMARK    1  A    between atoms: C_4  and  C_8
REMARK    2  A    between atoms: C_5  and  O_7
REMARK    3  A    between atoms: N_9  and  N_10
REMARK    4  A    between atoms: C_11  and  C_13
REMARK    5  A    between atoms: N_15  and  N_16
REMARK    6  A    between atoms: C_17  and  C_18
REMARK    7  A    between atoms: C_19  and  O_25
REMARK                            x       y       z     vdW  Elec       q    Type
REMARK                         _______ _______ _______ _____ _____    ______ ____
ROOT
ATOM      1  N   UNL     1       4.954  -2.649  -0.060  0.00  0.00    -0.199 N 
ATOM      2  C   UNL     1       4.980  -3.997  -0.068  0.00  0.00    +0.320 C 
ATOM      3  O   UNL     1       3.940  -4.625  -0.061  0.00  0.00    -0.263 OA
ATOM      4  H   UNL     1       5.784  -2.148  -0.066  0.00  0.00    +0.178 HD
ENDROOT
BRANCH   2   5
ATOM      5  C   UNL     1       6.284  -4.716  -0.085  0.00  0.00    +0.320 C 
ATOM      6  O   UNL     1       7.324  -4.089  -0.092  0.00  0.00    -0.263 OA
ATOM      7  N   UNL     1       6.310  -6.064  -0.092  0.00  0.00    -0.199 N 
ATOM      8  H   UNL     1       5.479  -6.565  -0.087  0.00  0.00    +0.178 HD
BRANCH   7   9
ATOM      9  N   UNL     1       7.536  -6.741  -0.108  0.00  0.00    -0.187 NA
ATOM     10  C   UNL     1       7.561  -8.040  -0.115  0.00  0.00    +0.142 C 
BRANCH  10  11
ATOM     11  C   UNL     1       8.851  -8.751  -0.132  0.00  0.00    +0.037 A 
ATOM     12  C   UNL     1      10.054  -8.031  -0.134  0.00  0.00    +0.126 A 
ATOM     13  C   UNL     1      11.261  -8.709  -0.150  0.00  0.00    +0.047 A 
ATOM     14  C   UNL     1      11.280 -10.091  -0.164  0.00  0.00    +0.023 A 
ATOM     15  C   UNL     1      10.094 -10.808  -0.162  0.00  0.00    +0.042 A 
ATOM     16  C   UNL     1       8.882 -10.148  -0.140  0.00  0.00    +0.033 A 
ATOM     17 CL   UNL     1      10.133 -12.544  -0.180  0.00  0.00    -0.084 Cl
BRANCH  12  18
ATOM     18  O   UNL     1      10.035  -6.673  -0.122  0.00  0.00    -0.506 OA
ATOM     19  H   UNL     1      10.036  -6.288   0.765  0.00  0.00    +0.292 HD
ENDBRANCH  12  18
ENDBRANCH  10  11
ENDBRANCH   7   9
ENDBRANCH   2   5
BRANCH   1  21
ATOM     20  C   UNL     1       3.702  -0.673  -0.037  0.00  0.00    +0.142 C 
ATOM     21  N   UNL     1       3.727  -1.973  -0.045  0.00  0.00    -0.187 NA
BRANCH  20  25
ATOM     22  C   UNL     1      -0.017   1.378   0.010  0.00  0.00    +0.023 A 
ATOM     23  C   UNL     1       1.169   2.095   0.002  0.00  0.00    +0.042 A 
ATOM     24  C   UNL     1       2.381   1.435  -0.013  0.00  0.00    +0.033 A 
ATOM     25  C   UNL     1       2.412   0.038  -0.021  0.00  0.00    +0.037 A 
ATOM     26  C   UNL     1       1.210  -0.683  -0.013  0.00  0.00    +0.126 A 
ATOM     27  C   UNL     1       0.002  -0.004   0.002  0.00  0.00    +0.047 A 
ATOM     28 CL   UNL     1       1.130   3.830   0.011  0.00  0.00    -0.084 Cl
BRANCH  26  29
ATOM     29  O   UNL     1       1.228  -2.041  -0.021  0.00  0.00    -0.506 OA
ATOM     30  H   UNL     1       1.242  -2.439   0.860  0.00  0.00    +0.292 HD
ENDBRANCH  26  29
ENDBRANCH  20  25
ENDBRANCH   1  21
TORSDOF 7
