REMARK  Name = ZINC57994138
REMARK  6 active torsions:
REMARK  status: ('A' for Active; 'I' for Inactive)
REMARK    1  A    between atoms: C_3  and  O_31
REMARK    2  A    between atoms: C_6  and  N_7
REMARK    3  A    between atoms: C_8  and  C_10
REMARK    4  A    between atoms: C_10  and  N_11
REMARK    5  A    between atoms: C_12  and  C_14
REMARK    6  A    between atoms: C_14  and  N_15
REMARK                            x       y       z     vdW  Elec       q    Type
REMARK                         _______ _______ _______ _____ _____    ______ ____
ROOT
ATOM      1  N   UNL     1      -2.198  -4.260  -0.311  0.00  0.00    -0.305 N 
ATOM      2  C   UNL     1      -3.212  -5.142  -0.417  0.00  0.00    +0.231 C 
ATOM      3  O   UNL     1      -4.359  -4.749  -0.422  0.00  0.00    -0.274 OA
ATOM      4  H   UNL     1      -1.280  -4.574  -0.307  0.00  0.00    +0.149 HD
ENDROOT
BRANCH   1   5
ATOM      5  C   UNL     1      -2.482  -2.827  -0.204  0.00  0.00    +0.200 C 
BRANCH   5   7
ATOM      6  N   UNL     1      -1.202  -0.721   0.010  0.00  0.00    -0.284 N 
ATOM      7  C   UNL     1      -1.186  -2.065  -0.099  0.00  0.00    +0.234 C 
ATOM      8  O   UNL     1      -0.129  -2.660  -0.113  0.00  0.00    -0.274 OA
ATOM      9  H   UNL     1      -2.046  -0.252   0.098  0.00  0.00    +0.155 HD
BRANCH   6  15
ATOM     10  C   UNL     1       1.071  -0.455  -0.766  0.00  0.00    +0.027 A 
ATOM     11  C   UNL     1       2.256   0.254  -0.780  0.00  0.00    +0.047 A 
ATOM     12  C   UNL     1       2.379   1.415  -0.032  0.00  0.00    +0.117 A 
ATOM     13  C   UNL     1       1.311   1.866   0.730  0.00  0.00    +0.047 A 
ATOM     14  C   UNL     1       0.126   1.159   0.745  0.00  0.00    +0.027 A 
ATOM     15  C   UNL     1       0.002  -0.004  -0.004  0.00  0.00    +0.034 A 
BRANCH  12  16
ATOM     16  O   UNL     1       3.547   2.112  -0.045  0.00  0.00    -0.507 OA
ATOM     17  H   UNL     1       3.594   2.787  -0.736  0.00  0.00    +0.292 HD
ENDBRANCH  12  16
ENDBRANCH   6  15
ENDBRANCH   5   7
ENDBRANCH   1   5
BRANCH   2  18
ATOM     18  C   UNL     1      -2.920  -6.616  -0.527  0.00  0.00    +0.212 C 
BRANCH  18  19
ATOM     19  N   UNL     1      -4.179  -7.357  -0.629  0.00  0.00    -0.233 N 
ATOM     20  C   UNL     1      -4.841  -7.810   0.442  0.00  0.00    +0.227 C 
ATOM     21  O   UNL     1      -4.490  -7.667   1.593  0.00  0.00    -0.275 OA
ATOM     22  C   UNL     1      -6.095  -8.526  -0.006  0.00  0.00    +0.095 C 
ATOM     23  C   UNL     1      -7.327  -7.659   0.404  0.00  0.00    +0.025 C 
ATOM     24  C   UNL     1      -8.296  -7.955  -0.798  0.00  0.00    +0.016 C 
ATOM     25  C   UNL     1      -7.264  -7.457  -1.874  0.00  0.00    +0.025 C 
ATOM     26  C   UNL     1      -6.039  -8.407  -1.558  0.00  0.00    +0.095 C 
ATOM     27  C   UNL     1      -4.764  -7.632  -1.800  0.00  0.00    +0.227 C 
ATOM     28  O   UNL     1      -4.337  -7.310  -2.889  0.00  0.00    -0.275 OA
ATOM     29  C   UNL     1      -6.872  -6.109  -1.256  0.00  0.00    -0.027 C 
ATOM     30  C   UNL     1      -6.900  -6.223   0.076  0.00  0.00    -0.027 C 
ENDBRANCH  18  19
ENDBRANCH   2  18
TORSDOF 6
