REMARK  Name = ZINC61612458
REMARK  6 active torsions:
REMARK  status: ('A' for Active; 'I' for Inactive)
REMARK    1  A    between atoms: C_4  and  C_7
REMARK    2  A    between atoms: C_7  and  C_9
REMARK    3  A    between atoms: C_7  and  C_11
REMARK    4  A    between atoms: C_9  and  N_10
REMARK    5  A    between atoms: N_13  and  C_14
REMARK    6  A    between atoms: C_14  and  C_20
REMARK                            x       y       z     vdW  Elec       q    Type
REMARK                         _______ _______ _______ _____ _____    ______ ____
ROOT
ATOM      1  C   UNL     1       3.806  -1.429  -1.394  0.00  0.00    +0.219 C 
ATOM      2  O   UNL     1       2.896  -1.356  -2.192  0.00  0.00    -0.275 OA
ATOM      3  N   UNL     1       4.797  -2.324  -1.581  0.00  0.00    -0.299 N 
ATOM      4  H   UNL     1       5.551  -2.347  -0.972  0.00  0.00    +0.150 HD
ENDROOT
BRANCH   3   5
ATOM      5  C   UNL     1       4.735  -3.260  -2.706  0.00  0.00    +0.136 C 
ATOM      6  C   UNL     1       3.477  -4.123  -2.583  0.00  0.00    +0.037 C 
ATOM      7  C   UNL     1       3.522  -4.905  -1.269  0.00  0.00    +0.003 C 
ATOM      8  C   UNL     1       4.761  -5.804  -1.253  0.00  0.00    +0.000 C 
ATOM      9  C   UNL     1       6.018  -4.942  -1.376  0.00  0.00    +0.003 C 
ATOM     10  C   UNL     1       5.973  -4.159  -2.690  0.00  0.00    +0.037 C 
BRANCH   5  11
ATOM     11  C   UNL     1       4.691  -2.489  -4.000  0.00  0.00    +0.379 C 
ATOM     12  O   UNL     1       4.709  -1.270  -3.984  0.00  0.00    -0.244 OA
ATOM     13  O   UNL     1       4.636  -3.085  -5.063  0.00  0.00    -0.244 OA
ENDBRANCH   5  11
ENDBRANCH   3   5
BRANCH   1  14
ATOM     14  C   UNL     1       3.829  -0.521  -0.192  0.00  0.00    +0.087 C 
BRANCH  14  18
ATOM     15  C   UNL     1       1.560   3.001  -1.028  0.00  0.00    +0.000 A 
ATOM     16  C   UNL     1       2.901   3.102  -0.710  0.00  0.00    +0.000 A 
ATOM     17  C   UNL     1       3.636   1.962  -0.439  0.00  0.00    +0.004 A 
ATOM     18  C   UNL     1       3.028   0.722  -0.486  0.00  0.00    -0.037 A 
ATOM     19  C   UNL     1       1.687   0.620  -0.803  0.00  0.00    +0.004 A 
ATOM     20  C   UNL     1       0.953   1.760  -1.075  0.00  0.00    +0.000 A 
ENDBRANCH  14  18
BRANCH  14  21
ATOM     21  C   UNL     1       3.219  -1.248   1.009  0.00  0.00    -0.069 C 
BRANCH  21  22
ATOM     22  N   UNL     1       3.358  -0.412   2.209  0.00  0.00    +0.379 N 
ATOM     23  H   UNL     1       4.326  -0.158   2.332  0.00  0.00    -0.090 HD
ATOM     24  H   UNL     1       2.801   0.423   2.104  0.00  0.00    -0.090 HD
ATOM     25  H   UNL     1       3.041  -0.928   3.016  0.00  0.00    -0.090 HD
ENDBRANCH  21  22
ENDBRANCH  14  21
ENDBRANCH   1  14
TORSDOF 6
