REMARK  Name = ZINC13142217
REMARK  7 active torsions:
REMARK  status: ('A' for Active; 'I' for Inactive)
REMARK    1  A    between atoms: C_1  and  C_2
REMARK    2  A    between atoms: C_3  and  C_15
REMARK    3  A    between atoms: C_4  and  C_7
REMARK    4  A    between atoms: N_17  and  N_18
REMARK    5  A    between atoms: C_19  and  C_20
REMARK    6  A    between atoms: C_20  and  O_21
REMARK    7  A    between atoms: O_21  and  C_22
REMARK                            x       y       z     vdW  Elec       q    Type
REMARK                         _______ _______ _______ _____ _____    ______ ____
ROOT
ATOM      1  C   UNL     1      -2.504  -0.567   0.478  0.00  0.00    +0.267 C 
ATOM      2  O   UNL     1      -3.234  -0.243  -0.439  0.00  0.00    -0.268 OA
ATOM      3  N   UNL     1      -2.986  -0.625   1.735  0.00  0.00    -0.224 N 
ATOM      4  H   UNL     1      -2.404  -0.884   2.467  0.00  0.00    +0.175 HD
ENDROOT
BRANCH   1   7
ATOM      5  C   UNL     1      -0.157   1.482   0.237  0.00  0.00    +0.090 C 
ATOM      6  C   UNL     1      -0.058  -0.016   0.107  0.00  0.00    +0.147 A 
ATOM      7  C   UNL     1      -1.093  -0.897   0.215  0.00  0.00    +0.108 A 
ATOM      8  C   UNL     1      -0.528  -2.241   0.018  0.00  0.00    +0.129 A 
ATOM      9  N   UNL     1       0.756  -2.087  -0.186  0.00  0.00    -0.077 NA
ATOM     10  O   UNL     1       1.058  -0.707  -0.139  0.00  0.00    -0.359 OA
BRANCH   8  11
ATOM     11  C   UNL     1      -1.271  -3.524   0.047  0.00  0.00    +0.041 A 
ATOM     12  C   UNL     1      -2.307  -3.754  -0.858  0.00  0.00    +0.052 A 
ATOM     13  C   UNL     1      -2.994  -4.952  -0.826  0.00  0.00    +0.021 A 
ATOM     14  C   UNL     1      -2.658  -5.921   0.101  0.00  0.00    +0.003 A 
ATOM     15  C   UNL     1      -1.631  -5.699   1.001  0.00  0.00    +0.021 A 
ATOM     16  C   UNL     1      -0.932  -4.508   0.976  0.00  0.00    +0.052 A 
ATOM     17 CL   UNL     1       0.360  -4.234   2.102  0.00  0.00    -0.083 Cl
ATOM     18 CL   UNL     1      -2.732  -2.537  -2.022  0.00  0.00    -0.083 Cl
ENDBRANCH   8  11
ENDBRANCH   1   7
BRANCH   3  19
ATOM     19  N   UNL     1      -4.329  -0.311   1.986  0.00  0.00    -0.292 N 
ATOM     20  C   UNL     1      -4.792  -0.367   3.193  0.00  0.00    +0.121 C 
ATOM     21  N   UNL     1      -3.962  -0.736   4.236  0.00  0.00    -0.344 N 
ATOM     22  H   UNL     1      -3.033  -0.953   4.062  0.00  0.00    +0.143 HD
ATOM     23  H   UNL     1      -4.309  -0.778   5.140  0.00  0.00    +0.143 HD
ATOM     24  H   UNL     1      -4.911  -0.053   1.254  0.00  0.00    +0.186 HD
BRANCH  20  25
ATOM     25  C   UNL     1      -6.236  -0.029   3.462  0.00  0.00    +0.299 C 
BRANCH  25  26
ATOM     26  O   UNL     1      -6.504  -0.164   4.859  0.00  0.00    -0.485 OA
BRANCH  26  27
ATOM     27  C   UNL     1      -7.770   0.106   5.274  0.00  0.00    +0.121 A 
ATOM     28  C   UNL     1      -8.735   0.487   4.353  0.00  0.00    +0.047 A 
ATOM     29  C   UNL     1     -10.022   0.761   4.776  0.00  0.00    +0.023 A 
ATOM     30  C   UNL     1     -10.347   0.656   6.117  0.00  0.00    +0.041 A 
ATOM     31  C   UNL     1      -9.385   0.277   7.037  0.00  0.00    +0.023 A 
ATOM     32  C   UNL     1      -8.100  -0.004   6.617  0.00  0.00    +0.047 A 
ATOM     33 CL   UNL     1     -11.964   1.001   6.646  0.00  0.00    -0.084 Cl
ENDBRANCH  26  27
ENDBRANCH  25  26
ENDBRANCH  20  25
ENDBRANCH   3  19
TORSDOF 6
