REMARK  Name = ZINC04963643
REMARK  7 active torsions:
REMARK  status: ('A' for Active; 'I' for Inactive)
REMARK    1  A    between atoms: C_1  and  C_2
REMARK    2  A    between atoms: C_4  and  C_8
REMARK    3  A    between atoms: C_5  and  C_7
REMARK    4  A    between atoms: N_10  and  N_11
REMARK    5  A    between atoms: N_11  and  C_12
REMARK    6  A    between atoms: C_17  and  C_19
REMARK    7  A    between atoms: C_17  and  C_20
REMARK                            x       y       z     vdW  Elec       q    Type
REMARK                         _______ _______ _______ _____ _____    ______ ____
ROOT
ATOM      1  C   UNL     1      -1.364  -3.419  -0.004  0.00  0.00    +0.263 C 
ATOM      2  O   UNL     1      -0.804  -4.498  -0.017  0.00  0.00    -0.269 OA
ATOM      3  N   UNL     1      -2.710  -3.359   0.002  0.00  0.00    -0.233 N 
ATOM      4  H   UNL     1      -3.157  -2.498   0.012  0.00  0.00    +0.173 HD
ENDROOT
BRANCH   1   8
ATOM      5  C   UNL     1      -0.016   1.501   0.038  0.00  0.00    +0.086 C 
ATOM      6  C   UNL     1       0.004  -0.005   0.024  0.00  0.00    +0.103 A 
ATOM      7  C   UNL     1      -1.079  -0.798   0.020  0.00  0.00    +0.057 A 
ATOM      8  C   UNL     1      -0.571  -2.177   0.004  0.00  0.00    +0.079 A 
ATOM      9  C   UNL     1       0.789  -2.067   0.000  0.00  0.00    +0.114 A 
ATOM     10  O   UNL     1       1.107  -0.769   0.006  0.00  0.00    -0.464 OA
ATOM     11  C   UNL     1       1.766  -3.214  -0.014  0.00  0.00    +0.087 C 
ENDBRANCH   1   8
BRANCH   3  12
ATOM     12  N   UNL     1      -3.464  -4.540  -0.006  0.00  0.00    -0.268 N 
ATOM     13  H   UNL     1      -3.021  -5.398  -0.090  0.00  0.00    +0.170 HD
BRANCH  12  14
ATOM     14  C   UNL     1      -4.821  -4.482   0.103  0.00  0.00    +0.026 C 
ATOM     15  C   UNL     1      -5.436  -3.279   0.112  0.00  0.00    +0.066 C 
ATOM     16  C   UNL     1      -6.824  -3.164   0.228  0.00  0.00    +0.158 C 
ATOM     17  O   UNL     1      -7.340  -2.064   0.230  0.00  0.00    -0.293 OA
ATOM     18  C   UNL     1      -7.688  -4.394   0.349  0.00  0.00    +0.085 C 
ATOM     19  C   UNL     1      -6.882  -5.507   1.026  0.00  0.00    -0.023 C 
ATOM     20  C   UNL     1      -5.610  -5.760   0.207  0.00  0.00    +0.059 C 
ATOM     21  C   UNL     1      -7.719  -6.786   1.078  0.00  0.00    +0.011 C 
ATOM     22  C   UNL     1      -6.507  -5.078   2.446  0.00  0.00    +0.011 C 
ENDBRANCH  12  14
ENDBRANCH   3  12
TORSDOF 3
