REMARK  Name = ZINC40802110
REMARK  5 active torsions:
REMARK  status: ('A' for Active; 'I' for Inactive)
REMARK    1  A    between atoms: C_1  and  C_2
REMARK    2  A    between atoms: C_11  and  N_12
REMARK    3  A    between atoms: C_14  and  N_27
REMARK    4  A    between atoms: C_15  and  N_19
REMARK    5  A    between atoms: N_19  and  C_20
REMARK                            x       y       z     vdW  Elec       q    Type
REMARK                         _______ _______ _______ _____ _____    ______ ____
ROOT
ATOM      1  N   UNL     1       0.096  -4.883  -1.139  0.00  0.00    -0.297 N 
ATOM      2  C   UNL     1       0.214  -6.268  -1.084  0.00  0.00    +0.149 A 
ATOM      3  C   UNL     1       0.320  -7.017  -2.258  0.00  0.00    +0.106 A 
ATOM      4  C   UNL     1       0.436  -8.404  -2.146  0.00  0.00    +0.149 A 
ATOM      5  N   UNL     1       0.440  -8.955  -0.934  0.00  0.00    -0.219 NA
ATOM      6  C   UNL     1       0.338  -8.211   0.148  0.00  0.00    +0.225 A 
ATOM      7  N   UNL     1       0.231  -6.899   0.087  0.00  0.00    -0.219 NA
ATOM      8  H   UNL     1      -0.002  -4.438  -1.995  0.00  0.00    +0.154 HD
ENDROOT
BRANCH   1  19
ATOM      9  C   UNL     1      -2.278   0.958   0.404  0.00  0.00    +0.063 C 
ATOM     10  C   UNL     1      -1.642  -0.404   0.292  0.00  0.00    +0.013 A 
ATOM     11  C   UNL     1      -1.710  -1.086  -0.920  0.00  0.00    +0.021 A 
ATOM     12  C   UNL     1      -1.138  -2.322  -1.039  0.00  0.00    +0.013 A 
ATOM     13  C   UNL     1      -0.493  -2.866   0.084  0.00  0.00    +0.020 A 
ATOM     14  C   UNL     1      -0.460  -2.119   1.288  0.00  0.00    +0.048 A 
ATOM     15  N   UNL     1      -1.034  -0.912   1.337  0.00  0.00    -0.358 N 
ATOM     16  C   UNL     1       0.184  -2.660   2.413  0.00  0.00    +0.026 A 
ATOM     17  C   UNL     1       0.768  -3.888   2.340  0.00  0.00    +0.004 A 
ATOM     18  C   UNL     1       0.742  -4.630   1.164  0.00  0.00    +0.024 A 
ATOM     19  C   UNL     1       0.120  -4.136   0.036  0.00  0.00    +0.042 A 
ATOM     20  H   UNL     1      -1.004  -0.405   2.163  0.00  0.00    +0.166 HD
ENDBRANCH   1  19
BRANCH   3  21
ATOM     21  N   UNL     1       0.311  -6.394  -3.515  0.00  0.00    -0.353 N 
ATOM     22  H   UNL     1       0.229  -5.429  -3.577  0.00  0.00    +0.143 HD
ATOM     23  H   UNL     1       0.386  -6.927  -4.322  0.00  0.00    +0.143 HD
ENDBRANCH   3  21
BRANCH   4  24
ATOM     24  N   UNL     1       0.545  -9.197  -3.282  0.00  0.00    -0.295 N 
ATOM     25  H   UNL     1       0.609  -8.785  -4.158  0.00  0.00    +0.154 HD
BRANCH  24  26
ATOM     26  C   UNL     1       0.562 -10.591  -3.163  0.00  0.00    +0.070 A 
ATOM     27  C   UNL     1       1.167 -11.199  -2.066  0.00  0.00    +0.028 A 
ATOM     28  C   UNL     1       1.158 -12.582  -1.993  0.00  0.00    +0.022 A 
ATOM     29  C   UNL     1       0.554 -13.309  -3.002  0.00  0.00    +0.112 A 
ATOM     30  N   UNL     1      -0.010 -12.704  -4.029  0.00  0.00    -0.242 NA
ATOM     31  C   UNL     1      -0.029 -11.389  -4.136  0.00  0.00    +0.150 A 
ATOM     32 CL   UNL     1      -0.794 -10.649  -5.507  0.00  0.00    -0.060 Cl
ENDBRANCH  24  26
ENDBRANCH   4  24
TORSDOF 4
