REMARK  Name = ZINC40853159
REMARK  8 active torsions:
REMARK  status: ('A' for Active; 'I' for Inactive)
REMARK    1  A    between atoms: C_1  and  S_2
REMARK    2  A    between atoms: S_2  and  C_5
REMARK    3  A    between atoms: C_5  and  C_6
REMARK    4  A    between atoms: C_6  and  C_7
REMARK    5  A    between atoms: C_7  and  C_9
REMARK    6  A    between atoms: C_7  and  N_22
REMARK    7  A    between atoms: N_11  and  C_12
REMARK    8  A    between atoms: C_13  and  C_20
REMARK                            x       y       z     vdW  Elec       q    Type
REMARK                         _______ _______ _______ _____ _____    ______ ____
ROOT
ATOM      1  C   UNL     1       1.939  -3.711  -3.107  0.00  0.00    +0.203 C 
ATOM      2  O   UNL     1       1.204  -4.384  -3.798  0.00  0.00    -0.277 OA
ATOM      3  N   UNL     1       2.949  -4.293  -2.430  0.00  0.00    -0.280 N 
ATOM      4  H   UNL     1       3.536  -3.755  -1.878  0.00  0.00    +0.155 HD
ENDROOT
BRANCH   3   5
ATOM      5  C   UNL     1       3.147  -5.664  -2.524  0.00  0.00    +0.090 A 
ATOM      6  C   UNL     1       4.117  -6.427  -1.903  0.00  0.00    +0.084 A 
ATOM      7  C   UNL     1       4.112  -7.864  -2.167  0.00  0.00    -0.018 A 
ATOM      8  C   UNL     1       3.138  -8.264  -3.005  0.00  0.00    -0.004 A 
ATOM      9  S   UNL     1       2.259  -6.776  -3.412  0.00  0.00    -0.077 S 
ATOM     10  C   UNL     1       3.180  -9.748  -3.247  0.00  0.00    +0.043 C 
ATOM     11  C   UNL     1       4.588 -10.180  -2.779  0.00  0.00    +0.010 C 
ATOM     12  C   UNL     1       4.926  -9.085  -1.747  0.00  0.00    +0.037 C 
BRANCH   6  13
ATOM     13  C   UNL     1       5.088  -5.832  -1.034  0.00  0.00    +0.102 C 
ATOM     14  N   UNL     1       5.859  -5.361  -0.346  0.00  0.00    -0.191 NA
ENDBRANCH   6  13
ENDBRANCH   3   5
BRANCH   1  15
ATOM     15  C   UNL     1       1.724  -2.223  -3.006  0.00  0.00    +0.015 C 
BRANCH  15  16
ATOM     16  N   UNL     1       0.923  -1.764  -4.149  0.00  0.00    +0.386 N 
ATOM     17  H   UNL     1       0.779  -0.768  -4.081  0.00  0.00    -0.089 HD
ATOM     18  H   UNL     1       1.410  -1.976  -5.007  0.00  0.00    -0.089 HD
ATOM     19  H   UNL     1       0.030  -2.235  -4.144  0.00  0.00    -0.089 HD
ENDBRANCH  15  16
BRANCH  15  20
ATOM     20  C   UNL     1       0.986  -1.902  -1.705  0.00  0.00    +0.015 C 
BRANCH  20  21
ATOM     21  C   UNL     1       0.877  -0.385  -1.541  0.00  0.00    +0.164 C 
BRANCH  21  23
ATOM     22  C   UNL     1      -0.022   1.810   0.012  0.00  0.00    +0.194 C 
ATOM     23  S   UNL     1       0.002  -0.004   0.002  0.00  0.00    -0.034 S 
ATOM     24  O   UNL     1       0.798  -0.449   1.092  0.00  0.00    -0.175 OA
ATOM     25  O   UNL     1      -1.335  -0.471  -0.113  0.00  0.00    -0.175 OA
ENDBRANCH  21  23
ENDBRANCH  20  21
ENDBRANCH  15  20
ENDBRANCH   1  15
TORSDOF 7
