REMARK  Name = ZINC39934820
REMARK  11 active torsions:
REMARK  status: ('A' for Active; 'I' for Inactive)
REMARK    1  A    between atoms: C_1  and  C_2
REMARK    2  A    between atoms: C_2  and  O_3
REMARK    3  A    between atoms: O_3  and  C_4
REMARK    4  A    between atoms: C_4  and  C_6
REMARK    5  A    between atoms: C_9  and  N_12
REMARK    6  A    between atoms: C_13  and  C_33
REMARK    7  A    between atoms: C_15  and  C_18
REMARK    8  A    between atoms: C_16  and  C_17
REMARK    9  A    between atoms: C_19  and  C_20
REMARK   10  A    between atoms: C_19  and  C_22
REMARK   11  A    between atoms: C_28  and  C_32
REMARK                            x       y       z     vdW  Elec       q    Type
REMARK                         _______ _______ _______ _____ _____    ______ ____
ROOT
ATOM      1  N   UNL     1       3.261  -4.033  -5.915  0.00  0.00    -0.317 N 
ATOM      2  C   UNL     1       2.930  -3.745  -7.209  0.00  0.00    +0.022 A 
ATOM      3  C   UNL     1       3.839  -4.296  -8.031  0.00  0.00    +0.031 A 
ATOM      4  C   UNL     1       4.815  -4.983  -7.176  0.00  0.00    -0.003 A 
ATOM      5  C   UNL     1       4.398  -4.774  -5.878  0.00  0.00    +0.028 A 
ATOM      6  C   UNL     1       5.083  -5.284  -4.635  0.00  0.00    +0.064 C 
ATOM      7  C   UNL     1       1.734  -2.938  -7.646  0.00  0.00    +0.064 C 
ENDROOT
BRANCH   1  11
ATOM      8  C   UNL     1       1.103  -2.802  -2.568  0.00  0.00    +0.059 A 
ATOM      9  C   UNL     1       1.725  -1.856  -3.388  0.00  0.00    +0.017 A 
ATOM     10  C   UNL     1       2.437  -2.266  -4.492  0.00  0.00    +0.027 A 
ATOM     11  C   UNL     1       2.538  -3.620  -4.793  0.00  0.00    +0.047 A 
ATOM     12  C   UNL     1       1.920  -4.565  -3.980  0.00  0.00    +0.027 A 
ATOM     13  C   UNL     1       1.210  -4.162  -2.870  0.00  0.00    +0.017 A 
BRANCH   8  14
ATOM     14  C   UNL     1       0.339  -2.366  -1.384  0.00  0.00    +0.339 C 
ATOM     15  O   UNL     1      -0.198  -3.190  -0.670  0.00  0.00    -0.245 OA
BRANCH  14  16
ATOM     16  O   UNL     1       0.236  -1.054  -1.094  0.00  0.00    -0.461 OA
BRANCH  16  18
ATOM     17  C   UNL     1      -0.524   0.817   0.234  0.00  0.00    +0.048 C 
ATOM     18  C   UNL     1      -0.519  -0.704   0.068  0.00  0.00    +0.229 C 
ENDBRANCH  16  18
ENDBRANCH  14  16
ENDBRANCH   8  14
ENDBRANCH   1  11
BRANCH   4  19
ATOM     19  C   UNL     1       5.998  -5.735  -7.614  0.00  0.00    +0.028 C 
ATOM     20  C   UNL     1       6.475  -5.574  -8.868  0.00  0.00    +0.072 C 
BRANCH  20  21
ATOM     21  C   UNL     1       7.592  -6.454  -9.368  0.00  0.00    +0.216 C 
ATOM     22  N   UNL     1       8.733  -5.630  -9.786  0.00  0.00    -0.359 N 
ATOM     23  C   UNL     1       8.937  -5.858 -11.051  0.00  0.00    +0.060 A 
ATOM     24  C   UNL     1       9.918  -5.340 -12.014  0.00  0.00    +0.027 A 
ATOM     25  C   UNL     1       9.886  -5.768 -13.292  0.00  0.00    +0.005 A 
ATOM     26  C   UNL     1       8.942  -6.702 -13.755  0.00  0.00    -0.048 A 
ATOM     27  C   UNL     1       7.999  -7.239 -12.956  0.00  0.00    +0.030 A 
ATOM     28  C   UNL     1       7.938  -6.847 -11.541  0.00  0.00    +0.061 A 
ATOM     29  N   UNL     1       7.156  -7.194 -10.559  0.00  0.00    -0.359 N 
ATOM     30  C   UNL     1       8.987  -7.118 -15.203  0.00  0.00    +0.044 C 
ATOM     31  H   UNL     1       9.243  -5.027  -9.222  0.00  0.00    +0.162 HD
ATOM     32  H   UNL     1       6.421  -7.825 -10.605  0.00  0.00    +0.162 HD
ENDBRANCH  20  21
BRANCH  20  33
ATOM     33  C   UNL     1       5.919  -4.568  -9.722  0.00  0.00    +0.099 C 
ATOM     34  N   UNL     1       5.478  -3.770 -10.399  0.00  0.00    -0.191 NA
ENDBRANCH  20  33
ENDBRANCH   4  19
TORSDOF 7
