REMARK  Name = ZINC40539297
REMARK  6 active torsions:
REMARK  status: ('A' for Active; 'I' for Inactive)
REMARK    1  A    between atoms: C_1  and  C_2
REMARK    2  A    between atoms: C_3  and  C_22
REMARK    3  A    between atoms: C_5  and  C_21
REMARK    4  A    between atoms: C_6  and  C_7
REMARK    5  A    between atoms: C_13  and  C_16
REMARK    6  A    between atoms: C_16  and  N_17
REMARK                            x       y       z     vdW  Elec       q    Type
REMARK                         _______ _______ _______ _____ _____    ______ ____
ROOT
ATOM      1  C   UNL     1       0.034  -0.502   2.591  0.00  0.00    +0.250 C 
ATOM      2  O   UNL     1      -1.015  -0.354   3.188  0.00  0.00    -0.270 OA
ATOM      3  N   UNL     1       1.205  -0.307   3.229  0.00  0.00    -0.297 N 
ATOM      4  C   UNL     1       2.481  -0.477   2.520  0.00  0.00    +0.108 C 
ATOM      5  C   UNL     1       3.357  -1.456   3.308  0.00  0.00    +0.019 C 
ATOM      6  C   UNL     1       3.499  -0.961   4.750  0.00  0.00    +0.008 C 
ATOM      7  C   UNL     1       2.120  -0.906   5.411  0.00  0.00    +0.024 C 
ATOM      8  C   UNL     1       1.230   0.085   4.645  0.00  0.00    +0.113 C 
ENDROOT
BRANCH   1  14
ATOM      9  C   UNL     1      -0.018   1.503   0.010  0.00  0.00    +0.048 C 
ATOM     10  C   UNL     1       0.002  -0.004   0.002  0.00  0.00    +0.003 A 
ATOM     11  C   UNL     1       0.009  -0.806  -1.074  0.00  0.00    +0.106 A 
ATOM     12  O   UNL     1       0.028  -2.085  -0.668  0.00  0.00    -0.464 OA
ATOM     13  C   UNL     1       0.034  -2.163   0.666  0.00  0.00    +0.115 A 
ATOM     14  C   UNL     1       0.025  -0.895   1.171  0.00  0.00    +0.081 A 
ATOM     15  C   UNL     1       0.054  -3.434   1.475  0.00  0.00    +0.087 C 
ATOM     16  C   UNL     1      -0.003  -0.344  -2.508  0.00  0.00    +0.086 C 
ENDBRANCH   1  14
BRANCH   7  17
ATOM     17  C   UNL     1       2.267  -0.443   6.861  0.00  0.00    +0.110 C 
BRANCH  17  18
ATOM     18  N   UNL     1       0.964  -0.505   7.528  0.00  0.00    -0.299 N 
ATOM     19  C   UNL     1       0.851  -0.141   8.821  0.00  0.00    +0.297 C 
ATOM     20  O   UNL     1       1.830   0.239   9.434  0.00  0.00    -0.253 OA
ATOM     21  N   UNL     1      -0.347  -0.198   9.435  0.00  0.00    -0.313 N 
ATOM     22  H   UNL     1       0.183  -0.807   7.040  0.00  0.00    +0.150 HD
ATOM     23  H   UNL     1      -1.129  -0.501   8.946  0.00  0.00    +0.146 HD
ATOM     24  H   UNL     1      -0.429   0.064  10.365  0.00  0.00    +0.146 HD
ENDBRANCH  17  18
ENDBRANCH   7  17
TORSDOF 3
