REMARK  Name = ZINC44761731
REMARK  4 active torsions:
REMARK  status: ('A' for Active; 'I' for Inactive)
REMARK    1  A    between atoms: C_5  and  C_8
REMARK    2  A    between atoms: C_5  and  C_10
REMARK    3  A    between atoms: C_8  and  N_9
REMARK    4  A    between atoms: C_15  and  C_18
REMARK                            x       y       z     vdW  Elec       q    Type
REMARK                         _______ _______ _______ _____ _____    ______ ____
ROOT
ATOM      1  C   UNL     1       2.817   0.011  -0.979  0.00  0.00    +0.220 C 
ATOM      2  O   UNL     1       2.751  -0.411   0.156  0.00  0.00    -0.275 OA
ATOM      3  N   UNL     1       3.956   0.579  -1.421  0.00  0.00    -0.301 N 
ATOM      4  C   UNL     1       4.097   0.978  -2.828  0.00  0.00    +0.108 C 
ATOM      5  C   UNL     1       5.369   0.340  -3.396  0.00  0.00    +0.032 C 
ATOM      6  C   UNL     1       6.561   0.716  -2.514  0.00  0.00    +0.078 C 
ATOM      7  C   UNL     1       6.341   0.177  -1.099  0.00  0.00    +0.032 C 
ATOM      8  C   UNL     1       5.079   0.818  -0.503  0.00  0.00    +0.108 C 
ENDROOT
BRANCH   1  13
ATOM      9  C   UNL     1       0.217   1.673   0.092  0.00  0.00    +0.000 C 
ATOM     10  C   UNL     1       1.590   2.227  -0.177  0.00  0.00    +0.000 C 
ATOM     11  C   UNL     1       1.867   2.411  -1.681  0.00  0.00    +0.001 C 
ATOM     12  C   UNL     1       1.352   1.235  -2.533  0.00  0.00    +0.014 C 
ATOM     13  C   UNL     1       1.626  -0.100  -1.895  0.00  0.00    +0.032 C 
ATOM     14  C   UNL     1       0.384  -0.519  -1.082  0.00  0.00    +0.014 C 
ATOM     15  C   UNL     1       0.322   0.139   0.215  0.00  0.00    +0.001 C 
BRANCH  13  16
ATOM     16  C   UNL     1       1.903  -1.141  -2.982  0.00  0.00    -0.070 C 
BRANCH  16  17
ATOM     17  N   UNL     1       2.042  -2.467  -2.365  0.00  0.00    +0.379 N 
ATOM     18  H   UNL     1       2.736  -2.427  -1.634  0.00  0.00    -0.090 HD
ATOM     19  H   UNL     1       1.157  -2.751  -1.974  0.00  0.00    -0.090 HD
ATOM     20  H   UNL     1       2.330  -3.135  -3.065  0.00  0.00    -0.090 HD
ENDBRANCH  16  17
ENDBRANCH  13  16
ENDBRANCH   1  13
BRANCH   6  21
ATOM     21  C   UNL     1       7.820   0.118  -3.089  0.00  0.00    +0.214 C 
ATOM     22  O   UNL     1       7.768  -0.543  -4.104  0.00  0.00    -0.276 OA
ATOM     23  N   UNL     1       9.003   0.319  -2.475  0.00  0.00    -0.329 N 
ATOM     24  H   UNL     1       9.044   0.848  -1.663  0.00  0.00    +0.145 HD
ATOM     25  H   UNL     1       9.812  -0.066  -2.845  0.00  0.00    +0.145 HD
ENDBRANCH   6  21
TORSDOF 4
