REMARK  Name = ZINC55273564
REMARK  4 active torsions:
REMARK  status: ('A' for Active; 'I' for Inactive)
REMARK    1  A    between atoms: C_1  and  C_2
REMARK    2  A    between atoms: C_4  and  C_7
REMARK    3  A    between atoms: C_7  and  C_8
REMARK    4  A    between atoms: C_10  and  C_13
REMARK                            x       y       z     vdW  Elec       q    Type
REMARK                         _______ _______ _______ _____ _____    ______ ____
ROOT
ATOM      1  C   UNL     1      -2.899  -2.787   1.164  0.00  0.00    +0.178 A 
ATOM      2  N   UNL     1      -2.790  -3.318   2.383  0.00  0.00    -0.190 NA
ATOM      3  C   UNL     1      -3.732  -2.839   3.168  0.00  0.00    +0.277 A 
ATOM      4  O   UNL     1      -4.472  -1.976   2.448  0.00  0.00    -0.331 OA
ATOM      5  N   UNL     1      -3.904  -1.958   1.147  0.00  0.00    -0.060 NA
ENDROOT
BRANCH   3   6
ATOM      6  C   UNL     1      -3.939  -3.185   4.585  0.00  0.00    +0.137 A 
ATOM      7  C   UNL     1      -4.965  -2.618   5.296  0.00  0.00    +0.081 A 
ATOM      8  S   UNL     1      -4.729  -3.387   6.893  0.00  0.00    -0.060 S 
ATOM      9  C   UNL     1      -3.304  -4.376   6.461  0.00  0.00    +0.156 A 
ATOM     10  N   UNL     1      -3.135  -4.059   5.192  0.00  0.00    -0.220 NA
ATOM     11  N   UNL     1      -2.574  -5.249   7.250  0.00  0.00    -0.338 N 
ATOM     12  H   UNL     1      -2.821  -5.387   8.177  0.00  0.00    +0.144 HD
ATOM     13  H   UNL     1      -1.815  -5.722   6.874  0.00  0.00    +0.144 HD
ENDBRANCH   3   6
BRANCH   1  14
ATOM     14  C   UNL     1      -1.999  -3.093  -0.006  0.00  0.00    +0.135 C 
BRANCH  14  18
ATOM     15  C   UNL     1      -0.018   1.503   0.010  0.00  0.00    +0.073 C 
ATOM     16  C   UNL     1       0.002  -0.004   0.002  0.00  0.00    +0.076 A 
ATOM     17  N   UNL     1      -1.013  -0.832   0.002  0.00  0.00    -0.249 NA
ATOM     18  C   UNL     1      -0.834  -2.137  -0.006  0.00  0.00    +0.056 A 
ATOM     19  C   UNL     1       0.449  -2.582  -0.014  0.00  0.00    +0.070 A 
ATOM     20  S   UNL     1       1.335  -1.032  -0.017  0.00  0.00    -0.081 S 
ENDBRANCH  14  18
ENDBRANCH   1  14
TORSDOF 3
