REMARK  Name = ZINC67409780
REMARK  10 active torsions:
REMARK  status: ('A' for Active; 'I' for Inactive)
REMARK    1  A    between atoms: C_1  and  C_2
REMARK    2  A    between atoms: C_4  and  C_7
REMARK    3  A    between atoms: C_7  and  N_8
REMARK    4  A    between atoms: N_11  and  C_12
REMARK    5  A    between atoms: C_12  and  C_14
REMARK    6  A    between atoms: C_12  and  C_15
REMARK    7  A    between atoms: C_19  and  S_21
REMARK    8  A    between atoms: S_21  and  N_24
REMARK    9  A    between atoms: N_24  and  C_25
REMARK   10  A    between atoms: N_24  and  C_26
REMARK                            x       y       z     vdW  Elec       q    Type
REMARK                         _______ _______ _______ _____ _____    ______ ____
ROOT
ATOM      1  C   UNL     1      -3.435  -6.533  -3.171  0.00  0.00    +0.102 C 
ATOM      2  C   UNL     1      -4.908  -6.129  -3.256  0.00  0.00    +0.033 C 
ENDROOT
BRANCH   1   6
ATOM      3  N   UNL     1      -1.691  -3.832  -1.387  0.00  0.00    -0.294 N 
ATOM      4  C   UNL     1      -2.442  -4.923  -1.635  0.00  0.00    +0.300 C 
ATOM      5  O   UNL     1      -2.961  -5.526  -0.715  0.00  0.00    -0.253 OA
ATOM      6  N   UNL     1      -2.619  -5.346  -2.902  0.00  0.00    -0.293 N 
ATOM      7  H   UNL     1      -1.278  -3.351  -2.121  0.00  0.00    +0.151 HD
ATOM      8  H   UNL     1      -2.205  -4.865  -3.636  0.00  0.00    +0.151 HD
BRANCH   3   9
ATOM      9  C   UNL     1      -1.500  -3.372  -0.010  0.00  0.00    +0.164 C 
BRANCH   9  13
ATOM     10  C   UNL     1      -0.018   1.503   0.010  0.00  0.00    +0.089 C 
ATOM     11  C   UNL     1       0.002  -0.004   0.002  0.00  0.00    +0.135 A 
ATOM     12  C   UNL     1      -1.077  -0.810   0.003  0.00  0.00    +0.072 A 
ATOM     13  C   UNL     1      -0.627  -2.143  -0.007  0.00  0.00    +0.101 A 
ATOM     14  N   UNL     1       0.676  -2.130  -0.013  0.00  0.00    -0.081 NA
ATOM     15  O   UNL     1       1.098  -0.778  -0.013  0.00  0.00    -0.360 OA
ENDBRANCH   9  13
ENDBRANCH   3   9
ENDBRANCH   1   6
BRANCH   1  16
ATOM     16  C   UNL     1      -3.007  -7.151  -4.478  0.00  0.00    -0.026 A 
ATOM     17  C   UNL     1      -2.683  -6.343  -5.551  0.00  0.00    +0.005 A 
ATOM     18  C   UNL     1      -2.290  -6.910  -6.749  0.00  0.00    +0.002 A 
ATOM     19  C   UNL     1      -2.222  -8.286  -6.873  0.00  0.00    +0.028 A 
ATOM     20  C   UNL     1      -2.546  -9.093  -5.799  0.00  0.00    +0.106 A 
ATOM     21  C   UNL     1      -2.934  -8.526  -4.600  0.00  0.00    +0.034 A 
BRANCH  20  22
ATOM     22  S   UNL     1      -2.459 -10.846  -5.958  0.00  0.00    +0.060 S 
ATOM     23  O   UNL     1      -3.336 -11.386  -4.979  0.00  0.00    -0.153 OA
ATOM     24  O   UNL     1      -2.592 -11.136  -7.343  0.00  0.00    -0.153 OA
BRANCH  22  25
ATOM     25  N   UNL     1      -0.927 -11.302  -5.524  0.00  0.00    -0.183 NA
ATOM     26  C   UNL     1      -0.628 -11.631  -4.128  0.00  0.00    +0.131 C 
ATOM     27  C   UNL     1       0.130 -11.376  -6.536  0.00  0.00    +0.131 C 
ENDBRANCH  22  25
ENDBRANCH  20  22
ENDBRANCH   1  16
TORSDOF 6
