REMARK  Name = ZINC63652102
REMARK  8 active torsions:
REMARK  status: ('A' for Active; 'I' for Inactive)
REMARK    1  A    between atoms: C_8  and  C_24
REMARK    2  A    between atoms: N_9  and  C_10
REMARK    3  A    between atoms: C_10  and  C_11
REMARK    4  A    between atoms: C_11  and  C_12
REMARK    5  A    between atoms: C_11  and  O_23
REMARK    6  A    between atoms: C_12  and  O_13
REMARK    7  A    between atoms: O_13  and  C_14
REMARK    8  A    between atoms: C_24  and  C_25
REMARK                            x       y       z     vdW  Elec       q    Type
REMARK                         _______ _______ _______ _____ _____    ______ ____
ROOT
ATOM      1  C   UNL     1      -0.016   1.362   0.009  0.00  0.00    +0.002 A 
ATOM      2  C   UNL     1       1.167   2.086   0.002  0.00  0.00    +0.002 A 
ATOM      3  C   UNL     1       2.383   1.437  -0.013  0.00  0.00    +0.028 A 
ATOM      4  C   UNL     1       2.422   0.049  -0.021  0.00  0.00    +0.069 A 
ATOM      5  C   UNL     1       1.223  -0.684  -0.013  0.00  0.00    +0.089 A 
ATOM      6  C   UNL     1       0.002  -0.004   0.002  0.00  0.00    +0.030 A 
ATOM      7  N   UNL     1       1.563  -1.998  -0.024  0.00  0.00    -0.232 NA
ATOM      8  C   UNL     1       2.858  -2.115  -0.037  0.00  0.00    +0.120 A 
ATOM      9  N   UNL     1       3.439  -0.885  -0.036  0.00  0.00    -0.325 N 
ENDROOT
BRANCH   9  10
ATOM     10  C   UNL     1       4.876  -0.603  -0.050  0.00  0.00    +0.158 C 
BRANCH  10  11
ATOM     11  C   UNL     1       5.391  -0.512   1.388  0.00  0.00    +0.171 C 
BRANCH  11  12
ATOM     12  O   UNL     1       5.262  -1.786   2.022  0.00  0.00    -0.387 OA
ATOM     13  H   UNL     1       5.756  -2.494   1.586  0.00  0.00    +0.210 HD
ENDBRANCH  11  12
BRANCH  11  14
ATOM     14  C   UNL     1       6.864  -0.095   1.377  0.00  0.00    +0.262 C 
BRANCH  14  15
ATOM     15  O   UNL     1       7.313   0.103   2.719  0.00  0.00    -0.489 OA
BRANCH  15  16
ATOM     16  C   UNL     1       8.608   0.479   2.887  0.00  0.00    +0.124 A 
ATOM     17  C   UNL     1       9.427   0.659   1.782  0.00  0.00    +0.049 A 
ATOM     18  C   UNL     1      10.744   1.042   1.951  0.00  0.00    +0.053 A 
ATOM     19  C   UNL     1      11.251   1.246   3.224  0.00  0.00    +0.166 A 
ATOM     20  C   UNL     1      10.431   1.066   4.335  0.00  0.00    +0.170 A 
ATOM     21  C   UNL     1       9.109   0.688   4.163  0.00  0.00    +0.095 A 
ATOM     22  O   UNL     1      11.158   1.326   5.461  0.00  0.00    -0.452 OA
ATOM     23  C   UNL     1      12.537   1.270   5.050  0.00  0.00    +0.466 C 
ATOM     24  O   UNL     1      12.492   1.620   3.654  0.00  0.00    -0.453 OA
ENDBRANCH  15  16
ENDBRANCH  14  15
ENDBRANCH  11  14
ENDBRANCH  10  11
ENDBRANCH   9  10
BRANCH   8  25
ATOM     25  C   UNL     1       3.607  -3.423  -0.051  0.00  0.00    +0.169 C 
BRANCH  25  26
ATOM     26  C   UNL     1       3.843  -3.851  -1.477  0.00  0.00    +0.218 C 
ATOM     27  O   UNL     1       3.443  -3.163  -2.391  0.00  0.00    -0.276 OA
ATOM     28  N   UNL     1       4.499  -5.000  -1.735  0.00  0.00    -0.329 N 
ATOM     29  H   UNL     1       4.820  -5.551  -1.004  0.00  0.00    +0.145 HD
ATOM     30  H   UNL     1       4.651  -5.276  -2.653  0.00  0.00    +0.145 HD
ENDBRANCH  25  26
ENDBRANCH   8  25
TORSDOF 8
