REMARK  Name = ZINC52834505
REMARK  3 active torsions:
REMARK  status: ('A' for Active; 'I' for Inactive)
REMARK    1  A    between atoms: C_1  and  N_2
REMARK    2  A    between atoms: C_3  and  C_5
REMARK    3  A    between atoms: N_12  and  O_13
REMARK                            x       y       z     vdW  Elec       q    Type
REMARK                         _______ _______ _______ _____ _____    ______ ____
ROOT
ATOM      1  C   UNL     1       0.608  -2.170  -1.017  0.00  0.00    +0.078 C 
ATOM      2  C   UNL     1       1.339  -2.685   0.224  0.00  0.00    +0.032 C 
ATOM      3  C   UNL     1       1.327  -4.217   0.220  0.00  0.00    +0.108 C 
ATOM      4  N   UNL     1       1.889  -4.691  -1.051  0.00  0.00    -0.301 N 
ATOM      5  C   UNL     1       1.318  -4.187  -2.308  0.00  0.00    +0.108 C 
ATOM      6  C   UNL     1       1.331  -2.656  -2.276  0.00  0.00    +0.032 C 
ATOM      7  C   UNL     1       2.934  -5.593  -1.065  0.00  0.00    +0.218 C 
ATOM      8  N   UNL     1       3.500  -5.949   0.050  0.00  0.00    -0.055 NA
ATOM      9  N   UNL     1       3.378  -6.116  -2.263  0.00  0.00    -0.328 N 
ATOM     10  H   UNL     1       3.005  -5.797  -3.099  0.00  0.00    +0.145 HD
ATOM     11  H   UNL     1       4.063  -6.802  -2.268  0.00  0.00    +0.145 HD
ENDROOT
BRANCH   1  14
ATOM     12  C   UNL     1      -0.019   1.456   0.039  0.00  0.00    +0.128 C 
ATOM     13  N   UNL     1      -0.000  -0.009   0.022  0.00  0.00    -0.318 N 
ATOM     14  C   UNL     1       0.588  -0.663  -0.999  0.00  0.00    +0.216 C 
ATOM     15  O   UNL     1       1.102  -0.039  -1.903  0.00  0.00    -0.276 OA
ATOM     16  H   UNL     1      -0.411  -0.508   0.745  0.00  0.00    +0.148 HD
ENDBRANCH   1  14
BRANCH   8  17
ATOM     17  O   UNL     1       4.572  -6.874   0.035  0.00  0.00    -0.407 OA
ATOM     18  H   UNL     1       4.928  -7.078   0.911  0.00  0.00    +0.328 HD
ENDBRANCH   8  17
TORSDOF 2
