REMARK  Name = ZINC43576681
REMARK  4 active torsions:
REMARK  status: ('A' for Active; 'I' for Inactive)
REMARK    1  A    between atoms: C_1  and  N_2
REMARK    2  A    between atoms: N_2  and  C_3
REMARK    3  A    between atoms: C_3  and  C_5
REMARK    4  A    between atoms: C_3  and  C_17
REMARK                            x       y       z     vdW  Elec       q    Type
REMARK                         _______ _______ _______ _____ _____    ______ ____
ROOT
ATOM      1  C   UNL     1       0.690  -0.478  -1.207  0.00  0.00    -0.010 C 
ENDROOT
BRANCH   1   2
ATOM      2  C   UNL     1       2.137  -0.060  -1.158  0.00  0.00    -0.055 A 
ATOM      3  C   UNL     1       2.834  -0.128   0.036  0.00  0.00    +0.004 A 
ATOM      4  C   UNL     1       4.160   0.253   0.091  0.00  0.00    +0.028 A 
ATOM      5  C   UNL     1       4.796   0.706  -1.055  0.00  0.00    +0.067 A 
ATOM      6  C   UNL     1       4.093   0.775  -2.259  0.00  0.00    +0.067 A 
ATOM      7  C   UNL     1       2.763   0.385  -2.306  0.00  0.00    +0.030 A 
ATOM      8  N   UNL     1       4.981   1.258  -3.217  0.00  0.00    -0.306 N 
ATOM      9  H   UNL     1       4.778   1.414  -4.153  0.00  0.00    +0.170 HD
ATOM     10  C   UNL     1       6.170   1.473  -2.623  0.00  0.00    +0.325 A 
ATOM     11  O   UNL     1       7.165   1.897  -3.180  0.00  0.00    -0.247 OA
ATOM     12  N   UNL     1       6.090   1.149  -1.319  0.00  0.00    -0.306 N 
ATOM     13  H   UNL     1       6.811   1.214  -0.672  0.00  0.00    +0.170 HD
ENDBRANCH   1   2
BRANCH   1  14
ATOM     14  C   UNL     1       0.603  -1.981  -1.277  0.00  0.00    -0.054 A 
ATOM     15  C   UNL     1       0.741  -2.736  -0.127  0.00  0.00    +0.003 A 
ATOM     16  C   UNL     1       0.662  -4.114  -0.190  0.00  0.00    +0.018 A 
ATOM     17  C   UNL     1       0.445  -4.740  -1.404  0.00  0.00    +0.053 A 
ATOM     18  C   UNL     1       0.307  -3.984  -2.557  0.00  0.00    +0.137 A 
ATOM     19  C   UNL     1       0.380  -2.603  -2.491  0.00  0.00    +0.041 A 
ATOM     20  F   UNL     1       0.095  -4.594  -3.744  0.00  0.00    -0.204 F 
ATOM     21 BR   UNL     1       0.338  -6.626  -1.491  0.00  0.00    -0.047 Br
ENDBRANCH   1  14
BRANCH   1  23
ATOM     22  C   UNL     1      -0.018   1.465   0.010  0.00  0.00    -0.099 C 
ATOM     23  N   UNL     1       0.002  -0.004   0.002  0.00  0.00    +0.384 N 
ATOM     24  H   UNL     1       0.490  -0.338   0.820  0.00  0.00    -0.085 HD
ATOM     25  H   UNL     1      -0.945  -0.353   0.009  0.00  0.00    -0.085 HD
ENDBRANCH   1  23
TORSDOF 3
