REMARK  Name = ZINC62563877
REMARK  7 active torsions:
REMARK  status: ('A' for Active; 'I' for Inactive)
REMARK    1  A    between atoms: C_1  and  C_2
REMARK    2  A    between atoms: C_5  and  C_8
REMARK    3  A    between atoms: C_15  and  N_24
REMARK    4  A    between atoms: C_17  and  C_20
REMARK    5  A    between atoms: C_20  and  C_21
REMARK    6  A    between atoms: C_20  and  C_22
REMARK    7  A    between atoms: C_20  and  C_23
REMARK                            x       y       z     vdW  Elec       q    Type
REMARK                         _______ _______ _______ _____ _____    ______ ____
ROOT
ATOM      1  C   UNL     1       0.059  -4.275  -0.021  0.00  0.00    +0.289 C 
ATOM      2  C   UNL     1       1.467  -4.760   0.213  0.00  0.00    +0.263 C 
ATOM      3  O   UNL     1       2.204  -4.971  -0.727  0.00  0.00    -0.271 OA
ATOM      4  N   UNL     1       1.906  -4.959   1.476  0.00  0.00    -0.279 N 
ATOM      5  C   UNL     1       1.023  -4.742   2.544  0.00  0.00    +0.078 A 
ATOM      6  C   UNL     1       1.499  -4.620   3.838  0.00  0.00    +0.049 A 
ATOM      7  C   UNL     1       0.608  -4.406   4.882  0.00  0.00    +0.027 A 
ATOM      8  C   UNL     1      -0.754  -4.316   4.627  0.00  0.00    +0.030 A 
ATOM      9  C   UNL     1      -1.228  -4.438   3.334  0.00  0.00    +0.003 A 
ATOM     10  C   UNL     1      -0.344  -4.650   2.290  0.00  0.00    +0.147 A 
ATOM     11  O   UNL     1      -0.796  -4.768   1.013  0.00  0.00    -0.473 OA
ATOM     12  H   UNL     1       2.817  -5.248   1.641  0.00  0.00    +0.155 HD
ENDROOT
BRANCH   1  17
ATOM     13  C   UNL     1      -0.018   1.503   0.010  0.00  0.00    +0.044 C 
ATOM     14  C   UNL     1       0.002  -0.004   0.002  0.00  0.00    -0.050 A 
ATOM     15  C   UNL     1       0.006  -0.689  -1.199  0.00  0.00    +0.004 A 
ATOM     16  C   UNL     1       0.025  -2.071  -1.206  0.00  0.00    +0.008 A 
ATOM     17  C   UNL     1       0.040  -2.768  -0.013  0.00  0.00    +0.002 A 
ATOM     18  C   UNL     1       0.037  -2.084   1.188  0.00  0.00    +0.008 A 
ATOM     19  C   UNL     1       0.023  -0.702   1.195  0.00  0.00    +0.004 A 
ENDBRANCH   1  17
BRANCH   9  20
ATOM     20  C   UNL     1      -2.707  -4.340   3.061  0.00  0.00    -0.009 C 
ATOM     21  C   UNL     1      -3.454  -4.106   4.375  0.00  0.00    +0.015 C 
ATOM     22  C   UNL     1      -2.974  -3.173   2.108  0.00  0.00    +0.015 C 
ATOM     23  C   UNL     1      -3.195  -5.642   2.422  0.00  0.00    +0.015 C 
ENDBRANCH   9  20
BRANCH   7  24
ATOM     24  N   UNL     1       1.084  -4.282   6.192  0.00  0.00    -0.358 N 
ATOM     25  H   UNL     1       2.035  -4.346   6.371  0.00  0.00    +0.142 HD
ATOM     26  H   UNL     1       0.462  -4.133   6.922  0.00  0.00    +0.142 HD
ENDBRANCH   7  24
TORSDOF 3
