REMARK  Name = ZINC20086721
REMARK  4 active torsions:
REMARK  status: ('A' for Active; 'I' for Inactive)
REMARK    1  A    between atoms: C_1  and  C_2
REMARK    2  A    between atoms: C_6  and  C_7
REMARK    3  A    between atoms: C_9  and  C_25
REMARK    4  A    between atoms: C_10  and  N_24
REMARK                            x       y       z     vdW  Elec       q    Type
REMARK                         _______ _______ _______ _____ _____    ______ ____
ROOT
ATOM      1  C   UNL     1       0.030  -0.179   2.581  0.00  0.00    +0.109 C 
ATOM      2  C   UNL     1      -1.189  -0.682   3.302  0.00  0.00    +0.099 C 
ATOM      3  C   UNL     1      -1.097  -1.711   4.180  0.00  0.00    +0.199 C 
ATOM      4  O   UNL     1       0.079  -2.311   4.430  0.00  0.00    -0.437 OA
ATOM      5  C   UNL     1       1.239  -1.674   4.153  0.00  0.00    +0.185 C 
ATOM      6  C   UNL     1       1.279  -0.651   3.280  0.00  0.00    +0.059 C 
ATOM      7  C   UNL     1       2.548   0.029   2.989  0.00  0.00    +0.194 C 
ATOM      8  O   UNL     1       2.571   0.955   2.200  0.00  0.00    -0.287 OA
ATOM      9  C   UNL     1       3.797  -0.405   3.650  0.00  0.00    +0.033 A 
ATOM     10  C   UNL     1       5.004   0.227   3.381  0.00  0.00    +0.012 A 
ATOM     11  C   UNL     1       6.161  -0.199   4.014  0.00  0.00    +0.001 A 
ATOM     12  C   UNL     1       6.123  -1.250   4.911  0.00  0.00    +0.001 A 
ATOM     13  C   UNL     1       4.926  -1.891   5.190  0.00  0.00    +0.012 A 
ATOM     14  C   UNL     1       3.757  -1.474   4.563  0.00  0.00    +0.036 A 
ATOM     15  C   UNL     1       2.476  -2.132   4.837  0.00  0.00    +0.229 C 
ATOM     16  O   UNL     1       2.428  -3.054   5.625  0.00  0.00    -0.283 OA
ENDROOT
BRANCH   1  22
ATOM     17  C   UNL     1      -0.018   1.503   0.010  0.00  0.00    +0.044 C 
ATOM     18  C   UNL     1       0.002  -0.004   0.002  0.00  0.00    -0.039 A 
ATOM     19  C   UNL     1       0.006  -0.699  -1.193  0.00  0.00    +0.011 A 
ATOM     20  C   UNL     1       0.024  -2.054  -1.165  0.00  0.00    +0.046 A 
ATOM     21  S   UNL     1       0.037  -2.387   0.589  0.00  0.00    -0.100 S 
ATOM     22  C   UNL     1       0.023  -0.698   1.166  0.00  0.00    +0.005 A 
ENDBRANCH   1  22
BRANCH   3  23
ATOM     23  N   UNL     1      -2.227  -2.149   4.826  0.00  0.00    -0.328 N 
ATOM     24  H   UNL     1      -3.080  -1.722   4.652  0.00  0.00    +0.145 HD
ATOM     25  H   UNL     1      -2.171  -2.884   5.455  0.00  0.00    +0.145 HD
ENDBRANCH   3  23
BRANCH   2  26
ATOM     26  C   UNL     1      -2.460  -0.068   3.060  0.00  0.00    +0.101 C 
ATOM     27  N   UNL     1      -3.468   0.418   2.868  0.00  0.00    -0.191 NA
ENDBRANCH   2  26
TORSDOF 3
