REMARK  Name = ZINC08742884
REMARK  3 active torsions:
REMARK  status: ('A' for Active; 'I' for Inactive)
REMARK    1  A    between atoms: C_17  and  C_21
REMARK    2  A    between atoms: C_19  and  O_20
REMARK    3  A    between atoms: C_21  and  N_69
REMARK                            x       y       z     vdW  Elec       q    Type
REMARK                         _______ _______ _______ _____ _____    ______ ____
ROOT
ATOM      1  C   UNL     1      -0.618   5.066   8.493  0.00  0.00    +0.000 A 
ATOM      2  C   UNL     1      -0.077   4.945   7.226  0.00  0.00    +0.001 A 
ATOM      3  C   UNL     1      -0.104   3.726   6.577  0.00  0.00    +0.010 A 
ATOM      4  C   UNL     1      -0.684   2.625   7.197  0.00  0.00    +0.004 A 
ATOM      5  C   UNL     1      -1.197   2.743   8.489  0.00  0.00    -0.037 A 
ATOM      6  C   UNL     1      -1.174   3.968   9.124  0.00  0.00    +0.004 A 
ATOM      7  C   UNL     1      -1.745   1.533   9.197  0.00  0.00    +0.047 C 
ATOM      8  C   UNL     1      -2.461   0.609   8.212  0.00  0.00    +0.007 C 
ATOM      9  C   UNL     1      -2.813  -0.705   8.916  0.00  0.00    +0.012 C 
ATOM     10  C   UNL     1      -3.710  -0.413  10.121  0.00  0.00    +0.001 C 
ATOM     11  C   UNL     1      -4.995   0.268   9.647  0.00  0.00    +0.000 C 
ATOM     12  C   UNL     1      -4.648   1.577   8.937  0.00  0.00    +0.001 C 
ATOM     13  C   UNL     1      -3.751   1.283   7.733  0.00  0.00    +0.012 C 
ATOM     14  C   UNL     1      -1.580   0.322   7.029  0.00  0.00    +0.046 A 
ATOM     15  C   UNL     1      -0.741   1.309   6.522  0.00  0.00    +0.082 A 
ATOM     16  N   UNL     1       0.002   1.046   5.450  0.00  0.00    -0.233 NA
ATOM     17  C   UNL     1      -0.053  -0.140   4.877  0.00  0.00    +0.117 A 
ATOM     18  N   UNL     1      -0.825  -1.105   5.336  0.00  0.00    -0.200 NA
ATOM     19  C   UNL     1      -1.599  -0.918   6.402  0.00  0.00    +0.220 A 
ENDROOT
BRANCH  19  20
ATOM     20  O   UNL     1      -2.390  -1.915   6.867  0.00  0.00    -0.492 OA
ATOM     21  H   UNL     1      -1.964  -2.480   7.526  0.00  0.00    +0.294 HD
ENDBRANCH  19  20
BRANCH  17  22
ATOM     22  C   UNL     1       0.797  -0.402   3.661  0.00  0.00    -0.001 C 
BRANCH  22  33
ATOM     23  C   UNL     1      -1.325  -0.586   2.509  0.00  0.00    -0.078 C 
ATOM     24  C   UNL     1      -2.124  -0.082   1.306  0.00  0.00    -0.018 C 
ATOM     25  C   UNL     1      -1.434  -0.534   0.015  0.00  0.00    +0.003 C 
ATOM     26  C   UNL     1       0.002  -0.004   0.002  0.00  0.00    -0.044 C 
ATOM     27  C   UNL     1       0.740  -0.511   1.243  0.00  0.00    -0.071 C 
ATOM     28  C   UNL     1      -0.019   1.526   0.010  0.00  0.00    +0.005 C 
ATOM     29  C   UNL     1       1.417   2.055  -0.000  0.00  0.00    +0.000 C 
ATOM     30  C   UNL     1       2.133   1.560  -1.259  0.00  0.00    +0.000 C 
ATOM     31  C   UNL     1       2.153   0.031  -1.267  0.00  0.00    +0.000 C 
ATOM     32  C   UNL     1       0.718  -0.499  -1.256  0.00  0.00    +0.005 C 
ATOM     33  N   UNL     1       0.041  -0.022   2.450  0.00  0.00    +0.385 N 
ATOM     34  H   UNL     1      -0.024   1.002   2.405  0.00  0.00    -0.081 HD
ENDBRANCH  22  33
ENDBRANCH  17  22
TORSDOF 3
