REMARK  Name = ZINC50368293
REMARK  6 active torsions:
REMARK  status: ('A' for Active; 'I' for Inactive)
REMARK    1  A    between atoms: C_1  and  O_2
REMARK    2  A    between atoms: O_2  and  C_3
REMARK    3  A    between atoms: C_8  and  N_10
REMARK    4  A    between atoms: N_10  and  S_11
REMARK    5  A    between atoms: S_11  and  C_14
REMARK    6  A    between atoms: C_15  and  N_22
REMARK                            x       y       z     vdW  Elec       q    Type
REMARK                         _______ _______ _______ _____ _____    ______ ____
ROOT
ATOM      1  S   UNL     1      -3.026  -3.487  -2.639  0.00  0.00    +0.062 S 
ATOM      2  O   UNL     1      -4.086  -3.363  -3.577  0.00  0.00    -0.153 OA
ATOM      3  O   UNL     1      -2.502  -4.748  -2.244  0.00  0.00    -0.153 OA
ENDROOT
BRANCH   1   4
ATOM      4  C   UNL     1      -3.558  -2.679  -1.167  0.00  0.00    +0.140 A 
ATOM      5  C   UNL     1      -3.075  -3.095   0.068  0.00  0.00    +0.053 A 
ATOM      6  C   UNL     1      -3.497  -2.456   1.226  0.00  0.00    +0.040 A 
ATOM      7  C   UNL     1      -4.396  -1.409   1.148  0.00  0.00    +0.021 A 
ATOM      8  C   UNL     1      -4.875  -0.997  -0.082  0.00  0.00    +0.032 A 
ATOM      9  C   UNL     1      -4.452  -1.629  -1.239  0.00  0.00    +0.047 A 
ATOM     10 BR   UNL     1      -5.104  -1.057  -2.920  0.00  0.00    -0.048 Br
ATOM     11 BR   UNL     1      -4.971  -0.537   2.725  0.00  0.00    -0.050 Br
BRANCH   5  12
ATOM     12  N   UNL     1      -2.168  -4.154   0.144  0.00  0.00    -0.356 N 
ATOM     13  H   UNL     1      -1.588  -4.351  -0.608  0.00  0.00    +0.142 HD
ATOM     14  H   UNL     1      -2.118  -4.693   0.949  0.00  0.00    +0.142 HD
ENDBRANCH   5  12
ENDBRANCH   1   4
BRANCH   1  15
ATOM     15  N   UNL     1      -1.754  -2.615  -3.244  0.00  0.00    -0.184 NA
ATOM     16  H   UNL     1      -1.838  -2.164  -4.098  0.00  0.00    +0.148 HD
BRANCH  15  21
ATOM     17  C   UNL     1       0.132  -1.131  -2.683  0.00  0.00    +0.136 C 
ATOM     18  C   UNL     1       1.655  -1.409  -2.738  0.00  0.00    +0.033 C 
ATOM     19  C   UNL     1       1.731  -2.741  -3.525  0.00  0.00    +0.004 C 
ATOM     20  C   UNL     1       0.516  -3.548  -3.021  0.00  0.00    +0.023 C 
ATOM     21  C   UNL     1      -0.503  -2.523  -2.487  0.00  0.00    +0.105 C 
BRANCH  17  23
ATOM     22  C   UNL     1      -0.216   1.111  -1.909  0.00  0.00    +0.194 C 
ATOM     23  O   UNL     1      -0.181  -0.279  -1.579  0.00  0.00    -0.378 OA
ENDBRANCH  17  23
ENDBRANCH  15  21
ENDBRANCH   1  15
TORSDOF 5
