REMARK  Name = ZINC43007811
REMARK  7 active torsions:
REMARK  status: ('A' for Active; 'I' for Inactive)
REMARK    1  A    between atoms: C_1  and  C_2
REMARK    2  A    between atoms: C_2  and  C_3
REMARK    3  A    between atoms: C_3  and  C_5
REMARK    4  A    between atoms: C_3  and  N_12
REMARK    5  A    between atoms: C_13  and  C_15
REMARK    6  A    between atoms: C_15  and  C_17
REMARK    7  A    between atoms: C_15  and  N_18
REMARK                            x       y       z     vdW  Elec       q    Type
REMARK                         _______ _______ _______ _____ _____    ______ ____
ROOT
ATOM      1  N   UNL     1       2.125  -0.091  -1.209  0.00  0.00    -0.307 N 
ATOM      2  C   UNL     1       2.487   1.134  -1.640  0.00  0.00    +0.234 C 
ATOM      3  O   UNL     1       1.649   1.899  -2.066  0.00  0.00    -0.274 OA
ATOM      4  H   UNL     1       2.795  -0.703  -0.868  0.00  0.00    +0.149 HD
ENDROOT
BRANCH   2   5
ATOM      5  C   UNL     1       3.934   1.552  -1.591  0.00  0.00    +0.157 C 
ATOM      6  C   UNL     1       4.430   1.507  -0.144  0.00  0.00    +0.038 C 
BRANCH   5   7
ATOM      7  N   UNL     1       4.066   2.915  -2.110  0.00  0.00    -0.289 N 
ATOM      8  C   UNL     1       5.238   3.326  -2.635  0.00  0.00    +0.298 C 
ATOM      9  O   UNL     1       6.185   2.565  -2.677  0.00  0.00    -0.253 OA
ATOM     10  N   UNL     1       5.360   4.580  -3.112  0.00  0.00    -0.313 N 
ATOM     11  H   UNL     1       3.311   3.522  -2.076  0.00  0.00    +0.151 HD
ATOM     12  H   UNL     1       4.604   5.188  -3.079  0.00  0.00    +0.146 HD
ATOM     13  H   UNL     1       6.203   4.876  -3.490  0.00  0.00    +0.146 HD
ENDBRANCH   5   7
ENDBRANCH   2   5
BRANCH   1  14
ATOM     14  C   UNL     1       0.718  -0.497  -1.257  0.00  0.00    +0.103 C 
BRANCH  14  15
ATOM     15  C   UNL     1       0.632  -2.000  -1.327  0.00  0.00    -0.027 A 
ATOM     16  C   UNL     1       1.488  -2.778  -0.571  0.00  0.00    +0.006 A 
ATOM     17  C   UNL     1       1.409  -4.157  -0.635  0.00  0.00    +0.015 A 
ATOM     18  C   UNL     1       0.472  -4.758  -1.457  0.00  0.00    +0.018 A 
ATOM     19  C   UNL     1      -0.384  -3.979  -2.214  0.00  0.00    +0.015 A 
ATOM     20  C   UNL     1      -0.308  -2.601  -2.145  0.00  0.00    +0.006 A 
ATOM     21 BR   UNL     1       0.364  -6.644  -1.545  0.00  0.00    -0.050 Br
ENDBRANCH  14  15
BRANCH  14  23
ATOM     22  C   UNL     1      -0.019   1.526   0.010  0.00  0.00    +0.006 C 
ATOM     23  C   UNL     1       0.002  -0.004   0.002  0.00  0.00    +0.024 C 
ENDBRANCH  14  23
ENDBRANCH   1  14
TORSDOF 5
