REMARK  Name = ZINC06045582
REMARK  6 active torsions:
REMARK  status: ('A' for Active; 'I' for Inactive)
REMARK    1  A    between atoms: C_4  and  N_7
REMARK    2  A    between atoms: C_8  and  C_10
REMARK    3  A    between atoms: C_10  and  S_11
REMARK    4  A    between atoms: S_11  and  C_12
REMARK    5  A    between atoms: C_17  and  N_26
REMARK    6  A    between atoms: N_18  and  C_19
REMARK                            x       y       z     vdW  Elec       q    Type
REMARK                         _______ _______ _______ _____ _____    ______ ____
ROOT
ATOM      1  C   UNL     1       6.310  -5.179   0.705  0.00  0.00    +0.179 A 
ATOM      2  N   UNL     1       7.384  -4.418   0.671  0.00  0.00    -0.185 NA
ATOM      3  C   UNL     1       8.595  -4.943   0.428  0.00  0.00    +0.276 A 
ATOM      4  O   UNL     1       9.582  -4.221   0.401  0.00  0.00    -0.266 OA
ATOM      5  C   UNL     1       8.726  -6.328   0.203  0.00  0.00    +0.114 A 
ATOM      6  C   UNL     1       7.607  -7.110   0.239  0.00  0.00    +0.108 A 
ATOM      7  N   UNL     1       6.393  -6.526   0.498  0.00  0.00    -0.277 N 
ENDROOT
BRANCH   7   8
ATOM      8  C   UNL     1       5.234  -7.312   0.545  0.00  0.00    +0.050 A 
ATOM      9  C   UNL     1       4.284  -7.211  -0.462  0.00  0.00    +0.028 A 
ATOM     10  C   UNL     1       3.143  -7.987  -0.414  0.00  0.00    +0.022 A 
ATOM     11  C   UNL     1       2.946  -8.866   0.637  0.00  0.00    +0.041 A 
ATOM     12  C   UNL     1       3.892  -8.969   1.642  0.00  0.00    +0.022 A 
ATOM     13  C   UNL     1       5.038  -8.199   1.595  0.00  0.00    +0.028 A 
ATOM     14 CL   UNL     1       1.510  -9.840   0.695  0.00  0.00    -0.084 Cl
ENDBRANCH   7   8
BRANCH   6  15
ATOM     15  N   UNL     1       7.698  -8.466   0.024  0.00  0.00    -0.344 N 
ATOM     16  H   UNL     1       8.567  -8.887  -0.064  0.00  0.00    +0.144 HD
ATOM     17  H   UNL     1       6.891  -9.002  -0.040  0.00  0.00    +0.144 HD
ENDBRANCH   6  15
BRANCH   1  18
ATOM     18  S   UNL     1       4.740  -4.448   1.028  0.00  0.00    -0.078 S 
BRANCH  18  19
ATOM     19  C   UNL     1       5.112  -2.684   1.232  0.00  0.00    +0.173 C 
BRANCH  19  21
ATOM     20  N   UNL     1       3.869  -0.598   1.706  0.00  0.00    -0.285 N 
ATOM     21  C   UNL     1       3.837  -1.932   1.518  0.00  0.00    +0.227 C 
ATOM     22  O   UNL     1       2.782  -2.528   1.577  0.00  0.00    -0.275 OA
ATOM     23  H   UNL     1       4.701  -0.112   1.591  0.00  0.00    +0.155 HD
BRANCH  20  27
ATOM     24  C   UNL     1       0.399   1.438   2.787  0.00  0.00    +0.000 A 
ATOM     25  C   UNL     1       0.605   0.144   3.228  0.00  0.00    +0.002 A 
ATOM     26  C   UNL     1       1.755  -0.534   2.872  0.00  0.00    +0.023 A 
ATOM     27  C   UNL     1       2.704   0.086   2.069  0.00  0.00    +0.033 A 
ATOM     28  C   UNL     1       2.493   1.385   1.627  0.00  0.00    +0.023 A 
ATOM     29  C   UNL     1       1.342   2.058   1.988  0.00  0.00    +0.002 A 
ENDBRANCH  20  27
ENDBRANCH  19  21
ENDBRANCH  18  19
ENDBRANCH   1  18
TORSDOF 6
