REMARK  Name = ZINC50416838
REMARK  7 active torsions:
REMARK  status: ('A' for Active; 'I' for Inactive)
REMARK    1  A    between atoms: C_1  and  C_2
REMARK    2  A    between atoms: C_2  and  C_4
REMARK    3  A    between atoms: C_2  and  N_10
REMARK    4  A    between atoms: N_8  and  C_9
REMARK    5  A    between atoms: N_10  and  S_11
REMARK    6  A    between atoms: S_11  and  C_14
REMARK    7  A    between atoms: C_15  and  N_22
REMARK                            x       y       z     vdW  Elec       q    Type
REMARK                         _______ _______ _______ _____ _____    ______ ____
ROOT
ATOM      1  S   UNL     1      -0.480  -1.001   3.270  0.00  0.00    +0.062 S 
ATOM      2  O   UNL     1       0.281  -1.570   4.326  0.00  0.00    -0.153 OA
ATOM      3  O   UNL     1      -1.468  -0.005   3.494  0.00  0.00    -0.153 OA
ENDROOT
BRANCH   1   4
ATOM      4  C   UNL     1      -1.288  -2.338   2.455  0.00  0.00    +0.144 A 
ATOM      5  C   UNL     1      -2.455  -2.111   1.736  0.00  0.00    +0.054 A 
ATOM      6  C   UNL     1      -3.088  -3.166   1.094  0.00  0.00    +0.044 A 
ATOM      7  C   UNL     1      -2.557  -4.440   1.172  0.00  0.00    +0.044 A 
ATOM      8  C   UNL     1      -1.395  -4.664   1.889  0.00  0.00    +0.042 A 
ATOM      9  C   UNL     1      -0.758  -3.612   2.525  0.00  0.00    +0.070 A 
ATOM     10 CL   UNL     1       0.704  -3.896   3.417  0.00  0.00    -0.081 Cl
ATOM     11 CL   UNL     1      -3.349  -5.761   0.371  0.00  0.00    -0.083 Cl
BRANCH   5  12
ATOM     12  N   UNL     1      -2.990  -0.823   1.659  0.00  0.00    -0.356 N 
ATOM     13  H   UNL     1      -2.422  -0.052   1.816  0.00  0.00    +0.142 HD
ATOM     14  H   UNL     1      -3.929  -0.699   1.450  0.00  0.00    +0.142 HD
ENDBRANCH   5  12
ENDBRANCH   1   4
BRANCH   1  15
ATOM     15  N   UNL     1       0.606  -0.357   2.198  0.00  0.00    -0.180 NA
ATOM     16  H   UNL     1       1.557  -0.408   2.381  0.00  0.00    +0.149 HD
BRANCH  15  18
ATOM     17  C   UNL     1       0.017   1.797   1.201  0.00  0.00    +0.034 C 
ATOM     18  C   UNL     1       0.129   0.288   0.972  0.00  0.00    +0.141 C 
BRANCH  18  19
ATOM     19  C   UNL     1       1.103   0.021  -0.147  0.00  0.00    +0.151 A 
ATOM     20  N   UNL     1       2.403   0.101  -0.076  0.00  0.00    -0.133 NA
ATOM     21  N   UNL     1       2.918  -0.194  -1.218  0.00  0.00    -0.138 NA
ATOM     22  C   UNL     1       1.969  -0.475  -2.068  0.00  0.00    +0.224 A 
ATOM     23  N   UNL     1       0.790  -0.351  -1.412  0.00  0.00    -0.319 N 
ATOM     24  C   UNL     1      -0.551  -0.573  -1.959  0.00  0.00    +0.151 C 
ENDBRANCH  18  19
ENDBRANCH  15  18
ENDBRANCH   1  15
TORSDOF 5
