REMARK  Name = ZINC57531509
REMARK  2 active torsions:
REMARK  status: ('A' for Active; 'I' for Inactive)
REMARK    1  A    between atoms: C_4  and  C_19
REMARK    2  A    between atoms: C_5  and  C_7
REMARK                            x       y       z     vdW  Elec       q    Type
REMARK                         _______ _______ _______ _____ _____    ______ ____
ROOT
ATOM      1  C   UNL     1       1.475  -2.159   0.273  0.00  0.00    +0.144 C 
ATOM      2  C   UNL     1       1.722  -2.464   1.735  0.00  0.00    +0.081 C 
ATOM      3  C   UNL     1       0.857  -3.292   2.361  0.00  0.00    +0.061 C 
ATOM      4  C   UNL     1       1.347  -3.411   3.786  0.00  0.00    +0.283 C 
ATOM      5  O   UNL     1       2.521  -2.592   3.854  0.00  0.00    -0.455 OA
ATOM      6  C   UNL     1       2.718  -2.048   2.638  0.00  0.00    +0.339 C 
ATOM      7  O   UNL     1       3.634  -1.298   2.357  0.00  0.00    -0.245 OA
ATOM      8  N   UNL     1      -0.205  -3.834   1.698  0.00  0.00    -0.269 N 
ATOM      9  C   UNL     1      -0.471  -3.599   0.407  0.00  0.00    +0.304 C 
ATOM     10  O   UNL     1      -1.441  -4.128  -0.099  0.00  0.00    -0.252 OA
ATOM     11  N   UNL     1       0.301  -2.795  -0.350  0.00  0.00    -0.288 N 
ATOM     12  H   UNL     1      -0.799  -4.423   2.189  0.00  0.00    +0.156 HD
ATOM     13  H   UNL     1       0.088  -2.638  -1.283  0.00  0.00    +0.151 HD
ENDROOT
BRANCH   1  18
ATOM     14  C   UNL     1       0.058   1.335   0.477  0.00  0.00    +0.000 A 
ATOM     15  C   UNL     1       1.053   2.072  -0.138  0.00  0.00    +0.001 A 
ATOM     16  C   UNL     1       2.183   1.440  -0.621  0.00  0.00    +0.013 A 
ATOM     17  C   UNL     1       2.320   0.071  -0.487  0.00  0.00    +0.060 A 
ATOM     18  C   UNL     1       1.326  -0.666   0.129  0.00  0.00    -0.011 A 
ATOM     19  C   UNL     1       0.195  -0.034   0.610  0.00  0.00    +0.006 A 
BRANCH  17  20
ATOM     20  C   UNL     1       3.552  -0.618  -1.014  0.00  0.00    +0.418 C 
ATOM     21  F   UNL     1       4.439   0.337  -1.522  0.00  0.00    -0.166 F 
ATOM     22  F   UNL     1       4.171  -1.324   0.023  0.00  0.00    -0.166 F 
ATOM     23  F   UNL     1       3.190  -1.507  -2.032  0.00  0.00    -0.166 F 
ENDBRANCH  17  20
ENDBRANCH   1  18
TORSDOF 2
