REMARK  Name = ZINC43575618
REMARK  4 active torsions:
REMARK  status: ('A' for Active; 'I' for Inactive)
REMARK    1  A    between atoms: C_1  and  C_2
REMARK    2  A    between atoms: C_5  and  N_9
REMARK    3  A    between atoms: C_10  and  C_14
REMARK    4  A    between atoms: C_17  and  N_21
REMARK                            x       y       z     vdW  Elec       q    Type
REMARK                         _______ _______ _______ _____ _____    ______ ____
ROOT
ATOM      1  N   UNL     1       0.803  -4.436  -0.011  0.00  0.00    -0.192 N 
ATOM      2  C   UNL     1       0.164  -5.008   1.051  0.00  0.00    +0.190 A 
ATOM      3  N   UNL     1      -0.579  -5.984   0.571  0.00  0.00    -0.108 NA
ATOM      4  N   UNL     1      -0.450  -6.062  -0.704  0.00  0.00    -0.022 NA
ATOM      5  N   UNL     1       0.362  -5.159  -1.134  0.00  0.00    -0.039 NA
ENDROOT
BRANCH   1  10
ATOM      6  C   UNL     1       4.434  -0.075   0.081  0.00  0.00    +0.044 C 
ATOM      7  C   UNL     1       3.469  -1.233   0.056  0.00  0.00    -0.049 A 
ATOM      8  C   UNL     1       3.891  -2.490   0.447  0.00  0.00    +0.005 A 
ATOM      9  C   UNL     1       3.010  -3.554   0.426  0.00  0.00    +0.029 A 
ATOM     10  C   UNL     1       1.699  -3.359   0.012  0.00  0.00    +0.083 A 
ATOM     11  C   UNL     1       1.278  -2.095  -0.380  0.00  0.00    +0.044 A 
ATOM     12  C   UNL     1       2.163  -1.034  -0.352  0.00  0.00    +0.020 A 
ATOM     13 BR   UNL     1      -0.506  -1.824  -0.945  0.00  0.00    -0.048 Br
ENDBRANCH   1  10
BRANCH   2  14
ATOM     14  C   UNL     1       0.283  -4.608   2.469  0.00  0.00    +0.056 A 
ATOM     15  C   UNL     1       0.185  -3.262   2.827  0.00  0.00    +0.016 A 
ATOM     16  C   UNL     1       0.296  -2.892   4.149  0.00  0.00    +0.023 A 
ATOM     17  C   UNL     1       0.506  -3.857   5.129  0.00  0.00    +0.027 A 
ATOM     18  C   UNL     1       0.605  -5.199   4.778  0.00  0.00    +0.061 A 
ATOM     19  C   UNL     1       0.489  -5.577   3.456  0.00  0.00    +0.136 A 
ATOM     20  F   UNL     1       0.579  -6.881   3.115  0.00  0.00    -0.205 F 
BRANCH  17  21
ATOM     21  N   UNL     1       0.618  -3.478   6.466  0.00  0.00    -0.358 N 
ATOM     22  H   UNL     1       0.549  -2.543   6.712  0.00  0.00    +0.142 HD
ATOM     23  H   UNL     1       0.764  -4.151   7.150  0.00  0.00    +0.142 HD
ENDBRANCH  17  21
ENDBRANCH   2  14
TORSDOF 3
