REMARK  Name = ZINC40547432
REMARK  7 active torsions:
REMARK  status: ('A' for Active; 'I' for Inactive)
REMARK    1  A    between atoms: C_1  and  C_2
REMARK    2  A    between atoms: C_2  and  C_4
REMARK    3  A    between atoms: C_2  and  N_8
REMARK    4  A    between atoms: C_4  and  C_5
REMARK    5  A    between atoms: N_11  and  C_12
REMARK    6  A    between atoms: C_12  and  C_14
REMARK    7  A    between atoms: C_12  and  C_15
REMARK                            x       y       z     vdW  Elec       q    Type
REMARK                         _______ _______ _______ _____ _____    ______ ____
ROOT
ATOM      1  N   UNL     1       0.576   0.230   1.396  0.00  0.00    -0.296 N 
ATOM      2  C   UNL     1      -0.043  -0.176   2.522  0.00  0.00    +0.300 C 
ATOM      3  O   UNL     1      -1.236   0.015   2.662  0.00  0.00    -0.253 OA
ATOM      4  N   UNL     1       0.659  -0.795   3.491  0.00  0.00    -0.293 N 
ATOM      5  H   UNL     1       1.528   0.077   1.283  0.00  0.00    +0.151 HD
ATOM      6  H   UNL     1       1.611  -0.947   3.379  0.00  0.00    +0.151 HD
ENDROOT
BRANCH   1   8
ATOM      7  C   UNL     1      -0.282   2.397   0.654  0.00  0.00    +0.028 C 
ATOM      8  C   UNL     1      -0.187   0.902   0.341  0.00  0.00    +0.082 C 
BRANCH   8   9
ATOM      9  C   UNL     1       0.517   0.706  -1.003  0.00  0.00    +0.147 C 
BRANCH   9  10
ATOM     10  C   UNL     1       0.501  -0.756  -1.369  0.00  0.00    +0.358 C 
ATOM     11  O   UNL     1      -0.024  -1.566  -0.624  0.00  0.00    -0.246 OA
ATOM     12  O   UNL     1       1.014  -1.129  -2.410  0.00  0.00    -0.246 OA
ENDBRANCH   9  10
ENDBRANCH   8   9
ENDBRANCH   1   8
BRANCH   4  13
ATOM     13  C   UNL     1      -0.014  -1.237   4.715  0.00  0.00    +0.103 C 
ATOM     14  C   UNL     1      -0.584  -2.641   4.505  0.00  0.00    +0.033 C 
BRANCH  13  15
ATOM     15  C   UNL     1       0.976  -1.261   5.852  0.00  0.00    -0.009 A 
ATOM     16  C   UNL     1       2.320  -1.456   5.594  0.00  0.00    +0.008 A 
ATOM     17  C   UNL     1       3.228  -1.479   6.636  0.00  0.00    +0.020 A 
ATOM     18  C   UNL     1       2.792  -1.306   7.938  0.00  0.00    +0.042 A 
ATOM     19  C   UNL     1       1.447  -1.111   8.196  0.00  0.00    +0.040 A 
ATOM     20  C   UNL     1       0.539  -1.083   7.152  0.00  0.00    +0.047 A 
ATOM     21 CL   UNL     1      -1.148  -0.832   7.476  0.00  0.00    -0.083 Cl
ATOM     22 CL   UNL     1       3.932  -1.335   9.246  0.00  0.00    -0.083 Cl
ENDBRANCH  13  15
ENDBRANCH   4  13
TORSDOF 5
