REMARK  Name = ZINC04841922
REMARK  7 active torsions:
REMARK  status: ('A' for Active; 'I' for Inactive)
REMARK    1  A    between atoms: C_1  and  C_2
REMARK    2  A    between atoms: C_4  and  C_24
REMARK    3  A    between atoms: C_5  and  C_9
REMARK    4  A    between atoms: C_7  and  C_8
REMARK    5  A    between atoms: C_9  and  C_11
REMARK    6  A    between atoms: C_11  and  C_12
REMARK    7  A    between atoms: C_12  and  O_23
REMARK                            x       y       z     vdW  Elec       q    Type
REMARK                         _______ _______ _______ _____ _____    ______ ____
ROOT
ATOM      1  C   UNL     1       0.725  -0.002  -0.522  0.00  0.00    +0.175 C 
ATOM      2  C   UNL     1       1.306   1.387  -0.659  0.00  0.00    +0.016 A 
ATOM      3  C   UNL     1       2.596   1.867  -0.652  0.00  0.00    +0.028 A 
ATOM      4  C   UNL     1       2.829   3.223  -0.803  0.00  0.00    +0.041 A 
ATOM      5  C   UNL     1       1.763   4.091  -0.960  0.00  0.00    +0.022 A 
ATOM      6  C   UNL     1       0.469   3.612  -0.967  0.00  0.00    +0.025 A 
ATOM      7  C   UNL     1       0.227   2.248  -0.815  0.00  0.00    +0.040 A 
ATOM      8  N   UNL     1      -0.970   1.531  -0.789  0.00  0.00    -0.282 N 
ATOM      9  C   UNL     1      -0.770   0.213  -0.622  0.00  0.00    +0.254 C 
ATOM     10  O   UNL     1      -1.627  -0.644  -0.562  0.00  0.00    -0.272 OA
ATOM     11 CL   UNL     1       4.455   3.834  -0.796  0.00  0.00    -0.084 Cl
ATOM     12  H   UNL     1      -1.846   1.938  -0.884  0.00  0.00    +0.155 HD
ENDROOT
BRANCH   1  13
ATOM     13  O   UNL     1       1.067  -0.564   0.747  0.00  0.00    -0.374 OA
ATOM     14  H   UNL     1       0.670  -1.431   0.912  0.00  0.00    +0.211 HD
ENDBRANCH   1  13
BRANCH   1  15
ATOM     15  C   UNL     1       1.214  -0.905  -1.656  0.00  0.00    +0.129 C 
BRANCH  15  16
ATOM     16  C   UNL     1       0.458  -2.208  -1.622  0.00  0.00    +0.167 C 
ATOM     17  O   UNL     1      -0.388  -2.396  -0.774  0.00  0.00    -0.292 OA
BRANCH  16  22
ATOM     18  C   UNL     1       1.585  -6.287  -5.512  0.00  0.00    +0.044 C 
ATOM     19  C   UNL     1       1.289  -5.218  -4.493  0.00  0.00    -0.047 A 
ATOM     20  C   UNL     1       0.411  -5.480  -3.455  0.00  0.00    +0.007 A 
ATOM     21  C   UNL     1       0.135  -4.506  -2.519  0.00  0.00    -0.040 A 
ATOM     22  C   UNL     1       0.746  -3.252  -2.618  0.00  0.00    +0.021 A 
ATOM     23  C   UNL     1       1.629  -2.994  -3.672  0.00  0.00    +0.015 A 
ATOM     24  C   UNL     1       1.898  -3.980  -4.598  0.00  0.00    -0.047 A 
ATOM     25  C   UNL     1       2.853  -3.705  -5.731  0.00  0.00    +0.044 C 
ATOM     26  C   UNL     1      -0.821  -4.793  -1.390  0.00  0.00    +0.044 C 
ENDBRANCH  16  22
ENDBRANCH  15  16
ENDBRANCH   1  15
TORSDOF 4
