REMARK  Name = ZINC09348139
REMARK  8 active torsions:
REMARK  status: ('A' for Active; 'I' for Inactive)
REMARK    1  A    between atoms: C_1  and  C_2
REMARK    2  A    between atoms: C_4  and  C_33
REMARK    3  A    between atoms: C_9  and  N_20
REMARK    4  A    between atoms: N_10  and  C_11
REMARK    5  A    between atoms: C_11  and  C_13
REMARK    6  A    between atoms: N_20  and  C_21
REMARK    7  A    between atoms: C_21  and  C_22
REMARK    8  A    between atoms: C_22  and  C_23
REMARK                            x       y       z     vdW  Elec       q    Type
REMARK                         _______ _______ _______ _____ _____    ______ ____
ROOT
ATOM      1  C   UNL     1      -0.623  -6.133   5.060  0.00  0.00    +0.066 C 
ATOM      2  C   UNL     1      -0.664  -5.385   3.752  0.00  0.00    +0.044 A 
ATOM      3  C   UNL     1      -0.748  -6.073   2.552  0.00  0.00    +0.046 A 
ATOM      4  C   UNL     1      -0.783  -5.346   1.373  0.00  0.00    +0.044 A 
ATOM      5  N   UNL     1      -0.735  -4.026   1.427  0.00  0.00    -0.217 NA
ATOM      6  C   UNL     1      -0.654  -3.398   2.590  0.00  0.00    +0.231 A 
ATOM      7  N   UNL     1      -0.625  -4.062   3.736  0.00  0.00    -0.217 NA
ATOM      8  N   UNL     1      -0.605  -2.011   2.610  0.00  0.00    -0.295 N 
ATOM      9  C   UNL     1      -0.410  -1.350   3.791  0.00  0.00    +0.218 C 
ATOM     10  N   UNL     1      -0.154  -2.032   4.897  0.00  0.00    -0.141 NA
ATOM     11  C   UNL     1      -0.874  -6.052   0.044  0.00  0.00    +0.066 C 
ATOM     12  H   UNL     1      -0.709  -1.510   1.786  0.00  0.00    +0.172 HD
ENDROOT
BRANCH  10  13
ATOM     13  C   UNL     1       0.112  -1.383   6.038  0.00  0.00    +0.272 C 
ATOM     14  O   UNL     1       0.023  -0.169   6.083  0.00  0.00    -0.268 OA
BRANCH  13  15
ATOM     15  C   UNL     1       0.514  -2.141   7.245  0.00  0.00    +0.057 A 
ATOM     16  C   UNL     1       0.739  -3.516   7.166  0.00  0.00    +0.014 A 
ATOM     17  C   UNL     1       1.114  -4.216   8.293  0.00  0.00    +0.001 A 
ATOM     18  C   UNL     1       1.267  -3.559   9.501  0.00  0.00    +0.001 A 
ATOM     19  C   UNL     1       1.045  -2.197   9.588  0.00  0.00    +0.021 A 
ATOM     20  C   UNL     1       0.675  -1.483   8.465  0.00  0.00    +0.053 A 
ATOM     21 CL   UNL     1       0.404   0.229   8.573  0.00  0.00    -0.083 Cl
ENDBRANCH  13  15
ENDBRANCH  10  13
BRANCH   9  22
ATOM     22  N   UNL     1      -0.479   0.011   3.831  0.00  0.00    -0.252 NA
BRANCH  22  23
ATOM     23  C   UNL     1      -0.871   0.759   2.634  0.00  0.00    +0.150 C 
BRANCH  23  24
ATOM     24  C   UNL     1      -0.754   2.260   2.910  0.00  0.00    +0.060 C 
BRANCH  24  25
ATOM     25  C   UNL     1      -1.272   3.031   1.723  0.00  0.00    -0.021 A 
ATOM     26  C   UNL     1      -0.542   3.516   0.706  0.00  0.00    +0.087 A 
ATOM     27  N   UNL     1      -1.355   4.159  -0.187  0.00  0.00    -0.360 N 
ATOM     28  H   UNL     1      -1.056   4.591  -1.002  0.00  0.00    +0.165 HD
ATOM     29  C   UNL     1      -2.662   4.102   0.245  0.00  0.00    +0.047 A 
ATOM     30  C   UNL     1      -2.667   3.387   1.457  0.00  0.00    +0.003 A 
ATOM     31  C   UNL     1      -3.870   3.166   2.130  0.00  0.00    +0.010 A 
ATOM     32  C   UNL     1      -5.039   3.642   1.604  0.00  0.00    +0.001 A 
ATOM     33  C   UNL     1      -5.039   4.344   0.407  0.00  0.00    +0.002 A 
ATOM     34  C   UNL     1      -3.862   4.582  -0.268  0.00  0.00    +0.026 A 
ENDBRANCH  24  25
ENDBRANCH  23  24
ENDBRANCH  22  23
ENDBRANCH   9  22
TORSDOF 6
