REMARK  Name = ZINC52010233
REMARK  5 active torsions:
REMARK  status: ('A' for Active; 'I' for Inactive)
REMARK    1  A    between atoms: C_4  and  O_16
REMARK    2  A    between atoms: C_6  and  N_9
REMARK    3  A    between atoms: C_10  and  C_12
REMARK    4  A    between atoms: C_12  and  C_13
REMARK    5  A    between atoms: C_13  and  N_15
REMARK                            x       y       z     vdW  Elec       q    Type
REMARK                         _______ _______ _______ _____ _____    ______ ____
ROOT
ATOM      1  N   UNL     1       0.740  -1.970   1.212  0.00  0.00    -0.310 N 
ATOM      2  C   UNL     1      -0.180  -2.679   1.897  0.00  0.00    +0.219 C 
ATOM      3  O   UNL     1      -0.941  -2.113   2.653  0.00  0.00    -0.275 OA
ATOM      4  H   UNL     1       1.349  -2.423   0.608  0.00  0.00    +0.149 HD
ENDROOT
BRANCH   1   9
ATOM      5  C   UNL     1      -0.101   1.677   0.620  0.00  0.00    +0.002 C 
ATOM      6  C   UNL     1       1.313   2.153   0.281  0.00  0.00    +0.003 C 
ATOM      7  C   UNL     1       2.317   1.476   1.216  0.00  0.00    +0.033 C 
ATOM      8  C   UNL     1       2.234  -0.041   1.041  0.00  0.00    +0.135 C 
ATOM      9  C   UNL     1       0.820  -0.517   1.380  0.00  0.00    +0.101 C 
ATOM     10  C   UNL     1      -0.184   0.160   0.445  0.00  0.00    +0.025 C 
BRANCH   8  11
ATOM     11  O   UNL     1       3.171  -0.674   1.915  0.00  0.00    -0.390 OA
ATOM     12  H   UNL     1       4.090  -0.418   1.757  0.00  0.00    +0.210 HD
ENDBRANCH   8  11
ENDBRANCH   1   9
BRANCH   2  13
ATOM     13  C   UNL     1      -0.262  -4.173   1.725  0.00  0.00    +0.154 C 
BRANCH  13  14
ATOM     14  C   UNL     1      -1.478  -4.696   2.444  0.00  0.00    +0.055 C 
ATOM     15  S   UNL     1      -2.599  -3.680   2.962  0.00  0.00    -0.040 S 
BRANCH  14  16
ATOM     16  N   UNL     1      -1.622  -6.020   2.650  0.00  0.00    -0.355 N 
ATOM     17  H   UNL     1      -0.942  -6.637   2.336  0.00  0.00    +0.143 HD
ATOM     18  H   UNL     1      -2.405  -6.357   3.113  0.00  0.00    +0.143 HD
ENDBRANCH  14  16
ENDBRANCH  13  14
ENDBRANCH   2  13
TORSDOF 5
