REMARK  Name = ZINC40515645
REMARK  6 active torsions:
REMARK  status: ('A' for Active; 'I' for Inactive)
REMARK    1  A    between atoms: C_1  and  C_2
REMARK    2  A    between atoms: C_4  and  C_20
REMARK    3  A    between atoms: C_6  and  O_12
REMARK    4  A    between atoms: C_7  and  C_8
REMARK    5  A    between atoms: N_9  and  O_10
REMARK    6  A    between atoms: O_12  and  C_13
REMARK                            x       y       z     vdW  Elec       q    Type
REMARK                         _______ _______ _______ _____ _____    ______ ____
ROOT
ATOM      1  C   UNL     1      -0.096   1.507   0.023  0.00  0.00    +0.045 C 
ATOM      2  C   UNL     1      -0.076   0.001   0.011  0.00  0.00    -0.033 A 
ATOM      3  C   UNL     1      -0.112  -0.700  -1.183  0.00  0.00    +0.027 A 
ATOM      4  C   UNL     1      -0.092  -2.082  -1.161  0.00  0.00    +0.042 A 
ATOM      5  N   UNL     1      -0.039  -2.745  -0.022  0.00  0.00    -0.217 NA
ATOM      6  C   UNL     1      -0.003  -2.125   1.145  0.00  0.00    +0.232 A 
ATOM      7  C   UNL     1      -0.014  -0.724   1.204  0.00  0.00    +0.082 A 
ATOM      8  C   UNL     1      -0.132  -2.844  -2.461  0.00  0.00    +0.066 C 
ENDROOT
BRANCH   7   9
ATOM      9  C   UNL     1       0.033  -0.026   2.507  0.00  0.00    +0.168 C 
ATOM     10  N   UNL     1      -1.072   0.266   3.129  0.00  0.00    -0.071 NA
ATOM     11  N   UNL     1       1.253   0.317   3.065  0.00  0.00    -0.340 N 
ATOM     12  H   UNL     1       2.077   0.100   2.601  0.00  0.00    +0.144 HD
ATOM     13  H   UNL     1       1.284   0.775   3.919  0.00  0.00    +0.144 HD
BRANCH  10  14
ATOM     14  O   UNL     1      -1.027   0.934   4.376  0.00  0.00    -0.408 OA
ATOM     15  H   UNL     1      -1.897   1.108   4.761  0.00  0.00    +0.328 HD
ENDBRANCH  10  14
ENDBRANCH   7   9
BRANCH   6  16
ATOM     16  O   UNL     1       0.051  -2.847   2.290  0.00  0.00    -0.437 OA
BRANCH  16  17
ATOM     17  C   UNL     1      -0.036  -4.200   2.196  0.00  0.00    +0.131 A 
ATOM     18  C   UNL     1       1.063  -4.940   1.785  0.00  0.00    +0.046 A 
ATOM     19  C   UNL     1       0.973  -6.315   1.691  0.00  0.00    +0.005 A 
ATOM     20  C   UNL     1      -0.212  -6.955   2.005  0.00  0.00    +0.015 A 
ATOM     21  C   UNL     1      -1.310  -6.219   2.415  0.00  0.00    +0.021 A 
ATOM     22  C   UNL     1      -1.223  -4.843   2.517  0.00  0.00    +0.061 A 
ATOM     23 BR   UNL     1      -2.929  -7.097   2.844  0.00  0.00    -0.050 Br
ENDBRANCH  16  17
ENDBRANCH   6  16
TORSDOF 4
