REMARK  Name = ZINC09308063
REMARK  3 active torsions:
REMARK  status: ('A' for Active; 'I' for Inactive)
REMARK    1  A    between atoms: C_1  and  O_2
REMARK    2  A    between atoms: O_2  and  C_3
REMARK    3  A    between atoms: C_8  and  N_9
REMARK                            x       y       z     vdW  Elec       q    Type
REMARK                         _______ _______ _______ _____ _____    ______ ____
ROOT
ATOM      1  N   UNL     1       3.790  -3.033   1.338  0.00  0.00    -0.206 N 
ATOM      2  C   UNL     1       3.414  -4.211   0.826  0.00  0.00    +0.229 C 
ATOM      3  O   UNL     1       4.164  -5.116   0.528  0.00  0.00    -0.275 OA
ATOM      4  C   UNL     1       1.910  -4.237   0.676  0.00  0.00    +0.074 C 
ATOM      5  C   UNL     1       1.545  -4.240  -0.820  0.00  0.00    -0.054 C 
ATOM      6  C   UNL     1       2.708  -4.814  -1.649  0.00  0.00    -0.016 C 
ATOM      7  C   UNL     1       3.570  -3.600  -2.046  0.00  0.00    -0.020 C 
ATOM      8  C   UNL     1       2.876  -2.385  -1.400  0.00  0.00    -0.076 C 
ATOM      9  C   UNL     1       0.908  -2.131  -0.019  0.00  0.00    +0.053 C 
ATOM     10  C   UNL     1       1.512  -2.839   1.198  0.00  0.00    +0.089 C 
ATOM     11  C   UNL     1       2.782  -2.189   1.586  0.00  0.00    +0.230 C 
ATOM     12  O   UNL     1       2.899  -1.075   2.049  0.00  0.00    -0.275 OA
ATOM     13  C   UNL     1       1.228  -0.662  -0.013  0.00  0.00    -0.024 A 
ATOM     14  C   UNL     1       2.407   0.050  -0.021  0.00  0.00    +0.043 A 
ATOM     15  C   UNL     1       2.380   1.435  -0.013  0.00  0.00    +0.124 A 
ATOM     16  C   UNL     1       1.165   2.099   0.002  0.00  0.00    +0.040 A 
ATOM     17  C   UNL     1      -0.017   1.389   0.010  0.00  0.00    +0.026 A 
ATOM     18  C   UNL     1       0.002  -0.004   0.002  0.00  0.00    +0.036 A 
ATOM     19  N   UNL     1      -1.043  -0.932   0.007  0.00  0.00    -0.286 N 
ATOM     20  C   UNL     1      -0.595  -2.202  -0.004  0.00  0.00    +0.212 C 
ATOM     21  O   UNL     1      -1.272  -3.208  -0.003  0.00  0.00    -0.277 OA
ATOM     22  F   UNL     1       3.536   2.135  -0.020  0.00  0.00    -0.205 F 
ATOM     23  H   UNL     1      -1.982  -0.689   0.018  0.00  0.00    +0.155 HD
ATOM     24  N   UNL     1       1.490  -2.838  -1.163  0.00  0.00    +0.395 N 
ATOM     25  H   UNL     1       0.918  -2.688  -2.003  0.00  0.00    -0.079 HD
ENDROOT
BRANCH   1  31
ATOM     26  C   UNL     1       5.694  -3.000   2.834  0.00  0.00    +0.142 A 
ATOM     27  C   UNL     1       7.019  -2.679   3.083  0.00  0.00    +0.049 A 
ATOM     28  C   UNL     1       7.779  -2.072   2.101  0.00  0.00    +0.024 A 
ATOM     29  C   UNL     1       7.220  -1.782   0.869  0.00  0.00    +0.043 A 
ATOM     30  C   UNL     1       5.901  -2.105   0.612  0.00  0.00    +0.047 A 
ATOM     31  C   UNL     1       5.131  -2.710   1.594  0.00  0.00    +0.087 A 
ATOM     32 CL   UNL     1       8.181  -1.019  -0.360  0.00  0.00    -0.083 Cl
BRANCH  26  34
ATOM     33  C   UNL     1       5.589  -3.866   5.047  0.00  0.00    +0.277 C 
ATOM     34  O   UNL     1       4.946  -3.598   3.799  0.00  0.00    -0.493 OA
ENDBRANCH  26  34
ENDBRANCH   1  31
TORSDOF 2
