REMARK  Name = ZINC02534435
REMARK  4 active torsions:
REMARK  status: ('A' for Active; 'I' for Inactive)
REMARK    1  A    between atoms: C_3  and  N_30
REMARK    2  A    between atoms: C_6  and  C_7
REMARK    3  A    between atoms: C_7  and  C_8
REMARK    4  A    between atoms: C_11  and  N_14
REMARK                            x       y       z     vdW  Elec       q    Type
REMARK                         _______ _______ _______ _____ _____    ______ ____
ROOT
ATOM      1  C   UNL     1      -1.739  -1.023  -1.407  0.00  0.00    -0.043 A 
ATOM      2  C   UNL     1      -2.743  -0.249  -1.960  0.00  0.00    +0.006 A 
ATOM      3  C   UNL     1      -3.154  -0.475  -3.260  0.00  0.00    +0.024 A 
ATOM      4  C   UNL     1      -2.558  -1.479  -4.010  0.00  0.00    +0.044 A 
ATOM      5  C   UNL     1      -1.550  -2.254  -3.452  0.00  0.00    +0.024 A 
ATOM      6  C   UNL     1      -1.140  -2.020  -2.154  0.00  0.00    +0.006 A 
ENDROOT
BRANCH   4   7
ATOM      7  N   UNL     1      -2.973  -1.711  -5.329  0.00  0.00    -0.210 N 
ATOM      8  C   UNL     1      -3.611  -2.826  -5.701  0.00  0.00    +0.231 C 
ATOM      9  O   UNL     1      -3.900  -3.746  -4.966  0.00  0.00    -0.274 OA
ATOM     10  C   UNL     1      -3.918  -2.762  -7.180  0.00  0.00    +0.095 C 
ATOM     11  C   UNL     1      -5.460  -2.594  -7.353  0.00  0.00    +0.025 C 
ATOM     12  C   UNL     1      -5.506  -1.682  -8.633  0.00  0.00    +0.016 C 
ATOM     13  C   UNL     1      -4.628  -0.557  -7.976  0.00  0.00    +0.025 C 
ATOM     14  C   UNL     1      -3.331  -1.384  -7.607  0.00  0.00    +0.095 C 
ATOM     15  C   UNL     1      -2.769  -0.832  -6.317  0.00  0.00    +0.231 C 
ATOM     16  O   UNL     1      -2.216   0.240  -6.196  0.00  0.00    -0.274 OA
ATOM     17  C   UNL     1      -5.368  -0.391  -6.643  0.00  0.00    -0.027 C 
ATOM     18  C   UNL     1      -5.851  -1.582  -6.270  0.00  0.00    -0.027 C 
ENDBRANCH   4   7
BRANCH   1  19
ATOM     19  C   UNL     1      -1.293  -0.774   0.011  0.00  0.00    +0.070 C 
BRANCH  19  25
ATOM     20  C   UNL     1      -0.471   1.587   0.116  0.00  0.00    +0.006 A 
ATOM     21  C   UNL     1       0.549   2.519   0.121  0.00  0.00    +0.023 A 
ATOM     22  C   UNL     1       1.870   2.100   0.026  0.00  0.00    +0.025 A 
ATOM     23  C   UNL     1       2.161   0.746  -0.074  0.00  0.00    +0.023 A 
ATOM     24  C   UNL     1       1.136  -0.180  -0.079  0.00  0.00    +0.006 A 
ATOM     25  C   UNL     1      -0.178   0.239   0.016  0.00  0.00    -0.043 A 
BRANCH  22  26
ATOM     26  N   UNL     1       2.904   3.039   0.031  0.00  0.00    -0.358 N 
ATOM     27  H   UNL     1       2.700   3.985   0.101  0.00  0.00    +0.142 HD
ATOM     28  H   UNL     1       3.826   2.746  -0.035  0.00  0.00    +0.142 HD
ENDBRANCH  22  26
ENDBRANCH  19  25
ENDBRANCH   1  19
TORSDOF 4
