REMARK  Name = ZINC34940000
REMARK  2 active torsions:
REMARK  status: ('A' for Active; 'I' for Inactive)
REMARK    1  A    between atoms: C_6  and  N_7
REMARK    2  A    between atoms: C_9  and  C_11
REMARK                            x       y       z     vdW  Elec       q    Type
REMARK                         _______ _______ _______ _____ _____    ______ ____
ROOT
ATOM      1  C   UNL     1      -0.017   1.389   0.010  0.00  0.00    +0.025 A 
ATOM      2  C   UNL     1       1.151   2.098   0.002  0.00  0.00    +0.033 A 
ATOM      3  C   UNL     1       2.375   1.425  -0.013  0.00  0.00    +0.110 A 
ATOM      4  C   UNL     1       2.399   0.020  -0.021  0.00  0.00    +0.157 A 
ATOM      5  C   UNL     1       1.208  -0.688  -0.014  0.00  0.00    +0.071 A 
ATOM      6  C   UNL     1       0.002  -0.004   0.002  0.00  0.00    +0.028 A 
ATOM      7  O   UNL     1       3.701  -0.340  -0.035  0.00  0.00    -0.435 OA
ATOM      8  C   UNL     1       4.446   0.783  -0.036  0.00  0.00    +0.229 A 
ATOM      9  N   UNL     1       3.670   1.837  -0.023  0.00  0.00    -0.209 NA
ENDROOT
BRANCH   8  10
ATOM     10  C   UNL     1       5.923   0.819  -0.050  0.00  0.00    +0.051 A 
ATOM     11  C   UNL     1       6.653  -0.371  -0.069  0.00  0.00    +0.017 A 
ATOM     12  C   UNL     1       8.031  -0.331  -0.083  0.00  0.00    +0.039 A 
ATOM     13  C   UNL     1       8.693   0.887  -0.077  0.00  0.00    +0.124 A 
ATOM     14  C   UNL     1       7.974   2.072  -0.058  0.00  0.00    +0.054 A 
ATOM     15  C   UNL     1       6.594   2.044  -0.050  0.00  0.00    +0.033 A 
ATOM     16 BR   UNL     1       5.614   3.662  -0.031  0.00  0.00    -0.049 Br
ATOM     17  F   UNL     1      10.043   0.920  -0.089  0.00  0.00    -0.205 F 
ENDBRANCH   8  10
BRANCH   6  18
ATOM     18  N   UNL     1      -1.201  -0.716   0.010  0.00  0.00    -0.358 N 
ATOM     19  H   UNL     1      -2.046  -0.240   0.020  0.00  0.00    +0.142 HD
ATOM     20  H   UNL     1      -1.190  -1.686   0.004  0.00  0.00    +0.142 HD
ENDBRANCH   6  18
TORSDOF 2
