REMARK  Name = ZINC40294427
REMARK  3 active torsions:
REMARK  status: ('A' for Active; 'I' for Inactive)
REMARK    1  A    between atoms: C_10  and  C_12
REMARK    2  A    between atoms: C_15  and  N_19
REMARK    3  A    between atoms: C_17  and  N_18
REMARK                            x       y       z     vdW  Elec       q    Type
REMARK                         _______ _______ _______ _____ _____    ______ ____
ROOT
ATOM      1  C   UNL     1       5.339   0.932  -0.276  0.00  0.00    +0.058 A 
ATOM      2  C   UNL     1       4.837   1.693  -1.337  0.00  0.00    +0.017 A 
ATOM      3  C   UNL     1       4.944   3.053  -1.315  0.00  0.00    +0.023 A 
ATOM      4  C   UNL     1       5.552   3.695  -0.237  0.00  0.00    +0.026 A 
ATOM      5  C   UNL     1       6.056   2.956   0.824  0.00  0.00    +0.046 A 
ATOM      6  C   UNL     1       5.948   1.574   0.816  0.00  0.00    +0.039 A 
ENDROOT
BRANCH   1  16
ATOM      7  C   UNL     1       3.045  -5.119  -1.165  0.00  0.00    +0.000 A 
ATOM      8  C   UNL     1       4.360  -4.839  -0.840  0.00  0.00    +0.002 A 
ATOM      9  C   UNL     1       4.764  -3.536  -0.643  0.00  0.00    +0.024 A 
ATOM     10  C   UNL     1       3.849  -2.488  -0.771  0.00  0.00    +0.040 A 
ATOM     11  C   UNL     1       2.534  -2.780  -1.097  0.00  0.00    -0.024 A 
ATOM     12  C   UNL     1       2.134  -4.088  -1.293  0.00  0.00    +0.005 A 
ATOM     13  C   UNL     1       1.759  -1.484  -1.174  0.00  0.00    +0.056 C 
ATOM     14  C   UNL     1       2.794  -0.394  -0.849  0.00  0.00    +0.118 C 
ATOM     15  N   UNL     1       4.049  -1.114  -0.617  0.00  0.00    -0.267 N 
ATOM     16  C   UNL     1       5.224  -0.535  -0.300  0.00  0.00    +0.253 C 
ATOM     17  O   UNL     1       6.190  -1.225  -0.034  0.00  0.00    -0.270 OA
ENDBRANCH   1  16
BRANCH   6  18
ATOM     18  N   UNL     1       6.445   0.828   1.877  0.00  0.00    -0.357 N 
ATOM     19  H   UNL     1       6.287  -0.128   1.914  0.00  0.00    +0.142 HD
ATOM     20  H   UNL     1       6.949   1.264   2.582  0.00  0.00    +0.142 HD
ENDBRANCH   6  18
BRANCH   4  21
ATOM     21  N   UNL     1       5.655   5.082  -0.226  0.00  0.00    -0.358 N 
ATOM     22  H   UNL     1       5.304   5.601  -0.967  0.00  0.00    +0.142 HD
ATOM     23  H   UNL     1       6.078   5.531   0.522  0.00  0.00    +0.142 HD
ENDBRANCH   4  21
TORSDOF 3
