REMARK  Name = ZINC53069545
REMARK  9 active torsions:
REMARK  status: ('A' for Active; 'I' for Inactive)
REMARK    1  A    between atoms: C_6  and  O_7
REMARK    2  A    between atoms: O_7  and  C_8
REMARK    3  A    between atoms: C_8  and  C_9
REMARK    4  A    between atoms: C_9  and  C_11
REMARK    5  A    between atoms: C_9  and  O_20
REMARK    6  A    between atoms: C_11  and  N_12
REMARK    7  A    between atoms: N_12  and  C_13
REMARK    8  A    between atoms: C_13  and  C_18
REMARK    9  A    between atoms: C_18  and  O_19
REMARK                            x       y       z     vdW  Elec       q    Type
REMARK                         _______ _______ _______ _____ _____    ______ ____
ROOT
ATOM      1  C   UNL     1      -2.475  -2.731   0.012  0.00  0.00    +0.135 C 
ENDROOT
BRANCH   1   2
ATOM      2  O   UNL     1      -3.126  -2.403   1.241  0.00  0.00    -0.390 OA
ATOM      3  H   UNL     1      -2.668  -2.731   2.028  0.00  0.00    +0.210 HD
ENDBRANCH   1   2
BRANCH   1   4
ATOM      4  C   UNL     1      -1.070  -2.126   0.001  0.00  0.00    +0.258 C 
BRANCH   4   5
ATOM      5  O   UNL     1      -1.165  -0.701   0.010  0.00  0.00    -0.489 OA
BRANCH   5  11
ATOM      6  C   UNL     1      -0.017   1.383   0.010  0.00  0.00    +0.047 A 
ATOM      7  C   UNL     1       1.171   2.089   0.002  0.00  0.00    +0.019 A 
ATOM      8  C   UNL     1       2.378   1.414  -0.013  0.00  0.00    +0.018 A 
ATOM      9  C   UNL     1       2.399   0.030  -0.022  0.00  0.00    +0.019 A 
ATOM     10  C   UNL     1       1.214  -0.679  -0.014  0.00  0.00    +0.047 A 
ATOM     11  C   UNL     1       0.002  -0.004   0.002  0.00  0.00    +0.121 A 
ATOM     12 BR   UNL     1       4.002   2.383  -0.024  0.00  0.00    -0.050 Br
ENDBRANCH   5  11
ENDBRANCH   4   5
ENDBRANCH   1   4
BRANCH   1  13
ATOM     13  C   UNL     1      -2.376  -4.252  -0.123  0.00  0.00    -0.047 C 
BRANCH  13  14
ATOM     14  N   UNL     1      -3.726  -4.823  -0.233  0.00  0.00    +0.386 N 
ATOM     15  H   UNL     1      -4.257  -4.592   0.593  0.00  0.00    -0.085 HD
ATOM     16  H   UNL     1      -4.186  -4.442  -1.046  0.00  0.00    -0.085 HD
BRANCH  14  17
ATOM     17  C   UNL     1      -3.631  -6.283  -0.362  0.00  0.00    -0.045 C 
ATOM     18  C   UNL     1      -2.884  -6.650  -1.657  0.00  0.00    -0.010 C 
ATOM     19  C   UNL     1      -3.867  -7.473  -2.515  0.00  0.00    -0.001 C 
ATOM     20  C   UNL     1      -5.266  -7.046  -2.004  0.00  0.00    -0.001 C 
ATOM     21  C   UNL     1      -5.042  -6.896  -0.479  0.00  0.00    -0.010 C 
BRANCH  17  22
ATOM     22  C   UNL     1      -2.903  -6.870   0.849  0.00  0.00    +0.143 C 
BRANCH  22  23
ATOM     23  O   UNL     1      -2.818  -8.290   0.711  0.00  0.00    -0.396 OA
ATOM     24  H   UNL     1      -2.367  -8.730   1.444  0.00  0.00    +0.209 HD
ENDBRANCH  22  23
ENDBRANCH  17  22
ENDBRANCH  14  17
ENDBRANCH  13  14
ENDBRANCH   1  13
TORSDOF 9
