REMARK  Name = ZINC48629368
REMARK  3 active torsions:
REMARK  status: ('A' for Active; 'I' for Inactive)
REMARK    1  A    between atoms: C_6  and  C_7
REMARK    2  A    between atoms: C_7  and  C_9
REMARK    3  A    between atoms: C_7  and  O_15
REMARK                            x       y       z     vdW  Elec       q    Type
REMARK                         _______ _______ _______ _____ _____    ______ ____
ROOT
ATOM      1  C   UNL     1      -0.017   1.379   0.010  0.00  0.00    +0.008 A 
ATOM      2  C   UNL     1       1.169   2.072   0.002  0.00  0.00    +0.024 A 
ATOM      3  C   UNL     1       2.408   1.409  -0.018  0.00  0.00    +0.037 A 
ATOM      4  C   UNL     1       2.420   0.030  -0.030  0.00  0.00    -0.026 A 
ATOM      5  C   UNL     1       1.210  -0.664  -0.016  0.00  0.00    +0.011 A 
ATOM      6  C   UNL     1       0.002  -0.004   0.002  0.00  0.00    -0.018 A 
ATOM      7  C   UNL     1       3.648  -0.820  -0.064  0.00  0.00    +0.037 C 
ATOM      8  C   UNL     1       4.790  -0.281  -0.868  0.00  0.00    +0.014 C 
ATOM      9  C   UNL     1       5.556   0.814  -0.165  0.00  0.00    +0.096 C 
ATOM     10  C   UNL     1       4.796   2.091  -0.133  0.00  0.00    +0.217 C 
ATOM     11  O   UNL     1       5.446   3.109  -0.237  0.00  0.00    -0.275 OA
ATOM     12  N   UNL     1       3.507   2.235  -0.006  0.00  0.00    -0.285 N 
ATOM     13  H   UNL     1       3.260   3.163   0.131  0.00  0.00    +0.155 HD
ENDROOT
BRANCH   6  14
ATOM     14  C   UNL     1      -1.289  -0.782   0.014  0.00  0.00    +0.150 C 
BRANCH  14  15
ATOM     15  C   UNL     1      -1.837  -0.838   1.442  0.00  0.00    +0.050 C 
ATOM     16  C   UNL     1      -3.132  -1.692   1.503  0.00  0.00    +0.036 C 
ATOM     17  C   UNL     1      -3.079  -2.202   2.965  0.00  0.00    +0.160 C 
ATOM     18  O   UNL     1      -1.687  -2.433   3.231  0.00  0.00    -0.379 OA
ATOM     19  C   UNL     1      -0.879  -1.619   2.367  0.00  0.00    +0.166 C 
ENDBRANCH  14  15
BRANCH  14  20
ATOM     20  O   UNL     1      -2.240  -0.139  -0.836  0.00  0.00    -0.387 OA
ATOM     21  H   UNL     1      -2.451   0.768  -0.576  0.00  0.00    +0.210 HD
ENDBRANCH  14  20
ENDBRANCH   6  14
TORSDOF 3
