REMARK  Name = ZINC40722970
REMARK  4 active torsions:
REMARK  status: ('A' for Active; 'I' for Inactive)
REMARK    1  A    between atoms: C_1  and  C_2
REMARK    2  A    between atoms: C_10  and  N_23
REMARK    3  A    between atoms: C_11  and  S_15
REMARK    4  A    between atoms: S_15  and  C_16
REMARK                            x       y       z     vdW  Elec       q    Type
REMARK                         _______ _______ _______ _____ _____    ______ ____
ROOT
ATOM      1  C   UNL     1      -1.046   0.507   3.613  0.00  0.00    +0.009 C 
ATOM      2  C   UNL     1      -0.213   0.015   2.428  0.00  0.00    +0.003 C 
ATOM      3  C   UNL     1      -0.917   0.382   1.120  0.00  0.00    +0.006 C 
ATOM      4  C   UNL     1      -0.068  -0.082  -0.066  0.00  0.00    +0.019 C 
ATOM      5  C   UNL     1       0.089  -1.605  -0.012  0.00  0.00    +0.106 C 
ATOM      6  N   UNL     1       0.632  -1.978   1.301  0.00  0.00    -0.313 N 
ATOM      7  C   UNL     1      -0.056  -1.507   2.511  0.00  0.00    +0.109 C 
ATOM      8  C   UNL     1       1.776  -2.761   1.398  0.00  0.00    +0.146 A 
ATOM      9  C   UNL     1       1.676  -4.147   1.536  0.00  0.00    +0.098 A 
ATOM     10  C   UNL     1       2.857  -4.887   1.629  0.00  0.00    +0.127 A 
ATOM     11  N   UNL     1       4.024  -4.248   1.582  0.00  0.00    -0.227 NA
ATOM     12  C   UNL     1       4.074  -2.938   1.450  0.00  0.00    +0.224 A 
ATOM     13  N   UNL     1       2.983  -2.203   1.355  0.00  0.00    -0.219 NA
ENDROOT
BRANCH   9  14
ATOM     14  N   UNL     1       0.423  -4.779   1.582  0.00  0.00    -0.353 N 
ATOM     15  H   UNL     1      -0.386  -4.263   1.438  0.00  0.00    +0.142 HD
ATOM     16  H   UNL     1       0.366  -5.731   1.757  0.00  0.00    +0.142 HD
ENDBRANCH   9  14
BRANCH  10  17
ATOM     17  S   UNL     1       2.803  -6.639   1.806  0.00  0.00    -0.068 S 
BRANCH  17  18
ATOM     18  C   UNL     1       4.489  -7.097   2.035  0.00  0.00    +0.014 A 
ATOM     19  C   UNL     1       5.052  -7.064   3.304  0.00  0.00    +0.016 A 
ATOM     20  C   UNL     1       6.374  -7.423   3.481  0.00  0.00    +0.021 A 
ATOM     21  C   UNL     1       7.137  -7.816   2.395  0.00  0.00    +0.041 A 
ATOM     22  C   UNL     1       6.578  -7.850   1.130  0.00  0.00    +0.021 A 
ATOM     23  C   UNL     1       5.255  -7.497   0.948  0.00  0.00    +0.016 A 
ATOM     24 CL   UNL     1       8.798  -8.266   2.621  0.00  0.00    -0.084 Cl
ENDBRANCH  17  18
ENDBRANCH  10  17
TORSDOF 3
