REMARK  Name = ZINC39747201
REMARK  5 active torsions:
REMARK  status: ('A' for Active; 'I' for Inactive)
REMARK    1  A    between atoms: C_4  and  O_7
REMARK    2  A    between atoms: O_7  and  C_8
REMARK    3  A    between atoms: C_10  and  C_21
REMARK    4  A    between atoms: C_22  and  C_23
REMARK    5  A    between atoms: C_22  and  C_25
REMARK                            x       y       z     vdW  Elec       q    Type
REMARK                         _______ _______ _______ _____ _____    ______ ____
ROOT
ATOM      1  C   UNL     1       3.531  -2.060  -0.044  0.00  0.00    +0.308 C 
ATOM      2  C   UNL     1       4.907  -2.621   0.318  0.00  0.00    +0.163 C 
ATOM      3  C   UNL     1       4.942  -4.093  -0.011  0.00  0.00    +0.237 C 
ATOM      4  O   UNL     1       5.556  -4.862   0.697  0.00  0.00    -0.274 OA
ATOM      5  N   UNL     1       4.286  -4.548  -1.097  0.00  0.00    -0.231 N 
ATOM      6  C   UNL     1       4.438  -5.856  -1.482  0.00  0.00    +0.085 C 
ATOM      7  C   UNL     1       3.897  -6.301  -2.632  0.00  0.00    +0.016 C 
ATOM      8  C   UNL     1       3.164  -5.429  -3.459  0.00  0.00    +0.005 C 
ATOM      9  C   UNL     1       2.950  -4.148  -3.067  0.00  0.00    +0.044 C 
ATOM     10  C   UNL     1       3.473  -3.705  -1.825  0.00  0.00    +0.130 C 
ATOM     11  N   UNL     1       3.138  -2.523  -1.372  0.00  0.00    -0.225 NA
ENDROOT
BRANCH   2  12
ATOM     12  C   UNL     1       5.969  -1.901  -0.472  0.00  0.00    +0.010 C 
ATOM     13  C   UNL     1       6.928  -1.230   0.160  0.00  0.00    +0.068 C 
BRANCH  13  14
ATOM     14  C   UNL     1       7.990  -0.509  -0.631  0.00  0.00    +0.216 C 
ATOM     15  N   UNL     1       9.322  -0.989  -0.239  0.00  0.00    -0.359 N 
ATOM     16  C   UNL     1       9.980   0.030   0.233  0.00  0.00    +0.060 A 
ATOM     17  C   UNL     1      11.339   0.178   0.773  0.00  0.00    +0.027 A 
ATOM     18  C   UNL     1      11.758   1.387   1.197  0.00  0.00    +0.002 A 
ATOM     19  C   UNL     1      10.943   2.532   1.147  0.00  0.00    +0.002 A 
ATOM     20  C   UNL     1       9.683   2.507   0.671  0.00  0.00    +0.027 A 
ATOM     21  C   UNL     1       9.118   1.242   0.179  0.00  0.00    +0.060 A 
ATOM     22  N   UNL     1       7.960   0.926  -0.324  0.00  0.00    -0.359 N 
ATOM     23  H   UNL     1       9.650  -1.898  -0.318  0.00  0.00    +0.162 HD
ATOM     24  H   UNL     1       7.214   1.529  -0.469  0.00  0.00    +0.162 HD
ENDBRANCH  13  14
BRANCH  13  25
ATOM     25  C   UNL     1       6.951  -1.190   1.591  0.00  0.00    +0.098 C 
ATOM     26  N   UNL     1       6.969  -1.160   2.727  0.00  0.00    -0.191 NA
ENDBRANCH  13  25
ENDBRANCH   2  12
BRANCH   1  27
ATOM     27  O   UNL     1       3.586  -0.632  -0.037  0.00  0.00    -0.466 OA
BRANCH  27  31
ATOM     28  C   UNL     1      -0.017   1.378   0.010  0.00  0.00    +0.000 A 
ATOM     29  C   UNL     1       1.170   2.088   0.002  0.00  0.00    +0.004 A 
ATOM     30  C   UNL     1       2.377   1.417  -0.013  0.00  0.00    +0.046 A 
ATOM     31  C   UNL     1       2.399   0.030  -0.021  0.00  0.00    +0.123 A 
ATOM     32  C   UNL     1       1.207  -0.680  -0.013  0.00  0.00    +0.046 A 
ATOM     33  C   UNL     1       0.002  -0.004   0.002  0.00  0.00    +0.004 A 
ENDBRANCH  27  31
ENDBRANCH   1  27
TORSDOF 5
