REMARK  Name = ZINC12326240
REMARK  7 active torsions:
REMARK  status: ('A' for Active; 'I' for Inactive)
REMARK    1  A    between atoms: N_6  and  C_8
REMARK    2  A    between atoms: C_8  and  C_9
REMARK    3  A    between atoms: N_11  and  C_12
REMARK    4  A    between atoms: C_12  and  C_13
REMARK    5  A    between atoms: C_13  and  N_50
REMARK    6  A    between atoms: C_16  and  C_19
REMARK    7  A    between atoms: C_16  and  O_26
REMARK                            x       y       z     vdW  Elec       q    Type
REMARK                         _______ _______ _______ _____ _____    ______ ____
ROOT
ATOM      1  C   UNL     1       0.442   3.521   1.295  0.00  0.00    -0.076 C 
ATOM      2  C   UNL     1       1.146   3.087   0.008  0.00  0.00    +0.021 C 
ATOM      3  C   UNL     1       1.286   1.562  -0.002  0.00  0.00    +0.088 C 
ATOM      4  C   UNL     1       2.062   1.121   1.242  0.00  0.00    +0.021 C 
ATOM      5  C   UNL     1       1.332   1.612   2.494  0.00  0.00    -0.076 C 
ATOM      6  N   UNL     1       1.252   3.088   2.454  0.00  0.00    +0.381 N 
ATOM      7  H   UNL     1       2.200   3.471   2.360  0.00  0.00    -0.082 HD
ENDROOT
BRANCH   3   8
ATOM      8  C   UNL     1       2.031   1.132  -1.240  0.00  0.00    -0.016 A 
ATOM      9  C   UNL     1       2.965   1.976  -1.811  0.00  0.00    +0.009 A 
ATOM     10  C   UNL     1       3.652   1.581  -2.944  0.00  0.00    +0.039 A 
ATOM     11  C   UNL     1       3.396   0.344  -3.512  0.00  0.00    +0.123 A 
ATOM     12  C   UNL     1       2.456  -0.497  -2.942  0.00  0.00    +0.039 A 
ATOM     13  C   UNL     1       1.774  -0.102  -1.806  0.00  0.00    +0.009 A 
ATOM     14  F   UNL     1       4.063  -0.041  -4.622  0.00  0.00    -0.205 F 
ENDBRANCH   3   8
BRANCH   3  15
ATOM     15  O   UNL     1      -0.011   0.963   0.007  0.00  0.00    -0.384 OA
ATOM     16  H   UNL     1       0.002  -0.004   0.002  0.00  0.00    +0.211 HD
ENDBRANCH   3  15
BRANCH   6  17
ATOM     17  C   UNL     1       0.652   3.595   3.706  0.00  0.00    -0.060 C 
BRANCH  17  18
ATOM     18  C   UNL     1       1.332   2.917   4.897  0.00  0.00    +0.086 C 
BRANCH  18  21
ATOM     19  C   UNL     1       1.210   2.978   7.330  0.00  0.00    +0.233 C 
ATOM     20  O   UNL     1       2.086   2.140   7.366  0.00  0.00    -0.274 OA
ATOM     21  N   UNL     1       0.761   3.434   6.144  0.00  0.00    -0.316 N 
ATOM     22  H   UNL     1       0.061   4.104   6.115  0.00  0.00    +0.149 HD
BRANCH  19  23
ATOM     23  C   UNL     1       0.623   3.510   8.612  0.00  0.00    +0.222 C 
BRANCH  23  29
ATOM     24  C   UNL     1       2.981   2.796  11.360  0.00  0.00    +0.038 A 
ATOM     25  C   UNL     1       2.425   1.613  11.856  0.00  0.00    +0.118 A 
ATOM     26  N   UNL     1       1.343   1.112  11.296  0.00  0.00    -0.201 NA
ATOM     27  C   UNL     1       0.763   1.723  10.261  0.00  0.00    +0.349 A 
ATOM     28  O   UNL     1      -0.241   1.242   9.764  0.00  0.00    -0.244 OA
ATOM     29  N   UNL     1       1.274   2.861   9.753  0.00  0.00    -0.290 N 
ATOM     30  C   UNL     1       2.389   3.411  10.301  0.00  0.00    +0.092 A 
ENDBRANCH  23  29
ENDBRANCH  19  23
ENDBRANCH  18  21
ENDBRANCH  17  18
ENDBRANCH   6  17
TORSDOF 7
