REMARK  Name = ZINC12603948
REMARK  10 active torsions:
REMARK  status: ('A' for Active; 'I' for Inactive)
REMARK    1  A    between atoms: C_3  and  N_8
REMARK    2  A    between atoms: N_11  and  C_12
REMARK    3  A    between atoms: C_12  and  C_13
REMARK    4  A    between atoms: C_15  and  O_35
REMARK    5  A    between atoms: C_17  and  O_34
REMARK    6  A    between atoms: C_19  and  C_22
REMARK    7  A    between atoms: C_22  and  C_23
REMARK    8  A    between atoms: N_25  and  C_26
REMARK    9  A    between atoms: C_26  and  C_27
REMARK   10  A    between atoms: C_27  and  N_28
REMARK                            x       y       z     vdW  Elec       q    Type
REMARK                         _______ _______ _______ _____ _____    ______ ____
ROOT
ATOM      1  C   UNL     1      -3.879  -0.039  -1.535  0.00  0.00    +0.167 C 
ATOM      2  C   UNL     1      -4.603   1.264  -1.111  0.00  0.00    +0.176 C 
ATOM      3  C   UNL     1      -3.807   1.683   0.149  0.00  0.00    +0.175 C 
ATOM      4  C   UNL     1      -2.459   0.949   0.005  0.00  0.00    +0.158 C 
ATOM      5  O   UNL     1      -2.492   0.235  -1.243  0.00  0.00    -0.366 OA
ENDROOT
BRANCH   3   6
ATOM      6  O   UNL     1      -4.484   1.257   1.333  0.00  0.00    -0.387 OA
ATOM      7  H   UNL     1      -4.053   1.474   2.321  0.00  0.00    +0.210 HD
ENDBRANCH   3   6
BRANCH   2   8
ATOM      8  O   UNL     1      -5.971   1.006  -0.788  0.00  0.00    -0.387 OA
ATOM      9  H   UNL     1      -6.625   1.829  -0.467  0.00  0.00    +0.210 HD
ENDBRANCH   2   8
BRANCH   1  10
ATOM     10  C   UNL     1      -4.073  -0.302  -3.030  0.00  0.00    +0.140 C 
BRANCH  10  14
ATOM     11  N   UNL     1      -2.991  -3.231  -4.971  0.00  0.00    -0.269 N 
ATOM     12  C   UNL     1      -3.534  -2.040  -4.650  0.00  0.00    +0.304 C 
ATOM     13  O   UNL     1      -4.071  -1.366  -5.508  0.00  0.00    -0.253 OA
ATOM     14  N   UNL     1      -3.482  -1.597  -3.379  0.00  0.00    -0.297 N 
ATOM     15  H   UNL     1      -2.439  -3.806  -4.213  0.00  0.00    +0.156 HD
ATOM     16  H   UNL     1      -2.997  -2.207  -2.603  0.00  0.00    +0.150 HD
BRANCH  11  19
ATOM     17  C   UNL     1      -3.260  -3.371  -8.636  0.00  0.00    +0.005 A 
ATOM     18  C   UNL     1      -3.125  -2.871  -7.356  0.00  0.00    +0.023 A 
ATOM     19  C   UNL     1      -3.128  -3.736  -6.269  0.00  0.00    +0.037 A 
ATOM     20  C   UNL     1      -3.262  -5.102  -6.473  0.00  0.00    +0.061 A 
ATOM     21  C   UNL     1      -3.403  -5.598  -7.757  0.00  0.00    +0.125 A 
ATOM     22  C   UNL     1      -3.399  -4.731  -8.838  0.00  0.00    +0.038 A 
ATOM     23  F   UNL     1      -3.539  -6.927  -7.957  0.00  0.00    -0.205 F 
ENDBRANCH  11  19
ENDBRANCH  10  14
ENDBRANCH   1  10
BRANCH   4  24
ATOM     24  C   UNL     1      -1.313   1.962  -0.005  0.00  0.00    +0.130 C 
BRANCH  24  25
ATOM     25  C   UNL     1       0.004   1.230  -0.022  0.00  0.00    +0.216 C 
ATOM     26  O   UNL     1       0.024   0.018  -0.026  0.00  0.00    -0.276 OA
ATOM     27  N   UNL     1       1.160   1.924  -0.039  0.00  0.00    -0.314 N 
ATOM     28  H   UNL     1       1.141   3.024  -0.035  0.00  0.00    +0.149 HD
BRANCH  27  29
ATOM     29  C   UNL     1       2.440   1.213  -0.061  0.00  0.00    +0.119 C 
BRANCH  29  30
ATOM     30  C   UNL     1       3.586   2.226  -0.077  0.00  0.00    +0.103 C 
BRANCH  30  31
ATOM     31  N   UNL     1       4.870   1.513  -0.099  0.00  0.00    -0.297 NA
ATOM     32  C   UNL     1       5.084   0.773   1.153  0.00  0.00    +0.112 C 
ATOM     33  C   UNL     1       6.402  -0.002   1.063  0.00  0.00    +0.175 C 
ATOM     34  O   UNL     1       7.467   0.911   0.785  0.00  0.00    -0.377 OA
ATOM     35  C   UNL     1       7.292   1.649  -0.428  0.00  0.00    +0.175 C 
ATOM     36  C   UNL     1       5.983   2.440  -0.353  0.00  0.00    +0.112 C 
ENDBRANCH  30  31
ENDBRANCH  29  30
ENDBRANCH  27  29
ENDBRANCH  24  25
ENDBRANCH   4  24
TORSDOF 10
