REMARK  Name = ZINC39606858
REMARK  9 active torsions:
REMARK  status: ('A' for Active; 'I' for Inactive)
REMARK    1  A    between atoms: C_1  and  C_2
REMARK    2  A    between atoms: C_5  and  C_9
REMARK    3  A    between atoms: C_6  and  C_8
REMARK    4  A    between atoms: C_9  and  N_10
REMARK    5  A    between atoms: C_11  and  C_13
REMARK    6  A    between atoms: C_24  and  C_26
REMARK    7  A    between atoms: C_31  and  O_32
REMARK    8  A    between atoms: O_32  and  C_33
REMARK    9  A    between atoms: C_33  and  C_35
REMARK                            x       y       z     vdW  Elec       q    Type
REMARK                         _______ _______ _______ _____ _____    ______ ____
ROOT
ATOM      1  C   UNL     1      -3.272  -6.821   0.248  0.00  0.00    +0.100 C 
ATOM      2  C   UNL     1      -3.549  -6.379   1.702  0.00  0.00    +0.121 C 
ATOM      3  N   UNL     1      -4.211  -7.547   2.329  0.00  0.00    -0.296 N 
ATOM      4  C   UNL     1      -3.488  -8.719   1.780  0.00  0.00    +0.115 C 
ATOM      5  C   UNL     1      -3.232  -8.357   0.303  0.00  0.00    -0.004 C 
ATOM      6  C   UNL     1      -4.327  -8.946  -0.582  0.00  0.00    -0.010 C 
ATOM      7  C   UNL     1      -4.231 -10.474  -0.555  0.00  0.00    -0.082 C 
ATOM      8  N   UNL     1      -2.908 -10.891  -1.036  0.00  0.00    +0.379 N 
ATOM      9  C   UNL     1      -1.866 -10.398  -0.127  0.00  0.00    -0.082 C 
ATOM     10  C   UNL     1      -1.863  -8.866  -0.135  0.00  0.00    -0.010 C 
ATOM     11  C   UNL     1      -5.237  -7.545   3.202  0.00  0.00    +0.250 C 
ATOM     12  O   UNL     1      -5.611  -8.588   3.704  0.00  0.00    -0.270 OA
ATOM     13  H   UNL     1      -2.868 -11.899  -1.075  0.00  0.00    -0.086 HD
ATOM     14  H   UNL     1      -2.753 -10.515  -1.959  0.00  0.00    -0.086 HD
ENDROOT
BRANCH  11  15
ATOM     15  C   UNL     1      -5.908  -6.277   3.550  0.00  0.00    +0.079 A 
ATOM     16  C   UNL     1      -5.171  -5.093   3.635  0.00  0.00    +0.017 A 
ATOM     17  C   UNL     1      -5.804  -3.913   3.960  0.00  0.00    +0.001 A 
ATOM     18  C   UNL     1      -7.168  -3.894   4.202  0.00  0.00    +0.004 A 
ATOM     19  C   UNL     1      -7.907  -5.057   4.120  0.00  0.00    +0.047 A 
ATOM     20  C   UNL     1      -7.288  -6.253   3.790  0.00  0.00    +0.144 A 
BRANCH  20  21
ATOM     21  O   UNL     1      -8.015  -7.396   3.704  0.00  0.00    -0.425 OA
BRANCH  21  22
ATOM     22  C   UNL     1      -8.501  -7.746   2.502  0.00  0.00    +0.309 C 
ATOM     23  O   UNL     1      -8.210  -7.101   1.522  0.00  0.00    -0.251 OA
ATOM     24  C   UNL     1      -9.408  -8.942   2.375  0.00  0.00    +0.136 C 
ENDBRANCH  21  22
ENDBRANCH  20  21
ENDBRANCH  11  15
BRANCH   1  26
ATOM     25  N   UNL     1      -1.713  -6.121  -1.540  0.00  0.00    -0.311 N 
ATOM     26  C   UNL     1      -1.947  -6.278  -0.222  0.00  0.00    +0.218 C 
ATOM     27  O   UNL     1      -1.092  -5.982   0.585  0.00  0.00    -0.275 OA
ATOM     28  H   UNL     1      -2.397  -6.358  -2.186  0.00  0.00    +0.149 HD
BRANCH  25  29
ATOM     29  C   UNL     1      -0.425  -5.594  -1.997  0.00  0.00    +0.139 C 
BRANCH  29  34
ATOM     30  C   UNL     1      -0.404  -5.304  -7.769  0.00  0.00    +0.044 C 
ATOM     31  C   UNL     1      -0.409  -5.380  -6.263  0.00  0.00    -0.050 A 
ATOM     32  C   UNL     1       0.213  -6.434  -5.622  0.00  0.00    +0.004 A 
ATOM     33  C   UNL     1       0.208  -6.504  -4.242  0.00  0.00    +0.006 A 
ATOM     34  C   UNL     1      -0.419  -5.518  -3.502  0.00  0.00    -0.027 A 
ATOM     35  C   UNL     1      -1.040  -4.463  -4.144  0.00  0.00    -0.046 A 
ATOM     36  C   UNL     1      -1.031  -4.391  -5.524  0.00  0.00    +0.007 A 
ATOM     37  C   UNL     1      -1.723  -3.388  -3.338  0.00  0.00    +0.044 C 
ENDBRANCH  29  34
ENDBRANCH  25  29
ENDBRANCH   1  26
TORSDOF 6
