REMARK  Name = ZINC36272638
REMARK  8 active torsions:
REMARK  status: ('A' for Active; 'I' for Inactive)
REMARK    1  A    between atoms: C_1  and  C_2
REMARK    2  A    between atoms: C_5  and  C_9
REMARK    3  A    between atoms: C_6  and  C_8
REMARK    4  A    between atoms: C_10  and  C_19
REMARK    5  A    between atoms: C_13  and  N_18
REMARK    6  A    between atoms: C_19  and  N_20
REMARK    7  A    between atoms: C_22  and  C_29
REMARK    8  A    between atoms: C_25  and  C_28
REMARK                            x       y       z     vdW  Elec       q    Type
REMARK                         _______ _______ _______ _____ _____    ______ ____
ROOT
ATOM      1  C   UNL     1       0.488  -4.334   0.076  0.00  0.00    +0.094 A 
ATOM      2  C   UNL     1       0.608  -5.205  -0.965  0.00  0.00    +0.065 A 
ATOM      3  N   UNL     1       0.881  -6.433  -0.432  0.00  0.00    -0.300 N 
ATOM      4  C   UNL     1       1.097  -7.657  -1.003  0.00  0.00    +0.115 A 
ATOM      5  C   UNL     1       1.353  -8.741  -0.232  0.00  0.00    +0.041 A 
ATOM      6  C   UNL     1       1.401  -8.616   1.171  0.00  0.00    +0.028 A 
ATOM      7  C   UNL     1       1.188  -7.403   1.747  0.00  0.00    +0.048 A 
ATOM      8  C   UNL     1       0.922  -6.285   0.930  0.00  0.00    +0.139 A 
ATOM      9  N   UNL     1       0.689  -5.012   1.217  0.00  0.00    -0.227 NA
ENDROOT
BRANCH   1  14
ATOM     10  C   UNL     1      -0.659   1.294  -0.348  0.00  0.00    +0.044 C 
ATOM     11  C   UNL     1      -0.359  -0.178  -0.237  0.00  0.00    -0.050 A 
ATOM     12  C   UNL     1       0.631  -0.741  -1.023  0.00  0.00    +0.004 A 
ATOM     13  C   UNL     1       0.910  -2.089  -0.925  0.00  0.00    +0.010 A 
ATOM     14  C   UNL     1       0.193  -2.884  -0.033  0.00  0.00    +0.005 A 
ATOM     15  C   UNL     1      -0.803  -2.312   0.756  0.00  0.00    -0.041 A 
ATOM     16  C   UNL     1      -1.070  -0.961   0.654  0.00  0.00    +0.007 A 
ATOM     17  C   UNL     1      -1.583  -3.165   1.723  0.00  0.00    +0.044 C 
ENDBRANCH   1  14
BRANCH   5  18
ATOM     18  N   UNL     1       1.572  -9.989  -0.830  0.00  0.00    -0.357 N 
ATOM     19  H   UNL     1       1.540 -10.076  -1.796  0.00  0.00    +0.142 HD
ATOM     20  H   UNL     1       1.756 -10.766  -0.279  0.00  0.00    +0.142 HD
ENDBRANCH   5  18
BRANCH   2  21
ATOM     21  C   UNL     1       0.466  -4.876  -2.429  0.00  0.00    +0.140 C 
BRANCH  21  22
ATOM     22  N   UNL     1      -0.955  -4.896  -2.800  0.00  0.00    -0.292 NA
ATOM     23  C   UNL     1      -1.507  -6.255  -2.698  0.00  0.00    +0.116 C 
ATOM     24  C   UNL     1      -3.000  -6.220  -3.035  0.00  0.00    +0.130 C 
ATOM     25  O   UNL     1      -3.177  -5.660  -4.338  0.00  0.00    -0.371 OA
ATOM     26  C   UNL     1      -2.652  -4.336  -4.472  0.00  0.00    +0.130 C 
ATOM     27  C   UNL     1      -1.155  -4.352  -4.151  0.00  0.00    +0.116 C 
ATOM     28  C   UNL     1      -2.862  -3.846  -5.906  0.00  0.00    +0.039 C 
ATOM     29  C   UNL     1      -3.563  -7.643  -3.008  0.00  0.00    +0.039 C 
ENDBRANCH  21  22
ENDBRANCH   2  21
TORSDOF 4
