REMARK  Name = ZINC04559995
REMARK  3 active torsions:
REMARK  status: ('A' for Active; 'I' for Inactive)
REMARK    1  A    between atoms: C_8  and  C_10
REMARK    2  A    between atoms: N_12  and  C_13
REMARK    3  A    between atoms: C_13  and  C_14
REMARK                            x       y       z     vdW  Elec       q    Type
REMARK                         _______ _______ _______ _____ _____    ______ ____
ROOT
ATOM      1  C   UNL     1      -0.013   1.076   0.008  0.00  0.00    +0.001 A 
ATOM      2  C   UNL     1      -1.235   1.737   0.017  0.00  0.00    +0.001 A 
ATOM      3  C   UNL     1      -1.261   3.117   0.030  0.00  0.00    +0.016 A 
ATOM      4  C   UNL     1      -0.075   3.819   0.023  0.00  0.00    +0.021 A 
ATOM      5  C   UNL     1       1.184   3.173   0.008  0.00  0.00    +0.008 A 
ATOM      6  C   UNL     1       1.164   1.754   0.000  0.00  0.00    +0.010 A 
ATOM      7  C   UNL     1       2.301   4.028   0.002  0.00  0.00    +0.068 A 
ATOM      8  C   UNL     1       2.122   5.377   0.011  0.00  0.00    +0.093 A 
ATOM      9  S   UNL     1       0.346   5.544   0.029  0.00  0.00    -0.082 S 
ATOM     10 CL   UNL     1       3.905   3.364  -0.017  0.00  0.00    -0.082 Cl
ENDROOT
BRANCH   8  11
ATOM     11  C   UNL     1       3.140   6.435   0.008  0.00  0.00    +0.253 C 
ATOM     12  O   UNL     1       4.321   6.143  -0.006  0.00  0.00    -0.270 OA
ATOM     13  N   UNL     1       2.767   7.730   0.019  0.00  0.00    -0.298 N 
ATOM     14  H   UNL     1       1.825   7.963   0.029  0.00  0.00    +0.150 HD
BRANCH  13  15
ATOM     15  C   UNL     1       3.782   8.786   0.015  0.00  0.00    +0.223 C 
BRANCH  15  16
ATOM     16  C   UNL     1       3.123  10.102   0.029  0.00  0.00    +0.081 C 
ATOM     17  N   UNL     1       2.613  11.117   0.039  0.00  0.00    -0.195 NA
ENDBRANCH  15  16
ENDBRANCH  13  15
ENDBRANCH   8  11
TORSDOF 3
