REMARK  Name = ZINC15972592
REMARK  5 active torsions:
REMARK  status: ('A' for Active; 'I' for Inactive)
REMARK    1  A    between atoms: C_1  and  C_2
REMARK    2  A    between atoms: C_2  and  C_3
REMARK    3  A    between atoms: C_2  and  C_4
REMARK    4  A    between atoms: N_12  and  C_15
REMARK    5  A    between atoms: C_15  and  C_16
REMARK                            x       y       z     vdW  Elec       q    Type
REMARK                         _______ _______ _______ _____ _____    ______ ____
ROOT
ATOM      1  C   UNL     1      -1.424  -0.558   0.008  0.00  0.00    +0.070 C 
ATOM      2  C   UNL     1      -1.403  -2.093   0.163  0.00  0.00    +0.107 C 
ATOM      3  C   UNL     1      -2.616  -2.419   1.078  0.00  0.00    +0.122 C 
ATOM      4  C   UNL     1      -1.970  -2.977   2.326  0.00  0.00    +0.229 C 
ATOM      5  O   UNL     1      -2.564  -3.369   3.308  0.00  0.00    -0.275 OA
ATOM      6  N   UNL     1      -0.640  -2.973   2.179  0.00  0.00    -0.238 N 
ATOM      7  C   UNL     1      -0.204  -2.496   0.990  0.00  0.00    +0.227 C 
ATOM      8  O   UNL     1       0.953  -2.401   0.639  0.00  0.00    -0.275 OA
ATOM      9  C   UNL     1      -3.251  -1.055   1.377  0.00  0.00    +0.136 C 
ATOM     10  N   UNL     1      -2.167  -0.061   1.198  0.00  0.00    -0.295 NA
ATOM     11  C   UNL     1      -4.425  -0.787   0.478  0.00  0.00    +0.003 A 
ATOM     12  C   UNL     1      -4.573  -0.701  -0.888  0.00  0.00    +0.008 A 
ATOM     13  C   UNL     1      -5.816  -0.433  -1.434  0.00  0.00    +0.000 A 
ATOM     14  C   UNL     1      -6.907  -0.253  -0.605  0.00  0.00    +0.002 A 
ATOM     15  C   UNL     1      -6.764  -0.337   0.764  0.00  0.00    +0.023 A 
ATOM     16  C   UNL     1      -5.516  -0.606   1.323  0.00  0.00    +0.039 A 
ATOM     17  N   UNL     1      -5.122  -0.736   2.656  0.00  0.00    -0.283 N 
ATOM     18  C   UNL     1      -3.806  -1.000   2.774  0.00  0.00    +0.243 C 
ATOM     19  O   UNL     1      -3.189  -1.162   3.805  0.00  0.00    -0.273 OA
ATOM     20  H   UNL     1      -1.566  -0.019   2.007  0.00  0.00    +0.124 HD
ATOM     21  H   UNL     1      -5.726  -0.648   3.410  0.00  0.00    +0.155 HD
ENDROOT
BRANCH   1  23
ATOM     22  C   UNL     1       0.705  -0.421  -1.291  0.00  0.00    +0.009 C 
ATOM     23  C   UNL     1       0.002  -0.004   0.002  0.00  0.00    +0.001 C 
ATOM     24  C   UNL     1      -0.043   1.523   0.088  0.00  0.00    +0.009 C 
ENDBRANCH   1  23
BRANCH   6  25
ATOM     25  C   UNL     1       0.274  -3.452   3.218  0.00  0.00    +0.143 C 
BRANCH  25  26
ATOM     26  C   UNL     1       0.531  -4.924   3.022  0.00  0.00    -0.015 C 
ATOM     27  C   UNL     1       1.759  -5.365   2.910  0.00  0.00    +0.005 C 
ENDBRANCH  25  26
ENDBRANCH   6  25
TORSDOF 3
