REMARK  Name = ZINC16743433
REMARK  8 active torsions:
REMARK  status: ('A' for Active; 'I' for Inactive)
REMARK    1  A    between atoms: C_1  and  C_2
REMARK    2  A    between atoms: C_7  and  S_29
REMARK    3  A    between atoms: C_12  and  C_14
REMARK    4  A    between atoms: C_14  and  O_15
REMARK    5  A    between atoms: O_15  and  C_16
REMARK    6  A    between atoms: C_16  and  C_18
REMARK    7  A    between atoms: C_27  and  O_28
REMARK    8  A    between atoms: S_29  and  N_32
REMARK                            x       y       z     vdW  Elec       q    Type
REMARK                         _______ _______ _______ _____ _____    ______ ____
ROOT
ATOM      1  C   UNL     1      -6.398  -5.197  -1.251  0.00  0.00    +0.029 C 
ATOM      2  C   UNL     1      -7.103  -4.695   0.011  0.00  0.00    +0.083 C 
ATOM      3  C   UNL     1      -8.573  -5.146   0.015  0.00  0.00    +0.059 C 
ATOM      4  C   UNL     1      -9.366  -3.858   0.025  0.00  0.00    -0.022 A 
ATOM      5  C   UNL     1     -10.730  -3.634   0.032  0.00  0.00    +0.034 A 
ATOM      6  C   UNL     1     -11.221  -2.342   0.041  0.00  0.00    +0.105 A 
ATOM      7  C   UNL     1     -10.344  -1.273   0.043  0.00  0.00    +0.030 A 
ATOM      8  C   UNL     1      -8.983  -1.492   0.036  0.00  0.00    +0.026 A 
ATOM      9  C   UNL     1      -8.479  -2.794   0.033  0.00  0.00    +0.040 A 
ATOM     10  N   UNL     1      -7.151  -3.230   0.018  0.00  0.00    -0.265 N 
ATOM     11  C   UNL     1      -6.072  -2.422   0.018  0.00  0.00    +0.258 C 
ATOM     12  O   UNL     1      -4.957  -2.900   0.010  0.00  0.00    -0.271 OA
ENDROOT
BRANCH   6  13
ATOM     13  S   UNL     1     -12.960  -2.058   0.051  0.00  0.00    +0.056 S 
ATOM     14  O   UNL     1     -13.162  -0.761  -0.492  0.00  0.00    -0.153 OA
ATOM     15  O   UNL     1     -13.564  -3.219  -0.503  0.00  0.00    -0.153 OA
BRANCH  13  16
ATOM     16  N   UNL     1     -13.435  -1.987   1.636  0.00  0.00    -0.204 NA
ATOM     17  H   UNL     1     -12.781  -2.097   2.344  0.00  0.00    +0.144 HD
ATOM     18  H   UNL     1     -14.368  -1.836   1.856  0.00  0.00    +0.144 HD
ENDBRANCH  13  16
ENDBRANCH   6  13
BRANCH  11  19
ATOM     19  C   UNL     1      -6.251  -0.926   0.026  0.00  0.00    +0.328 C 
BRANCH  19  20
ATOM     20  O   UNL     1      -4.949  -0.283   0.024  0.00  0.00    -0.452 OA
BRANCH  20  21
ATOM     21  C   UNL     1      -4.933   1.065   0.030  0.00  0.00    +0.343 C 
ATOM     22  O   UNL     1      -5.978   1.685   0.038  0.00  0.00    -0.245 OA
BRANCH  21  23
ATOM     23  C   UNL     1      -3.647   1.786   0.028  0.00  0.00    +0.101 A 
ATOM     24  C   UNL     1      -2.458   1.074   0.019  0.00  0.00    +0.027 A 
ATOM     25  C   UNL     1      -1.239   1.766   0.018  0.00  0.00    -0.017 A 
ATOM     26  C   UNL     1      -0.013   1.076   0.008  0.00  0.00    +0.008 A 
ATOM     27  C   UNL     1       1.154   1.775   0.001  0.00  0.00    +0.001 A 
ATOM     28  C   UNL     1       1.155   3.169   0.007  0.00  0.00    +0.001 A 
ATOM     29  C   UNL     1      -0.011   3.872   0.022  0.00  0.00    +0.008 A 
ATOM     30  C   UNL     1      -1.238   3.185   0.030  0.00  0.00    -0.014 A 
ATOM     31  C   UNL     1      -2.456   3.883   0.045  0.00  0.00    +0.054 A 
ATOM     32  C   UNL     1      -3.635   3.197   0.036  0.00  0.00    +0.131 A 
BRANCH  32  33
ATOM     33  O   UNL     1      -4.809   3.879   0.046  0.00  0.00    -0.506 OA
ATOM     34  H   UNL     1      -5.144   4.072   0.932  0.00  0.00    +0.292 HD
ENDBRANCH  32  33
ENDBRANCH  21  23
ENDBRANCH  20  21
ENDBRANCH  19  20
ENDBRANCH  11  19
TORSDOF 7
