REMARK  Name = ZINC13739339
REMARK  8 active torsions:
REMARK  status: ('A' for Active; 'I' for Inactive)
REMARK    1  A    between atoms: C_1  and  C_2
REMARK    2  A    between atoms: C_2  and  C_3
REMARK    3  A    between atoms: C_2  and  C_4
REMARK    4  A    between atoms: N_7  and  C_10
REMARK    5  A    between atoms: C_11  and  C_16
REMARK    6  A    between atoms: N_17  and  N_18
REMARK    7  A    between atoms: N_18  and  C_19
REMARK    8  A    between atoms: C_19  and  N_21
REMARK                            x       y       z     vdW  Elec       q    Type
REMARK                         _______ _______ _______ _____ _____    ______ ____
ROOT
ATOM      1  C   UNL     1      -5.216  -2.121  -0.014  0.00  0.00    +0.134 A 
ATOM      2  C   UNL     1      -6.031  -1.899  -1.093  0.00  0.00    +0.078 A 
ATOM      3  S   UNL     1      -7.621  -2.397  -0.451  0.00  0.00    -0.024 S 
ATOM      4  C   UNL     1      -7.090  -2.860   1.190  0.00  0.00    +0.290 A 
ATOM      5  N   UNL     1      -5.760  -2.612   1.134  0.00  0.00    -0.302 N 
ATOM      6  O   UNL     1      -7.751  -3.291   2.118  0.00  0.00    -0.260 OA
ATOM      7  H   UNL     1      -5.199  -2.780   1.907  0.00  0.00    +0.171 HD
ENDROOT
BRANCH   1  11
ATOM      8  C   UNL     1      -1.193  -1.337  -0.243  0.00  0.00    -0.042 A 
ATOM      9  C   UNL     1      -1.945  -0.876   0.830  0.00  0.00    +0.022 A 
ATOM     10  C   UNL     1      -3.294  -1.157   0.877  0.00  0.00    +0.093 A 
ATOM     11  N   UNL     1      -3.874  -1.860  -0.090  0.00  0.00    -0.309 N 
ATOM     12  C   UNL     1      -3.182  -2.315  -1.129  0.00  0.00    +0.093 A 
ATOM     13  C   UNL     1      -1.831  -2.063  -1.239  0.00  0.00    +0.022 A 
BRANCH   8  15
ATOM     14  C   UNL     1       0.508   0.465  -0.347  0.00  0.00    +0.012 C 
ATOM     15  C   UNL     1       0.284  -1.048  -0.327  0.00  0.00    +0.013 C 
ATOM     16  C   UNL     1       0.992  -1.652   0.887  0.00  0.00    +0.012 C 
ENDBRANCH   8  15
ENDBRANCH   1  11
BRANCH   2  17
ATOM     17  C   UNL     1      -5.689  -1.388  -2.421  0.00  0.00    +0.149 C 
ATOM     18  N   UNL     1      -6.595  -1.343  -3.354  0.00  0.00    -0.188 NA
BRANCH  18  19
ATOM     19  N   UNL     1      -6.267  -0.853  -4.626  0.00  0.00    -0.219 N 
ATOM     20  H   UNL     1      -5.365  -0.549  -4.811  0.00  0.00    +0.176 HD
BRANCH  19  21
ATOM     21  C   UNL     1      -7.206  -0.806  -5.592  0.00  0.00    +0.147 C 
ATOM     22  S   UNL     1      -6.805  -0.208  -7.145  0.00  0.00    -0.017 S 
BRANCH  21  23
ATOM     23  N   UNL     1      -8.459  -1.229  -5.335  0.00  0.00    -0.339 N 
ATOM     24  H   UNL     1      -8.686  -1.568  -4.455  0.00  0.00    +0.144 HD
ATOM     25  H   UNL     1      -9.135  -1.195  -6.031  0.00  0.00    +0.144 HD
ENDBRANCH  21  23
ENDBRANCH  19  21
ENDBRANCH  18  19
ENDBRANCH   2  17
TORSDOF 6
