REMARK  Name = ZINC00756573
REMARK  4 active torsions:
REMARK  status: ('A' for Active; 'I' for Inactive)
REMARK    1  A    between atoms: C_14  and  N_30
REMARK    2  A    between atoms: C_15  and  C_28
REMARK    3  A    between atoms: C_16  and  C_18
REMARK    4  A    between atoms: C_22  and  C_24
REMARK                            x       y       z     vdW  Elec       q    Type
REMARK                         _______ _______ _______ _____ _____    ______ ____
ROOT
ATOM      1  C   UNL     1      -0.017   1.382   0.010  0.00  0.00    +0.001 A 
ATOM      2  C   UNL     1       1.165   2.099   0.002  0.00  0.00    +0.001 A 
ATOM      3  C   UNL     1       2.384   1.441  -0.014  0.00  0.00    +0.012 A 
ATOM      4  C   UNL     1       2.419   0.051  -0.022  0.00  0.00    +0.036 A 
ATOM      5  C   UNL     1       1.216  -0.678  -0.013  0.00  0.00    +0.033 A 
ATOM      6  C   UNL     1       0.002  -0.004   0.002  0.00  0.00    +0.012 A 
ATOM      7  C   UNL     1       1.265  -2.155  -0.022  0.00  0.00    +0.194 C 
ATOM      8  O   UNL     1       0.231  -2.795  -0.013  0.00  0.00    -0.287 OA
ATOM      9  C   UNL     1       2.557  -2.855  -0.043  0.00  0.00    +0.058 C 
ATOM     10  C   UNL     1       3.715  -2.162  -0.053  0.00  0.00    +0.185 C 
ATOM     11  C   UNL     1       3.703  -0.677  -0.042  0.00  0.00    +0.229 C 
ATOM     12  O   UNL     1       4.750  -0.061  -0.048  0.00  0.00    -0.283 OA
ATOM     13  O   UNL     1       4.909  -2.795  -0.075  0.00  0.00    -0.437 OA
ATOM     14  C   UNL     1       5.002  -4.076   0.321  0.00  0.00    +0.199 C 
ATOM     15  C   UNL     1       3.912  -4.882   0.353  0.00  0.00    +0.098 C 
ATOM     16  C   UNL     1       2.562  -4.362  -0.053  0.00  0.00    +0.102 C 
ENDROOT
BRANCH  16  17
ATOM     17  C   UNL     1       2.235  -4.854  -1.440  0.00  0.00    -0.034 A 
ATOM     18  C   UNL     1       3.050  -4.513  -2.503  0.00  0.00    +0.004 A 
ATOM     19  C   UNL     1       2.750  -4.963  -3.775  0.00  0.00    +0.001 A 
ATOM     20  C   UNL     1       1.636  -5.755  -3.983  0.00  0.00    +0.012 A 
ATOM     21  C   UNL     1       0.822  -6.096  -2.920  0.00  0.00    +0.055 A 
ATOM     22  C   UNL     1       1.124  -5.649  -1.647  0.00  0.00    +0.017 A 
BRANCH  21  23
ATOM     23  C   UNL     1      -0.393  -6.958  -3.147  0.00  0.00    +0.417 C 
ATOM     24  F   UNL     1      -0.486  -7.285  -4.504  0.00  0.00    -0.166 F 
ATOM     25  F   UNL     1      -0.281  -8.131  -2.392  0.00  0.00    -0.166 F 
ATOM     26  F   UNL     1      -1.541  -6.260  -2.756  0.00  0.00    -0.166 F 
ENDBRANCH  21  23
ENDBRANCH  16  17
BRANCH  14  27
ATOM     27  N   UNL     1       6.223  -4.577   0.697  0.00  0.00    -0.328 N 
ATOM     28  H   UNL     1       7.008  -4.009   0.677  0.00  0.00    +0.145 HD
ATOM     29  H   UNL     1       6.300  -5.501   0.984  0.00  0.00    +0.145 HD
ENDBRANCH  14  27
BRANCH  15  30
ATOM     30  C   UNL     1       4.050  -6.242   0.779  0.00  0.00    +0.101 C 
ATOM     31  N   UNL     1       4.159  -7.321   1.117  0.00  0.00    -0.191 NA
ENDBRANCH  15  30
TORSDOF 4
