REMARK  Name = ZINC09218383
REMARK  8 active torsions:
REMARK  status: ('A' for Active; 'I' for Inactive)
REMARK    1  A    between atoms: C_1  and  C_2
REMARK    2  A    between atoms: N_4  and  C_5
REMARK    3  A    between atoms: C_8  and  S_11
REMARK    4  A    between atoms: S_11  and  N_14
REMARK    5  A    between atoms: N_14  and  C_15
REMARK    6  A    between atoms: C_15  and  C_16
REMARK    7  A    between atoms: C_16  and  C_18
REMARK    8  A    between atoms: C_16  and  C_23
REMARK                            x       y       z     vdW  Elec       q    Type
REMARK                         _______ _______ _______ _____ _____    ______ ____
ROOT
ATOM      1  C   UNL     1      -4.931   4.567   2.759  0.00  0.00    +0.119 C 
ENDROOT
BRANCH   1   2
ATOM      2  N   UNL     1      -5.734   3.587   2.025  0.00  0.00    -0.189 NA
ATOM      3  H   UNL     1      -6.438   3.098   2.479  0.00  0.00    +0.148 HD
BRANCH   2   4
ATOM      4  S   UNL     1      -5.439   3.312   0.418  0.00  0.00    +0.058 S 
ATOM      5  O   UNL     1      -5.379   4.587  -0.207  0.00  0.00    -0.153 OA
ATOM      6  O   UNL     1      -6.351   2.303   0.005  0.00  0.00    -0.153 OA
BRANCH   4  10
ATOM      7  C   UNL     1      -1.292   1.520   0.104  0.00  0.00    +0.033 A 
ATOM      8  C   UNL     1      -1.460   2.897   0.056  0.00  0.00    +0.025 A 
ATOM      9  C   UNL     1      -2.727   3.441   0.145  0.00  0.00    +0.030 A 
ATOM     10  C   UNL     1      -3.826   2.615   0.296  0.00  0.00    +0.105 A 
ATOM     11  C   UNL     1      -3.662   1.243   0.350  0.00  0.00    +0.030 A 
ATOM     12  C   UNL     1      -2.398   0.693   0.255  0.00  0.00    +0.025 A 
BRANCH   7  16
ATOM     13  C   UNL     1       2.335   1.032  -0.773  0.00  0.00    +0.109 C 
ATOM     14  C   UNL     1       0.924   1.561  -0.759  0.00  0.00    +0.214 C 
ATOM     15  O   UNL     1       0.631   2.523  -1.436  0.00  0.00    -0.276 OA
ATOM     16  N   UNL     1      -0.011   0.966   0.007  0.00  0.00    -0.286 N 
ATOM     17  H   UNL     1       0.203   0.151   0.488  0.00  0.00    +0.155 HD
ENDBRANCH   7  16
ENDBRANCH   4  10
ENDBRANCH   2   4
ENDBRANCH   1   2
BRANCH   1  18
ATOM     18  C   UNL     1      -5.623   4.904   4.082  0.00  0.00    +0.073 C 
BRANCH  18  19
ATOM     19  C   UNL     1      -4.863   6.002   4.781  0.00  0.00    -0.013 A 
ATOM     20  C   UNL     1      -3.584   5.954   5.187  0.00  0.00    +0.088 A 
ATOM     21  N   UNL     1      -3.238   7.138   5.779  0.00  0.00    -0.360 N 
ATOM     22  H   UNL     1      -2.365   7.342   6.149  0.00  0.00    +0.165 HD
ATOM     23  C   UNL     1      -4.316   7.995   5.778  0.00  0.00    +0.047 A 
ATOM     24  C   UNL     1      -5.381   7.321   5.152  0.00  0.00    +0.003 A 
ATOM     25  C   UNL     1      -6.617   7.953   5.008  0.00  0.00    +0.010 A 
ATOM     26  C   UNL     1      -6.786   9.226   5.475  0.00  0.00    +0.001 A 
ATOM     27  C   UNL     1      -5.739   9.895   6.093  0.00  0.00    +0.002 A 
ATOM     28  C   UNL     1      -4.511   9.290   6.246  0.00  0.00    +0.026 A 
ENDBRANCH  18  19
BRANCH  18  29
ATOM     29  C   UNL     1      -5.655   3.679   4.958  0.00  0.00    -0.001 A 
ATOM     30  C   UNL     1      -6.725   3.022   5.469  0.00  0.00    +0.012 A 
ATOM     31  C   UNL     1      -6.514   1.906   6.257  0.00  0.00    +0.008 A 
ATOM     32  C   UNL     1      -5.243   1.501   6.495  0.00  0.00    +0.045 A 
ATOM     33  S   UNL     1      -4.293   2.710   5.587  0.00  0.00    -0.101 S 
ENDBRANCH  18  29
ENDBRANCH   1  18
TORSDOF 7
