REMARK  Name = ZINC00664640
REMARK  6 active torsions:
REMARK  status: ('A' for Active; 'I' for Inactive)
REMARK    1  A    between atoms: C_1  and  C_2
REMARK    2  A    between atoms: C_5  and  C_8
REMARK    3  A    between atoms: C_15  and  N_37
REMARK    4  A    between atoms: C_16  and  C_35
REMARK    5  A    between atoms: N_24  and  C_27
REMARK    6  A    between atoms: C_27  and  C_28
REMARK                            x       y       z     vdW  Elec       q    Type
REMARK                         _______ _______ _______ _____ _____    ______ ____
ROOT
ATOM      1  C   UNL     1       0.058  -4.252  -0.021  0.00  0.00    +0.074 A 
ATOM      2  C   UNL     1      -0.632  -5.069   0.810  0.00  0.00    +0.066 A 
ATOM      3  C   UNL     1      -0.330  -6.402   0.462  0.00  0.00    +0.246 A 
ATOM      4  N   UNL     1       0.506  -6.386  -0.536  0.00  0.00    -0.135 NA
ATOM      5  N   UNL     1       0.771  -5.049  -0.872  0.00  0.00    -0.273 N 
ATOM      6  H   UNL     1       1.358  -4.745  -1.582  0.00  0.00    +0.189 HD
ATOM      7  O   UNL     1      -0.876  -7.458   1.124  0.00  0.00    -0.421 OA
ATOM      8  C   UNL     1      -1.508  -7.212   2.288  0.00  0.00    +0.201 C 
ATOM      9  C   UNL     1      -1.859  -5.980   2.721  0.00  0.00    +0.110 C 
ATOM     10  C   UNL     1      -1.576  -4.733   1.930  0.00  0.00    +0.145 C 
ATOM     11  C   UNL     1      -2.837  -4.119   1.414  0.00  0.00    -0.001 A 
ATOM     12  C   UNL     1      -3.808  -4.601   0.564  0.00  0.00    +0.007 A 
ATOM     13  C   UNL     1      -4.875  -3.755   0.279  0.00  0.00    +0.000 A 
ATOM     14  C   UNL     1      -4.954  -2.490   0.824  0.00  0.00    +0.002 A 
ATOM     15  C   UNL     1      -3.981  -1.998   1.680  0.00  0.00    +0.024 A 
ATOM     16  C   UNL     1      -2.905  -2.837   1.975  0.00  0.00    +0.041 A 
ATOM     17  N   UNL     1      -1.809  -2.609   2.787  0.00  0.00    -0.265 N 
ATOM     18  C   UNL     1      -0.975  -3.670   2.822  0.00  0.00    +0.241 C 
ATOM     19  O   UNL     1       0.060  -3.754   3.450  0.00  0.00    -0.274 OA
ENDROOT
BRANCH   1  24
ATOM     20  C   UNL     1      -0.016   1.503   0.008  0.00  0.00    +0.044 C 
ATOM     21  C   UNL     1       0.004  -0.004   0.001  0.00  0.00    -0.050 A 
ATOM     22  C   UNL     1       1.210  -0.678   0.073  0.00  0.00    +0.004 A 
ATOM     23  C   UNL     1       1.234  -2.057   0.067  0.00  0.00    +0.010 A 
ATOM     24  C   UNL     1       0.039  -2.773  -0.013  0.00  0.00    +0.000 A 
ATOM     25  C   UNL     1      -1.174  -2.087  -0.086  0.00  0.00    +0.010 A 
ATOM     26  C   UNL     1      -1.185  -0.708  -0.073  0.00  0.00    +0.004 A 
ENDBRANCH   1  24
BRANCH   8  27
ATOM     27  N   UNL     1      -1.816  -8.284   3.089  0.00  0.00    -0.328 N 
ATOM     28  H   UNL     1      -1.579  -9.182   2.810  0.00  0.00    +0.145 HD
ATOM     29  H   UNL     1      -2.271  -8.143   3.934  0.00  0.00    +0.145 HD
ENDBRANCH   8  27
BRANCH   9  30
ATOM     30  C   UNL     1      -2.526  -5.858   3.982  0.00  0.00    +0.102 C 
ATOM     31  N   UNL     1      -3.056  -5.761   4.983  0.00  0.00    -0.191 NA
ENDBRANCH   9  30
BRANCH  17  32
ATOM     32  C   UNL     1      -1.580  -1.363   3.523  0.00  0.00    +0.148 C 
BRANCH  32  33
ATOM     33  C   UNL     1      -2.215  -1.460   4.886  0.00  0.00    -0.030 A 
ATOM     34  C   UNL     1      -3.527  -1.061   5.067  0.00  0.00    +0.006 A 
ATOM     35  C   UNL     1      -4.110  -1.150   6.316  0.00  0.00    +0.020 A 
ATOM     36  C   UNL     1      -3.381  -1.638   7.387  0.00  0.00    +0.041 A 
ATOM     37  C   UNL     1      -2.069  -2.036   7.205  0.00  0.00    +0.020 A 
ATOM     38  C   UNL     1      -1.489  -1.952   5.954  0.00  0.00    +0.006 A 
ATOM     39 CL   UNL     1      -4.113  -1.749   8.957  0.00  0.00    -0.084 Cl
ENDBRANCH  32  33
ENDBRANCH  17  32
TORSDOF 5
