REMARK  Name = ZINC38108953
REMARK  4 active torsions:
REMARK  status: ('A' for Active; 'I' for Inactive)
REMARK    1  A    between atoms: C_2  and  S_7
REMARK    2  A    between atoms: S_7  and  N_10
REMARK    3  A    between atoms: C_14  and  C_17
REMARK    4  A    between atoms: C_17  and  N_18
REMARK                            x       y       z     vdW  Elec       q    Type
REMARK                         _______ _______ _______ _____ _____    ______ ____
ROOT
ATOM      1  N   UNL     1       1.665   4.141   1.590  0.00  0.00    -0.176 NA
ATOM      2  C   UNL     1       0.480   4.610   2.320  0.00  0.00    +0.109 C 
ATOM      3  C   UNL     1       0.785   5.983   2.927  0.00  0.00    +0.017 C 
ATOM      4  C   UNL     1       2.052   5.889   3.780  0.00  0.00    +0.007 C 
ATOM      5  C   UNL     1       3.233   5.477   2.898  0.00  0.00    +0.022 C 
ATOM      6  C   UNL     1       2.955   4.093   2.293  0.00  0.00    +0.114 C 
ENDROOT
BRANCH   1   7
ATOM      7  S   UNL     1       1.549   3.670   0.006  0.00  0.00    +0.069 S 
ATOM      8  O   UNL     1       2.846   3.813  -0.556  0.00  0.00    -0.152 OA
ATOM      9  O   UNL     1       0.410   4.328  -0.530  0.00  0.00    -0.152 OA
BRANCH   7  11
ATOM     10  C   UNL     1      -0.016   1.315   0.009  0.00  0.00    +0.149 A 
ATOM     11  C   UNL     1       1.185   1.946   0.001  0.00  0.00    +0.163 A 
ATOM     12  S   UNL     1       2.294   0.547  -0.017  0.00  0.00    -0.036 S 
ATOM     13  C   UNL     1       1.131  -0.670  -0.012  0.00  0.00    +0.169 A 
ATOM     14  N   UNL     1       0.002  -0.004   0.002  0.00  0.00    -0.234 NA
ATOM     15 CL   UNL     1       1.369  -2.389  -0.024  0.00  0.00    -0.054 Cl
ENDBRANCH   7  11
ENDBRANCH   1   7
BRANCH   5  16
ATOM     16  C   UNL     1       4.506   5.416   3.745  0.00  0.00    +0.110 C 
BRANCH  16  17
ATOM     17  N   UNL     1       4.835   6.759   4.230  0.00  0.00    -0.299 N 
ATOM     18  C   UNL     1       5.923   6.949   5.002  0.00  0.00    +0.297 C 
ATOM     19  O   UNL     1       6.632   6.006   5.295  0.00  0.00    -0.253 OA
ATOM     20  N   UNL     1       6.226   8.184   5.448  0.00  0.00    -0.313 N 
ATOM     21  H   UNL     1       4.269   7.511   3.996  0.00  0.00    +0.150 HD
ATOM     22  H   UNL     1       5.660   8.937   5.214  0.00  0.00    +0.146 HD
ATOM     23  H   UNL     1       7.009   8.321   6.003  0.00  0.00    +0.146 HD
ENDBRANCH  16  17
ENDBRANCH   5  16
TORSDOF 4
