REMARK  Name = ZINC29464383
REMARK  8 active torsions:
REMARK  status: ('A' for Active; 'I' for Inactive)
REMARK    1  A    between atoms: C_1  and  C_2
REMARK    2  A    between atoms: C_2  and  C_3
REMARK    3  A    between atoms: C_2  and  C_4
REMARK    4  A    between atoms: C_2  and  N_36
REMARK    5  A    between atoms: N_6  and  C_7
REMARK    6  A    between atoms: C_7  and  C_9
REMARK    7  A    between atoms: C_7  and  C_20
REMARK    8  A    between atoms: C_9  and  C_10
REMARK                            x       y       z     vdW  Elec       q    Type
REMARK                         _______ _______ _______ _____ _____    ______ ____
ROOT
ATOM      1  C   UNL     1       0.981  -2.126  -0.688  0.00  0.00    +0.163 C 
ENDROOT
BRANCH   1   2
ATOM      2  C   UNL     1       1.125  -2.634   0.723  0.00  0.00    +0.236 C 
ATOM      3  O   UNL     1       0.845  -1.915   1.658  0.00  0.00    -0.274 OA
ATOM      4  N   UNL     1       1.565  -3.888   0.946  0.00  0.00    -0.300 N 
ATOM      5  C   UNL     1       1.903  -4.773  -0.177  0.00  0.00    +0.108 C 
ATOM      6  C   UNL     1       3.336  -5.291   0.024  0.00  0.00    +0.030 C 
ATOM      7  C   UNL     1       3.451  -5.935   1.402  0.00  0.00    -0.001 C 
ATOM      8  C   UNL     1       2.489  -7.133   1.505  0.00  0.00    +0.016 C 
ATOM      9  C   UNL     1       3.284  -8.121   2.386  0.00  0.00    +0.036 C 
ATOM     10  C   UNL     1       4.739  -7.769   2.162  0.00  0.00    -0.044 A 
ATOM     11  C   UNL     1       4.835  -6.510   1.598  0.00  0.00    -0.038 A 
ATOM     12  C   UNL     1       6.080  -5.978   1.308  0.00  0.00    +0.004 A 
ATOM     13  C   UNL     1       7.226  -6.701   1.577  0.00  0.00    +0.000 A 
ATOM     14  C   UNL     1       7.130  -7.960   2.139  0.00  0.00    +0.000 A 
ATOM     15  C   UNL     1       5.889  -8.492   2.431  0.00  0.00    +0.004 A 
ATOM     16  C   UNL     1       3.140  -4.920   2.498  0.00  0.00    +0.030 C 
ATOM     17  C   UNL     1       1.711  -4.397   2.317  0.00  0.00    +0.108 C 
ENDBRANCH   1   2
BRANCH   1  20
ATOM     18  C   UNL     1       0.002  -0.004   0.002  0.00  0.00    +0.202 C 
ATOM     19  O   UNL     1      -0.844  -0.625   0.609  0.00  0.00    -0.277 OA
ATOM     20  N   UNL     1       0.961  -0.661  -0.680  0.00  0.00    -0.305 N 
ATOM     21  H   UNL     1       1.728  -0.098  -1.231  0.00  0.00    +0.149 HD
BRANCH  18  23
ATOM     22  C   UNL     1      -0.758   2.010  -1.229  0.00  0.00    -0.001 C 
ATOM     23  C   UNL     1      -0.018   1.503   0.010  0.00  0.00    +0.001 C 
ATOM     24  C   UNL     1      -0.735   1.996   1.269  0.00  0.00    -0.001 C 
BRANCH  23  25
ATOM     25  N   UNL     1       1.360   2.011  -0.000  0.00  0.00    +0.387 N 
ATOM     26  H   UNL     1       1.892   1.647   0.891  0.00  0.00    -0.089 HD
ATOM     27  H   UNL     1       1.345   3.111   0.006  0.00  0.00    -0.089 HD
ATOM     28  H   UNL     1       1.875   1.656  -0.905  0.00  0.00    -0.089 HD
ENDBRANCH  23  25
ENDBRANCH  18  23
ENDBRANCH   1  20
BRANCH   1  29
ATOM     29  C   UNL     1      -0.325  -2.651  -1.288  0.00  0.00    +0.067 C 
BRANCH  29  30
ATOM     30  C   UNL     1      -0.411  -2.245  -2.737  0.00  0.00    -0.045 A 
ATOM     31  C   UNL     1       0.110  -3.088  -3.718  0.00  0.00    +0.004 A 
ATOM     32  C   UNL     1       0.048  -2.752  -5.035  0.00  0.00    +0.009 A 
ATOM     33  C   UNL     1      -0.548  -1.537  -5.416  0.00  0.00    -0.018 A 
ATOM     34  C   UNL     1      -0.631  -1.156  -6.766  0.00  0.00    +0.008 A 
ATOM     35  C   UNL     1      -1.216   0.027  -7.097  0.00  0.00    +0.001 A 
ATOM     36  C   UNL     1      -1.736   0.870  -6.117  0.00  0.00    +0.001 A 
ATOM     37  C   UNL     1      -1.675   0.533  -4.799  0.00  0.00    +0.008 A 
ATOM     38  C   UNL     1      -1.077  -0.680  -4.419  0.00  0.00    -0.018 A 
ATOM     39  C   UNL     1      -1.001  -1.064  -3.069  0.00  0.00    +0.012 A 
ENDBRANCH  29  30
ENDBRANCH   1  29
TORSDOF 6
