REMARK  Name = ZINC39693551
REMARK  11 active torsions:
REMARK  status: ('A' for Active; 'I' for Inactive)
REMARK    1  A    between atoms: C_1  and  C_2
REMARK    2  A    between atoms: C_2  and  C_3
REMARK    3  A    between atoms: C_2  and  C_4
REMARK    4  A    between atoms: C_2  and  O_5
REMARK    5  A    between atoms: O_5  and  C_6
REMARK    6  A    between atoms: N_8  and  C_9
REMARK    7  A    between atoms: C_9  and  C_10
REMARK    8  A    between atoms: C_10  and  N_11
REMARK    9  A    between atoms: C_12  and  C_14
REMARK   10  A    between atoms: C_25  and  C_27
REMARK   11  A    between atoms: C_30  and  C_32
REMARK                            x       y       z     vdW  Elec       q    Type
REMARK                         _______ _______ _______ _____ _____    ______ ____
ROOT
ATOM      1  C   UNL     1       8.095  -0.218  -5.353  0.00  0.00    +0.100 C 
ATOM      2  C   UNL     1       8.950  -0.678  -4.151  0.00  0.00    +0.121 C 
ATOM      3  N   UNL     1       9.539  -1.968  -4.583  0.00  0.00    -0.294 N 
ATOM      4  C   UNL     1       9.883  -1.757  -6.009  0.00  0.00    +0.115 C 
ATOM      5  C   UNL     1       8.713  -0.926  -6.571  0.00  0.00    -0.004 C 
ATOM      6  C   UNL     1       7.684  -1.841  -7.228  0.00  0.00    -0.010 C 
ATOM      7  C   UNL     1       8.304  -2.489  -8.469  0.00  0.00    -0.082 C 
ATOM      8  N   UNL     1       8.730  -1.445  -9.408  0.00  0.00    +0.379 N 
ATOM      9  C   UNL     1       9.786  -0.625  -8.801  0.00  0.00    -0.082 C 
ATOM     10  C   UNL     1       9.229   0.102  -7.574  0.00  0.00    -0.010 C 
ATOM     11  C   UNL     1       9.721  -3.081  -3.845  0.00  0.00    +0.282 C 
ATOM     12  O   UNL     1      10.224  -4.069  -4.348  0.00  0.00    -0.267 OA
ATOM     13  H   UNL     1       9.082  -1.874 -10.251  0.00  0.00    -0.086 HD
ATOM     14  H   UNL     1       7.942  -0.858  -9.637  0.00  0.00    -0.086 HD
ENDROOT
BRANCH  11  15
ATOM     15  C   UNL     1       9.314  -3.102  -2.438  0.00  0.00    +0.190 A 
ATOM     16  C   UNL     1       9.447  -4.166  -1.573  0.00  0.00    +0.055 A 
ATOM     17  C   UNL     1       8.933  -3.751  -0.340  0.00  0.00    +0.050 A 
ATOM     18  C   UNL     1       8.509  -2.462  -0.496  0.00  0.00    +0.136 A 
ATOM     19  O   UNL     1       8.749  -2.080  -1.761  0.00  0.00    -0.450 OA
BRANCH  18  20
ATOM     20  C   UNL     1       7.894  -1.625   0.554  0.00  0.00    +0.017 A 
ATOM     21  C   UNL     1       7.708  -2.139   1.840  0.00  0.00    +0.014 A 
ATOM     22  C   UNL     1       7.134  -1.353   2.817  0.00  0.00    +0.039 A 
ATOM     23  C   UNL     1       6.742  -0.056   2.525  0.00  0.00    +0.123 A 
ATOM     24  C   UNL     1       6.923   0.459   1.250  0.00  0.00    +0.039 A 
ATOM     25  C   UNL     1       7.501  -0.316   0.267  0.00  0.00    +0.014 A 
ATOM     26  F   UNL     1       6.179   0.710   3.486  0.00  0.00    -0.205 F 
ENDBRANCH  18  20
ENDBRANCH  11  15
BRANCH   1  28
ATOM     27  N   UNL     1       5.668   0.076  -5.730  0.00  0.00    -0.314 N 
ATOM     28  C   UNL     1       6.661  -0.644  -5.171  0.00  0.00    +0.218 C 
ATOM     29  O   UNL     1       6.400  -1.634  -4.521  0.00  0.00    -0.275 OA
ATOM     30  H   UNL     1       5.877   0.868  -6.250  0.00  0.00    +0.149 HD
BRANCH  27  31
ATOM     31  C   UNL     1       4.274  -0.337  -5.553  0.00  0.00    +0.123 C 
BRANCH  31  32
ATOM     32  C   UNL     1       3.355   0.643  -6.283  0.00  0.00    +0.126 C 
BRANCH  32  35
ATOM     33  C   UNL     1       0.968   0.950  -6.665  0.00  0.00    +0.401 C 
ATOM     34  O   UNL     1       1.229   1.942  -7.316  0.00  0.00    -0.226 OA
ATOM     35  N   UNL     1       1.960   0.230  -6.106  0.00  0.00    -0.280 N 
ATOM     36  H   UNL     1       1.752  -0.562  -5.586  0.00  0.00    +0.152 HD
BRANCH  33  37
ATOM     37  O   UNL     1      -0.314   0.570  -6.502  0.00  0.00    -0.445 OA
BRANCH  37  39
ATOM     38  C   UNL     1      -1.083   1.407  -8.635  0.00  0.00    +0.055 C 
ATOM     39  C   UNL     1      -1.314   1.379  -7.122  0.00  0.00    +0.107 C 
ATOM     40  C   UNL     1      -1.234   2.803  -6.568  0.00  0.00    +0.055 C 
ATOM     41  C   UNL     1      -2.698   0.795  -6.829  0.00  0.00    +0.055 C 
ENDBRANCH  37  39
ENDBRANCH  33  37
ENDBRANCH  32  35
ENDBRANCH  31  32
ENDBRANCH  27  31
ENDBRANCH   1  28
TORSDOF 8
