REMARK  Name = ZINC45148133
REMARK  4 active torsions:
REMARK  status: ('A' for Active; 'I' for Inactive)
REMARK    1  A    between atoms: C_3  and  N_20
REMARK    2  A    between atoms: C_4  and  S_8
REMARK    3  A    between atoms: S_8  and  N_11
REMARK    4  A    between atoms: C_14  and  C_17
REMARK                            x       y       z     vdW  Elec       q    Type
REMARK                         _______ _______ _______ _____ _____    ______ ____
ROOT
ATOM      1  S   UNL     1       3.874  -0.902  -0.386  0.00  0.00    +0.106 S 
ATOM      2  O   UNL     1       3.552  -2.058  -1.147  0.00  0.00    -0.146 OA
ATOM      3  O   UNL     1       4.853   0.039  -0.806  0.00  0.00    -0.146 OA
ENDROOT
BRANCH   1   7
ATOM      4  C   UNL     1       0.011   1.405   0.161  0.00  0.00    +0.005 A 
ATOM      5  C   UNL     1       1.220   2.017   0.430  0.00  0.00    +0.025 A 
ATOM      6  C   UNL     1       2.405   1.313   0.263  0.00  0.00    +0.055 A 
ATOM      7  C   UNL     1       2.372  -0.005  -0.173  0.00  0.00    +0.168 A 
ATOM      8  C   UNL     1       1.159  -0.613  -0.440  0.00  0.00    +0.152 A 
ATOM      9  C   UNL     1      -0.021   0.093  -0.273  0.00  0.00    +0.040 A 
ATOM     10  F   UNL     1       1.125  -1.895  -0.865  0.00  0.00    -0.203 F 
BRANCH   6  11
ATOM     11  N   UNL     1       3.629   1.930   0.534  0.00  0.00    -0.356 N 
ATOM     12  H   UNL     1       3.668   2.889   0.676  0.00  0.00    +0.142 HD
ATOM     13  H   UNL     1       4.440   1.400   0.579  0.00  0.00    +0.142 HD
ENDBRANCH   6  11
ENDBRANCH   1   7
BRANCH   1  14
ATOM     14  N   UNL     1       4.342  -1.436   1.110  0.00  0.00    -0.103 NA
ATOM     15  C   UNL     1       5.440  -2.139   1.241  0.00  0.00    +0.192 A 
ATOM     16  N   UNL     1       6.002  -2.679   2.378  0.00  0.00    -0.336 N 
ATOM     17  C   UNL     1       7.166  -3.380   2.259  0.00  0.00    +0.028 A 
ATOM     18  C   UNL     1       7.738  -3.532   1.065  0.00  0.00    +0.070 A 
ATOM     19  S   UNL     1       6.607  -2.659  -0.007  0.00  0.00    -0.057 S 
ATOM     20  H   UNL     1       5.579  -2.562   3.243  0.00  0.00    +0.168 HD
BRANCH  17  21
ATOM     21  C   UNL     1       7.807  -3.984   3.482  0.00  0.00    +0.036 C 
ATOM     22  C   UNL     1       7.221  -3.610   4.845  0.00  0.00    +0.010 C 
ATOM     23  C   UNL     1       6.993  -5.010   4.272  0.00  0.00    +0.010 C 
ENDBRANCH  17  21
ENDBRANCH   1  14
TORSDOF 4
