REMARK  Name = ZINC44491126
REMARK  11 active torsions:
REMARK  status: ('A' for Active; 'I' for Inactive)
REMARK    1  A    between atoms: C_1  and  C_2
REMARK    2  A    between atoms: C_2  and  C_3
REMARK    3  A    between atoms: C_2  and  C_4
REMARK    4  A    between atoms: C_4  and  C_5
REMARK    5  A    between atoms: C_5  and  C_7
REMARK    6  A    between atoms: C_5  and  N_11
REMARK    7  A    between atoms: C_7  and  N_8
REMARK    8  A    between atoms: N_8  and  C_9
REMARK    9  A    between atoms: N_8  and  C_10
REMARK   10  A    between atoms: C_12  and  C_14
REMARK   11  A    between atoms: C_19  and  O_20
REMARK                            x       y       z     vdW  Elec       q    Type
REMARK                         _______ _______ _______ _____ _____    ______ ____
ROOT
ATOM      1  N   UNL     1      -0.731  -3.068   0.909  0.00  0.00    -0.310 N 
ATOM      2  C   UNL     1      -0.149  -4.261   0.678  0.00  0.00    +0.248 C 
ATOM      3  O   UNL     1       0.109  -4.601  -0.461  0.00  0.00    -0.270 OA
ATOM      4  H   UNL     1      -0.869  -2.764   1.820  0.00  0.00    +0.149 HD
ENDROOT
BRANCH   2   5
ATOM      5  C   UNL     1       0.174  -5.155   1.806  0.00  0.00    +0.078 A 
ATOM      6  C   UNL     1      -0.126  -4.770   3.115  0.00  0.00    +0.018 A 
ATOM      7  C   UNL     1       0.178  -5.609   4.164  0.00  0.00    +0.016 A 
ATOM      8  C   UNL     1       0.782  -6.835   3.928  0.00  0.00    +0.021 A 
ATOM      9  C   UNL     1       1.084  -7.227   2.638  0.00  0.00    +0.061 A 
ATOM     10  C   UNL     1       0.779  -6.397   1.569  0.00  0.00    +0.130 A 
ATOM     11 BR   UNL     1       1.193  -7.976   5.378  0.00  0.00    -0.050 Br
BRANCH  10  12
ATOM     12  O   UNL     1       1.071  -6.783   0.302  0.00  0.00    -0.506 OA
ATOM     13  H   UNL     1       1.952  -6.519   0.004  0.00  0.00    +0.292 HD
ENDBRANCH  10  12
ENDBRANCH   2   5
BRANCH   1  14
ATOM     14  C   UNL     1      -1.155  -2.229  -0.215  0.00  0.00    +0.057 C 
BRANCH  14  15
ATOM     15  C   UNL     1      -1.121  -0.758   0.205  0.00  0.00    +0.023 C 
BRANCH  15  17
ATOM     16  C   UNL     1       1.166  -0.408  -0.739  0.00  0.00    +0.007 C 
ATOM     17  C   UNL     1       0.318  -0.355   0.533  0.00  0.00    -0.016 C 
ATOM     18  C   UNL     1       0.333   1.067   1.097  0.00  0.00    +0.007 C 
ENDBRANCH  15  17
ENDBRANCH  14  15
BRANCH  14  19
ATOM     19  C   UNL     1      -2.579  -2.609  -0.626  0.00  0.00    -0.057 C 
BRANCH  19  20
ATOM     20  N   UNL     1      -2.951  -1.873  -1.841  0.00  0.00    +0.377 N 
ATOM     21  C   UNL     1      -2.116  -2.326  -2.962  0.00  0.00    -0.097 C 
ATOM     22  C   UNL     1      -4.365  -2.123  -2.152  0.00  0.00    -0.097 C 
ATOM     23  H   UNL     1      -2.808  -0.886  -1.694  0.00  0.00    -0.083 HD
ENDBRANCH  19  20
ENDBRANCH  14  19
ENDBRANCH   1  14
TORSDOF 7
