REMARK  Name = ZINC37730673
REMARK  4 active torsions:
REMARK  status: ('A' for Active; 'I' for Inactive)
REMARK    1  A    between atoms: C_1  and  C_2
REMARK    2  A    between atoms: C_3  and  S_8
REMARK    3  A    between atoms: S_8  and  N_11
REMARK    4  A    between atoms: N_11  and  C_12
REMARK                            x       y       z     vdW  Elec       q    Type
REMARK                         _______ _______ _______ _____ _____    ______ ____
ROOT
ATOM      1  C   UNL     1      -1.294   1.852  -2.598  0.00  0.00    +0.074 C 
ATOM      2  C   UNL     1      -2.201   1.834  -1.364  0.00  0.00    +0.001 C 
ATOM      3  C   UNL     1      -2.371   3.263  -0.843  0.00  0.00    -0.080 C 
ATOM      4  N   UNL     1      -2.977   4.099  -1.885  0.00  0.00    +0.383 N 
ATOM      5  C   UNL     1      -2.080   4.180  -3.045  0.00  0.00    -0.067 C 
ATOM      6  C   UNL     1      -1.897   2.786  -3.651  0.00  0.00    +0.008 C 
ATOM      7  C   UNL     1      -0.720   4.723  -2.602  0.00  0.00    -0.012 C 
ATOM      8  C   UNL     1      -0.900   6.119  -2.000  0.00  0.00    -0.001 C 
ATOM      9  C   UNL     1      -1.505   7.053  -3.050  0.00  0.00    -0.000 C 
ATOM     10  C   UNL     1      -2.865   6.510  -3.492  0.00  0.00    -0.001 C 
ATOM     11  C   UNL     1      -2.685   5.114  -4.094  0.00  0.00    -0.012 C 
ATOM     12  H   UNL     1      -3.857   3.696  -2.170  0.00  0.00    -0.085 HD
ATOM     13  H   UNL     1      -3.138   5.026  -1.520  0.00  0.00    -0.085 HD
ENDROOT
BRANCH   1  14
ATOM     14  N   UNL     1      -1.187   0.498  -3.147  0.00  0.00    -0.187 NA
ATOM     15  H   UNL     1      -1.968   0.068  -3.531  0.00  0.00    +0.148 HD
BRANCH  14  16
ATOM     16  S   UNL     1       0.265  -0.297  -3.115  0.00  0.00    +0.062 S 
ATOM     17  O   UNL     1       1.229   0.596  -3.655  0.00  0.00    -0.153 OA
ATOM     18  O   UNL     1       0.033  -1.589  -3.659  0.00  0.00    -0.153 OA
BRANCH  16  21
ATOM     19  C   UNL     1      -1.203  -2.131  -0.819  0.00  0.00    +0.067 C 
ATOM     20  C   UNL     1       0.029  -1.312  -0.535  0.00  0.00    +0.059 A 
ATOM     21  C   UNL     1       0.691  -0.533  -1.421  0.00  0.00    +0.145 A 
ATOM     22  C   UNL     1       1.774   0.052  -0.756  0.00  0.00    +0.163 A 
ATOM     23  N   UNL     1       1.763  -0.361   0.485  0.00  0.00    -0.180 NA
ATOM     24  N   UNL     1       0.668  -1.219   0.651  0.00  0.00    -0.280 N 
ATOM     25  H   UNL     1       0.414  -1.669   1.472  0.00  0.00    +0.189 HD
ENDBRANCH  16  21
ENDBRANCH  14  16
ENDBRANCH   1  14
TORSDOF 3
