REMARK  Name = ZINC39465010
REMARK  3 active torsions:
REMARK  status: ('A' for Active; 'I' for Inactive)
REMARK    1  A    between atoms: C_1  and  S_2
REMARK    2  A    between atoms: S_2  and  P_3
REMARK    3  A    between atoms: C_12  and  O_19
REMARK                            x       y       z     vdW  Elec       q    Type
REMARK                         _______ _______ _______ _____ _____    ______ ____
ROOT
ATOM      1  P   UNL     1      -2.048  -0.545   0.019  0.00  0.00    +0.341 P 
ATOM      2  O   UNL     1      -2.697  -0.048   1.252  0.00  0.00    -0.259 OA
ATOM      3  N   UNL     1      -2.206  -2.187  -0.092  0.00  0.00    -0.170 NA
ATOM      4  N   UNL     1      -2.071  -2.735  -1.348  0.00  0.00    -0.225 NA
ATOM      5  C   UNL     1      -2.257  -4.193  -1.278  0.00  0.00    +0.108 C 
ATOM      6  C   UNL     1      -1.780  -4.813  -2.591  0.00  0.00    +0.052 C 
ATOM      7  C   UNL     1      -2.438  -4.111  -3.752  0.00  0.00    -0.038 A 
ATOM      8  C   UNL     1      -2.459  -4.747  -4.984  0.00  0.00    +0.046 A 
ATOM      9  C   UNL     1      -3.050  -4.138  -6.074  0.00  0.00    +0.165 A 
ATOM     10  C   UNL     1      -3.627  -2.882  -5.932  0.00  0.00    +0.152 A 
ATOM     11  C   UNL     1      -3.605  -2.251  -4.701  0.00  0.00    +0.054 A 
ATOM     12  C   UNL     1      -3.009  -2.865  -3.608  0.00  0.00    -0.020 A 
ATOM     13  C   UNL     1      -3.013  -2.133  -2.292  0.00  0.00    +0.130 C 
ATOM     14  C   UNL     1      -2.676  -0.659  -2.538  0.00  0.00    +0.195 C 
ATOM     15  O   UNL     1      -2.798   0.057  -1.293  0.00  0.00    -0.307 OA
ATOM     16  F   UNL     1      -3.067  -4.761  -7.273  0.00  0.00    -0.202 F 
ATOM     17  H   UNL     1      -2.384  -2.736   0.688  0.00  0.00    +0.152 HD
ENDROOT
BRANCH   1  19
ATOM     18  C   UNL     1      -0.022   1.810   0.012  0.00  0.00    +0.096 C 
ATOM     19  S   UNL     1       0.002  -0.004   0.002  0.00  0.00    -0.056 S 
ENDBRANCH   1  19
BRANCH  10  20
ATOM     20  O   UNL     1      -4.212  -2.275  -6.999  0.00  0.00    -0.504 OA
ATOM     21  H   UNL     1      -5.152  -2.477  -7.101  0.00  0.00    +0.292 HD
ENDBRANCH  10  20
TORSDOF 2
