REMARK  Name = ZINC02238201
REMARK  4 active torsions:
REMARK  status: ('A' for Active; 'I' for Inactive)
REMARK    1  A    between atoms: C_3  and  C_6
REMARK    2  A    between atoms: C_10  and  N_26
REMARK    3  A    between atoms: C_11  and  C_15
REMARK    4  A    between atoms: N_17  and  C_18
REMARK                            x       y       z     vdW  Elec       q    Type
REMARK                         _______ _______ _______ _____ _____    ______ ____
ROOT
ATOM      1  C   UNL     1       9.021   6.630  -0.623  0.00  0.00    +0.107 A 
ATOM      2  C   UNL     1       8.085   7.673  -0.646  0.00  0.00    +0.032 A 
ATOM      3  C   UNL     1       6.754   7.406  -0.558  0.00  0.00    +0.014 A 
ATOM      4  C   UNL     1       6.322   6.059  -0.441  0.00  0.00    +0.029 A 
ATOM      5  C   UNL     1       4.964   5.549  -0.340  0.00  0.00    +0.053 A 
ATOM      6  C   UNL     1       4.783   4.187  -0.229  0.00  0.00    +0.097 A 
ATOM      7  S   UNL     1       6.444   3.544  -0.271  0.00  0.00    -0.062 S 
ATOM      8  C   UNL     1       7.336   5.072  -0.425  0.00  0.00    +0.111 A 
ATOM      9  N   UNL     1       8.613   5.369  -0.513  0.00  0.00    -0.236 NA
ENDROOT
BRANCH   1  12
ATOM     10  C   UNL     1      12.673   6.743  -0.822  0.00  0.00    +0.042 A 
ATOM     11  C   UNL     1      11.472   6.019  -0.703  0.00  0.00    +0.051 A 
ATOM     12  C   UNL     1      10.461   6.932  -0.719  0.00  0.00    +0.153 A 
ATOM     13  O   UNL     1      11.007   8.159  -0.832  0.00  0.00    -0.461 OA
ATOM     14  C   UNL     1      12.343   8.049  -0.894  0.00  0.00    +0.196 A 
ENDBRANCH   1  12
BRANCH   6  15
ATOM     15  C   UNL     1       3.567   3.470  -0.114  0.00  0.00    +0.257 C 
ATOM     16  O   UNL     1       2.506   4.069  -0.101  0.00  0.00    -0.269 OA
ATOM     17  N   UNL     1       3.583   2.126  -0.020  0.00  0.00    -0.281 N 
ATOM     18  H   UNL     1       4.429   1.655   0.046  0.00  0.00    +0.155 HD
BRANCH  17  19
ATOM     19  C   UNL     1       2.382   1.410  -0.018  0.00  0.00    +0.035 A 
ATOM     20  C   UNL     1       2.270   0.240   0.722  0.00  0.00    +0.025 A 
ATOM     21  C   UNL     1       1.083  -0.465   0.722  0.00  0.00    +0.023 A 
ATOM     22  C   UNL     1       0.004  -0.007  -0.014  0.00  0.00    +0.059 A 
ATOM     23  C   UNL     1       0.112   1.159  -0.752  0.00  0.00    +0.061 A 
ATOM     24  C   UNL     1       1.298   1.868  -0.756  0.00  0.00    +0.044 A 
ATOM     25 CL   UNL     1      -1.244   1.731  -1.674  0.00  0.00    -0.082 Cl
ATOM     26 CL   UNL     1      -1.487  -0.897  -0.011  0.00  0.00    -0.082 Cl
ENDBRANCH  17  19
ENDBRANCH   6  15
BRANCH   5  27
ATOM     27  N   UNL     1       3.878   6.413  -0.350  0.00  0.00    -0.356 N 
ATOM     28  H   UNL     1       2.977   6.061  -0.279  0.00  0.00    +0.142 HD
ATOM     29  H   UNL     1       4.020   7.370  -0.429  0.00  0.00    +0.142 HD
ENDBRANCH   5  27
TORSDOF 4
