REMARK  Name = ZINC40562660
REMARK  4 active torsions:
REMARK  status: ('A' for Active; 'I' for Inactive)
REMARK    1  A    between atoms: C_8  and  C_20
REMARK    2  A    between atoms: C_9  and  N_11
REMARK    3  A    between atoms: C_14  and  C_17
REMARK    4  A    between atoms: N_24  and  C_28
REMARK                            x       y       z     vdW  Elec       q    Type
REMARK                         _______ _______ _______ _____ _____    ______ ____
ROOT
ATOM      1  C   UNL     1      -0.313   1.238  -0.119  0.00  0.00    +0.001 A 
ATOM      2  C   UNL     1       0.796   1.996  -0.488  0.00  0.00    +0.002 A 
ATOM      3  C   UNL     1       2.009   1.413  -0.696  0.00  0.00    +0.028 A 
ATOM      4  C   UNL     1       2.153   0.025  -0.537  0.00  0.00    +0.073 A 
ATOM      5  C   UNL     1       1.024  -0.746  -0.161  0.00  0.00    +0.001 A 
ATOM      6  C   UNL     1      -0.213  -0.110   0.045  0.00  0.00    +0.010 A 
ATOM      7  C   UNL     1       1.161  -2.135  -0.001  0.00  0.00    +0.021 A 
ATOM      8  C   UNL     1       2.414  -2.699  -0.221  0.00  0.00    +0.017 A 
ATOM      9  C   UNL     1       3.496  -1.863  -0.595  0.00  0.00    +0.129 A 
ATOM     10  N   UNL     1       3.338  -0.565  -0.737  0.00  0.00    -0.231 NA
ENDROOT
BRANCH   8  11
ATOM     11  C   UNL     1       2.614  -4.144  -0.067  0.00  0.00    +0.031 C 
ATOM     12  C   UNL     1       1.695  -4.889   0.601  0.00  0.00    +0.077 C 
ATOM     13  C   UNL     1       1.642  -6.350   0.814  0.00  0.00    +0.259 C 
ATOM     14  O   UNL     1       2.498  -7.092   0.369  0.00  0.00    -0.269 OA
ATOM     15  N   UNL     1       0.619  -6.810   1.513  0.00  0.00    -0.252 N 
ATOM     16  C   UNL     1      -0.327  -5.984   2.005  0.00  0.00    +0.121 C 
ATOM     17  S   UNL     1      -1.714  -6.384   2.924  0.00  0.00    -0.027 S 
ATOM     18  S   UNL     1       0.222  -4.371   1.470  0.00  0.00    -0.061 S 
BRANCH  15  19
ATOM     19  C   UNL     1       0.509  -8.250   1.758  0.00  0.00    +0.083 C 
ATOM     20  C   UNL     1      -0.839  -8.776   1.223  0.00  0.00    +0.023 C 
ATOM     21  C   UNL     1      -1.268  -9.844   2.260  0.00  0.00    +0.002 C 
ATOM     22  C   UNL     1      -0.821  -9.215   3.603  0.00  0.00    +0.002 C 
ATOM     23  C   UNL     1       0.520  -8.529   3.271  0.00  0.00    +0.023 C 
ENDBRANCH  15  19
ENDBRANCH   8  11
BRANCH   9  24
ATOM     24  N   UNL     1       4.742  -2.422  -0.813  0.00  0.00    -0.315 N 
ATOM     25  C   UNL     1       5.165  -2.801  -2.168  0.00  0.00    +0.107 C 
ATOM     26  C   UNL     1       6.512  -2.136  -2.468  0.00  0.00    +0.031 C 
ATOM     27  C   UNL     1       7.514  -2.504  -1.371  0.00  0.00    +0.078 C 
ATOM     28  C   UNL     1       7.009  -1.985  -0.023  0.00  0.00    +0.031 C 
ATOM     29  C   UNL     1       5.670  -2.643   0.304  0.00  0.00    +0.107 C 
BRANCH  27  30
ATOM     30  C   UNL     1       8.850  -1.879  -1.681  0.00  0.00    +0.214 C 
ATOM     31  O   UNL     1       8.987  -1.206  -2.681  0.00  0.00    -0.276 OA
ATOM     32  N   UNL     1       9.892  -2.067  -0.847  0.00  0.00    -0.329 N 
ATOM     33  H   UNL     1       9.782  -2.606  -0.048  0.00  0.00    +0.145 HD
ATOM     34  H   UNL     1      10.751  -1.665  -1.047  0.00  0.00    +0.145 HD
ENDBRANCH  27  30
ENDBRANCH   9  24
TORSDOF 4
