REMARK  Name = ZINC15319964
REMARK  5 active torsions:
REMARK  status: ('A' for Active; 'I' for Inactive)
REMARK    1  A    between atoms: C_1  and  C_2
REMARK    2  A    between atoms: N_10  and  C_13
REMARK    3  A    between atoms: N_28  and  C_31
REMARK    4  A    between atoms: C_31  and  C_32
REMARK    5  A    between atoms: C_32  and  C_34
REMARK                            x       y       z     vdW  Elec       q    Type
REMARK                         _______ _______ _______ _____ _____    ______ ____
ROOT
ATOM      1  C   UNL     1      -0.013   1.086   0.008  0.00  0.00    +0.025 C 
ATOM      2  C   UNL     1      -0.729   1.579   1.267  0.00  0.00    +0.064 C 
ATOM      3  C   UNL     1      -0.659   3.100   1.366  0.00  0.00    +0.107 C 
ATOM      4  C   UNL     1      -1.007   3.215   2.900  0.00  0.00    +0.123 C 
ATOM      5  C   UNL     1      -1.373   4.607   3.016  0.00  0.00    +0.233 C 
ATOM      6  O   UNL     1      -1.190   5.341   3.963  0.00  0.00    -0.274 OA
ATOM      7  N   UNL     1      -1.972   4.918   1.821  0.00  0.00    -0.210 N 
ATOM      8  C   UNL     1      -1.778   3.959   0.867  0.00  0.00    +0.232 C 
ATOM      9  O   UNL     1      -2.388   3.831  -0.173  0.00  0.00    -0.274 OA
ATOM     10  C   UNL     1      -0.133   2.216   3.518  0.00  0.00    +0.136 C 
ATOM     11  N   UNL     1      -0.005   1.127   2.501  0.00  0.00    -0.296 NA
ATOM     12  C   UNL     1      -0.660   1.632   4.805  0.00  0.00    +0.004 A 
ATOM     13  C   UNL     1      -1.843   1.016   5.144  0.00  0.00    +0.008 A 
ATOM     14  C   UNL     1      -2.045   0.572   6.439  0.00  0.00    +0.000 A 
ATOM     15  C   UNL     1      -1.056   0.749   7.389  0.00  0.00    +0.002 A 
ATOM     16  C   UNL     1       0.131   1.366   7.053  0.00  0.00    +0.024 A 
ATOM     17  C   UNL     1       0.342   1.816   5.751  0.00  0.00    +0.042 A 
ATOM     18  N   UNL     1       1.439   2.459   5.175  0.00  0.00    -0.265 N 
ATOM     19  C   UNL     1       1.243   2.727   3.871  0.00  0.00    +0.246 C 
ATOM     20  O   UNL     1       2.024   3.275   3.122  0.00  0.00    -0.273 OA
ATOM     21  H   UNL     1      -0.460   0.197   2.872  0.00  0.00    +0.123 HD
ENDROOT
BRANCH   7  22
ATOM     22  C   UNL     1      -2.705   6.093   1.603  0.00  0.00    +0.045 A 
ATOM     23  C   UNL     1      -3.281   6.333   0.362  0.00  0.00    +0.024 A 
ATOM     24  C   UNL     1      -4.003   7.491   0.150  0.00  0.00    +0.003 A 
ATOM     25  C   UNL     1      -4.153   8.412   1.171  0.00  0.00    +0.020 A 
ATOM     26  C   UNL     1      -3.581   8.175   2.408  0.00  0.00    +0.043 A 
ATOM     27  C   UNL     1      -2.861   7.015   2.628  0.00  0.00    +0.044 A 
ATOM     28 CL   UNL     1      -3.772   9.333   3.688  0.00  0.00    -0.083 Cl
ENDBRANCH   7  22
BRANCH  18  29
ATOM     29  C   UNL     1       2.662   2.800   5.905  0.00  0.00    +0.143 C 
BRANCH  29  30
ATOM     30  C   UNL     1       3.639   1.657   5.812  0.00  0.00    -0.062 C 
ATOM     31  C   UNL     1       4.564   1.660   4.885  0.00  0.00    +0.009 C 
ATOM     32  C   UNL     1       3.551   0.510   6.785  0.00  0.00    +0.040 C 
ENDBRANCH  29  30
ENDBRANCH  18  29
TORSDOF 3
