REMARK  Name = ZINC49977298
REMARK  6 active torsions:
REMARK  status: ('A' for Active; 'I' for Inactive)
REMARK    1  A    between atoms: C_1  and  C_2
REMARK    2  A    between atoms: C_4  and  C_20
REMARK    3  A    between atoms: C_6  and  N_8
REMARK    4  A    between atoms: N_8  and  C_9
REMARK    5  A    between atoms: C_10  and  C_12
REMARK    6  A    between atoms: C_16  and  N_18
REMARK                            x       y       z     vdW  Elec       q    Type
REMARK                         _______ _______ _______ _____ _____    ______ ____
ROOT
ATOM      1  N   UNL     1      -0.451  -2.721   2.425  0.00  0.00    -0.270 N 
ATOM      2  C   UNL     1      -1.078  -4.035   2.587  0.00  0.00    +0.138 C 
ATOM      3  C   UNL     1      -0.048  -2.029   3.509  0.00  0.00    +0.251 C 
ATOM      4  O   UNL     1       0.369  -0.894   3.385  0.00  0.00    -0.270 OA
ENDROOT
BRANCH   1  10
ATOM      5  C   UNL     1       1.421   0.784  -0.468  0.00  0.00    +0.044 C 
ATOM      6  C   UNL     1       0.633  -0.487  -0.286  0.00  0.00    -0.048 A 
ATOM      7  C   UNL     1       0.086  -1.125  -1.384  0.00  0.00    +0.006 A 
ATOM      8  C   UNL     1      -0.638  -2.292  -1.221  0.00  0.00    -0.048 A 
ATOM      9  C   UNL     1      -0.818  -2.823   0.041  0.00  0.00    +0.027 A 
ATOM     10  C   UNL     1      -0.270  -2.186   1.146  0.00  0.00    +0.037 A 
ATOM     11  C   UNL     1       0.462  -1.017   0.978  0.00  0.00    +0.027 A 
ATOM     12  C   UNL     1      -1.232  -2.983  -2.421  0.00  0.00    +0.044 C 
ENDBRANCH   1  10
BRANCH   3  13
ATOM     13  C   UNL     1      -0.114  -2.649   4.849  0.00  0.00    +0.039 A 
ATOM     14  C   UNL     1      -0.156  -4.039   4.976  0.00  0.00    +0.014 A 
ATOM     15  C   UNL     1      -0.218  -4.616   6.227  0.00  0.00    +0.018 A 
ATOM     16  C   UNL     1      -0.238  -3.822   7.360  0.00  0.00    +0.039 A 
ATOM     17  C   UNL     1      -0.196  -2.436   7.244  0.00  0.00    +0.039 A 
ATOM     18  C   UNL     1      -0.129  -1.848   5.991  0.00  0.00    +0.037 A 
ATOM     19 BR   UNL     1      -0.324  -4.622   9.071  0.00  0.00    -0.048 Br
BRANCH  17  20
ATOM     20  N   UNL     1      -0.217  -1.638   8.391  0.00  0.00    -0.357 N 
ATOM     21  H   UNL     1      -0.261  -2.050   9.268  0.00  0.00    +0.142 HD
ATOM     22  H   UNL     1      -0.188  -0.672   8.310  0.00  0.00    +0.142 HD
ENDBRANCH  17  20
ENDBRANCH   3  13
TORSDOF 3
