REMARK  Name = ZINC52764039
REMARK  5 active torsions:
REMARK  status: ('A' for Active; 'I' for Inactive)
REMARK    1  A    between atoms: C_5  and  C_8
REMARK    2  A    between atoms: C_17  and  C_19
REMARK    3  A    between atoms: C_19  and  C_20
REMARK    4  A    between atoms: C_20  and  C_21
REMARK    5  A    between atoms: C_21  and  O_22
REMARK                            x       y       z     vdW  Elec       q    Type
REMARK                         _______ _______ _______ _____ _____    ______ ____
ROOT
ATOM      1  C   UNL     1       0.882   0.872  -0.287  0.00  0.00    +0.004 C 
ATOM      2  C   UNL     1       1.863   1.432   0.746  0.00  0.00    +0.019 C 
ATOM      3  C   UNL     1       1.291   1.226   2.152  0.00  0.00    +0.110 C 
ATOM      4  N   UNL     1       0.976  -0.198   2.330  0.00  0.00    -0.272 N 
ATOM      5  C   UNL     1       0.113  -0.859   1.342  0.00  0.00    +0.190 C 
ATOM      6  C   UNL     1       0.698  -0.630  -0.056  0.00  0.00    +0.034 C 
ATOM      7  C   UNL     1       1.469  -0.884   3.380  0.00  0.00    +0.306 C 
ATOM      8  O   UNL     1       1.309  -2.088   3.448  0.00  0.00    -0.252 OA
ATOM      9  N   UNL     1       2.139  -0.237   4.353  0.00  0.00    -0.282 N 
ATOM     10  C   UNL     1       2.171   1.224   4.549  0.00  0.00    +0.109 C 
ATOM     11  C   UNL     1       2.503   1.415   6.050  0.00  0.00    +0.021 C 
ATOM     12  C   UNL     1       3.505   0.256   6.298  0.00  0.00    +0.024 C 
ATOM     13  C   UNL     1       2.954  -0.871   5.400  0.00  0.00    +0.078 C 
ENDROOT
BRANCH   5  14
ATOM     14  C   UNL     1       0.054  -2.337   1.631  0.00  0.00    +0.376 C 
ATOM     15  O   UNL     1      -1.015  -2.866   1.885  0.00  0.00    -0.244 OA
ATOM     16  O   UNL     1       1.074  -3.003   1.611  0.00  0.00    -0.244 OA
ENDBRANCH   5  14
BRANCH  13  17
ATOM     17  C   UNL     1       4.115  -1.638   4.762  0.00  0.00    +0.025 C 
BRANCH  17  18
ATOM     18  C   UNL     1       3.565  -2.802   3.935  0.00  0.00    +0.030 C 
BRANCH  18  19
ATOM     19  C   UNL     1       4.724  -3.668   3.439  0.00  0.00    +0.156 C 
BRANCH  19  20
ATOM     20  O   UNL     1       4.210  -4.755   2.667  0.00  0.00    -0.395 OA
ATOM     21  H   UNL     1       4.891  -5.347   2.320  0.00  0.00    +0.209 HD
ENDBRANCH  19  20
ENDBRANCH  18  19
ENDBRANCH  17  18
ENDBRANCH  13  17
TORSDOF 5
