REMARK  Name = ZINC22625923
REMARK  4 active torsions:
REMARK  status: ('A' for Active; 'I' for Inactive)
REMARK    1  A    between atoms: C_1  and  C_2
REMARK    2  A    between atoms: C_8  and  C_10
REMARK    3  A    between atoms: C_10  and  C_12
REMARK    4  A    between atoms: C_10  and  N_19
REMARK                            x       y       z     vdW  Elec       q    Type
REMARK                         _______ _______ _______ _____ _____    ______ ____
ROOT
ATOM      1  C   UNL     1       5.247   2.833  -0.034  0.00  0.00    +0.006 C 
ENDROOT
BRANCH   1   9
ATOM      2  C   UNL     1      -1.215  -0.893   0.008  0.00  0.00    +0.090 C 
ATOM      3  C   UNL     1       0.002  -0.004   0.002  0.00  0.00    +0.150 A 
ATOM      4  N   UNL     1      -0.016   1.327   0.009  0.00  0.00    -0.205 NA
ATOM      5  C   UNL     1       1.210   1.775   0.000  0.00  0.00    +0.199 A 
ATOM      6  N   UNL     1       2.079   0.728  -0.014  0.00  0.00    -0.170 N 
ATOM      7  N   UNL     1       1.241  -0.418  -0.012  0.00  0.00    -0.147 NA
ATOM      8  C   UNL     1       3.421   1.023  -0.025  0.00  0.00    +0.282 A 
ATOM      9  C   UNL     1       3.839   2.294  -0.023  0.00  0.00    +0.050 A 
ATOM     10  S   UNL     1       2.291   3.185  -0.003  0.00  0.00    -0.050 S 
ATOM     11  O   UNL     1       4.333   0.014  -0.039  0.00  0.00    -0.265 OA
ENDBRANCH   1   9
BRANCH   1  12
ATOM     12  C   UNL     1       5.597   3.349   1.338  0.00  0.00    -0.055 A 
ATOM     13  C   UNL     1       6.357   2.574   2.195  0.00  0.00    +0.002 A 
ATOM     14  C   UNL     1       6.679   3.046   3.453  0.00  0.00    +0.001 A 
ATOM     15  C   UNL     1       6.242   4.295   3.856  0.00  0.00    +0.015 A 
ATOM     16  C   UNL     1       5.482   5.070   2.999  0.00  0.00    +0.018 A 
ATOM     17  C   UNL     1       5.164   4.599   1.738  0.00  0.00    +0.017 A 
ATOM     18 BR   UNL     1       4.883   6.778   3.549  0.00  0.00    -0.050 Br
ENDBRANCH   1  12
BRANCH   1  19
ATOM     19  N   UNL     1       5.345   3.927  -1.008  0.00  0.00    +0.387 N 
ATOM     20  C   UNL     1       6.706   4.522  -1.006  0.00  0.00    -0.078 C 
ATOM     21  C   UNL     1       6.784   5.235  -2.379  0.00  0.00    -0.020 C 
ATOM     22  C   UNL     1       6.024   4.268  -3.314  0.00  0.00    -0.020 C 
ATOM     23  C   UNL     1       5.124   3.433  -2.385  0.00  0.00    -0.078 C 
ATOM     24  H   UNL     1       4.578   4.659  -0.715  0.00  0.00    -0.080 HD
ENDBRANCH   1  19
TORSDOF 3
