REMARK  Name = ZINC37328719
REMARK  5 active torsions:
REMARK  status: ('A' for Active; 'I' for Inactive)
REMARK    1  A    between atoms: C_1  and  C_2
REMARK    2  A    between atoms: C_3  and  C_22
REMARK    3  A    between atoms: C_10  and  C_13
REMARK    4  A    between atoms: C_13  and  N_14
REMARK    5  A    between atoms: N_14  and  C_15
REMARK                            x       y       z     vdW  Elec       q    Type
REMARK                         _______ _______ _______ _____ _____    ______ ____
ROOT
ATOM      1  C   UNL     1      -0.018   1.503   0.010  0.00  0.00    +0.045 C 
ATOM      2  C   UNL     1       0.002  -0.004   0.002  0.00  0.00    -0.026 A 
ATOM      3  C   UNL     1       0.006  -0.677  -1.159  0.00  0.00    -0.008 A 
ATOM      4  S   UNL     1       0.031  -2.384  -0.644  0.00  0.00    -0.075 S 
ATOM      5  C   UNL     1       0.036  -2.139   1.112  0.00  0.00    +0.092 A 
ATOM      6  C   UNL     1       0.024  -0.745   1.249  0.00  0.00    +0.075 A 
ATOM      7  C   UNL     1       0.030  -0.253   2.645  0.00  0.00    +0.282 A 
ATOM      8  O   UNL     1       0.016   0.945   2.879  0.00  0.00    -0.265 OA
ATOM      9  N   UNL     1       0.051  -1.143   3.648  0.00  0.00    -0.194 NA
ATOM     10  C   UNL     1       0.067  -2.430   3.442  0.00  0.00    +0.129 A 
ATOM     11  N   UNL     1       0.052  -2.952   2.199  0.00  0.00    -0.336 N 
ATOM     12  H   UNL     1       0.064  -3.914   2.080  0.00  0.00    +0.168 HD
ATOM     13  C   UNL     1      -0.008  -0.124  -2.561  0.00  0.00    +0.052 C 
ENDROOT
BRANCH  10  14
ATOM     14  C   UNL     1       0.090  -3.361   4.627  0.00  0.00    +0.176 C 
BRANCH  14  15
ATOM     15  N   UNL     1       0.091  -2.578   5.864  0.00  0.00    -0.337 N 
ATOM     16  H   UNL     1       0.078  -1.608   5.824  0.00  0.00    +0.147 HD
BRANCH  15  17
ATOM     17  C   UNL     1       0.111  -3.225   7.101  0.00  0.00    +0.029 A 
ATOM     18  C   UNL     1       0.136  -4.613   7.160  0.00  0.00    +0.023 A 
ATOM     19  C   UNL     1       0.156  -5.251   8.384  0.00  0.00    +0.003 A 
ATOM     20  C   UNL     1       0.150  -4.511   9.552  0.00  0.00    +0.015 A 
ATOM     21  C   UNL     1       0.126  -3.128   9.498  0.00  0.00    +0.020 A 
ATOM     22  C   UNL     1       0.112  -2.484   8.275  0.00  0.00    +0.038 A 
ATOM     23 BR   UNL     1       0.118  -2.120  11.098  0.00  0.00    -0.050 Br
ENDBRANCH  15  17
ENDBRANCH  14  15
ENDBRANCH  10  14
TORSDOF 3
