REMARK  Name = ZINC26743596
REMARK  9 active torsions:
REMARK  status: ('A' for Active; 'I' for Inactive)
REMARK    1  A    between atoms: C_1  and  C_2
REMARK    2  A    between atoms: C_7  and  N_8
REMARK    3  A    between atoms: N_8  and  S_9
REMARK    4  A    between atoms: S_9  and  C_12
REMARK    5  A    between atoms: C_15  and  C_30
REMARK    6  A    between atoms: C_16  and  C_18
REMARK    7  A    between atoms: N_20  and  N_21
REMARK    8  A    between atoms: C_22  and  C_24
REMARK    9  A    between atoms: C_28  and  C_29
REMARK                            x       y       z     vdW  Elec       q    Type
REMARK                         _______ _______ _______ _____ _____    ______ ____
ROOT
ATOM      1  C   UNL     1       1.735   2.951   1.224  0.00  0.00    +0.109 A 
ATOM      2  C   UNL     1       0.977   4.108   1.197  0.00  0.00    +0.029 A 
ATOM      3  C   UNL     1       0.837   4.878   2.338  0.00  0.00    +0.006 A 
ATOM      4  C   UNL     1       1.461   4.501   3.509  0.00  0.00    -0.038 A 
ATOM      5  C   UNL     1       2.232   3.338   3.542  0.00  0.00    +0.043 A 
ATOM      6  C   UNL     1       2.365   2.563   2.388  0.00  0.00    +0.042 A 
ATOM      7  C   UNL     1       1.312   5.343   4.750  0.00  0.00    +0.044 C 
ENDROOT
BRANCH   5   8
ATOM      8  C   UNL     1       2.905   2.928   4.793  0.00  0.00    +0.260 C 
ATOM      9  O   UNL     1       2.882   3.660   5.763  0.00  0.00    -0.269 OA
ATOM     10  N   UNL     1       3.544   1.743   4.858  0.00  0.00    -0.230 N 
ATOM     11  H   UNL     1       3.564   1.081   3.980  0.00  0.00    +0.173 HD
BRANCH  10  12
ATOM     12  N   UNL     1       4.181   1.355   6.043  0.00  0.00    -0.230 N 
ATOM     13  C   UNL     1       4.820   0.170   6.108  0.00  0.00    +0.263 C 
ATOM     14  O   UNL     1       4.843  -0.563   5.137  0.00  0.00    -0.269 OA
ATOM     15  H   UNL     1       4.160   2.017   6.921  0.00  0.00    +0.173 HD
BRANCH  13  16
ATOM     16  C   UNL     1       5.491  -0.239   7.355  0.00  0.00    +0.079 A 
ATOM     17  C   UNL     1       5.567   0.519   8.612  0.00  0.00    +0.054 A 
ATOM     18  C   UNL     1       6.269  -0.246   9.462  0.00  0.00    +0.196 A 
ATOM     19  O   UNL     1       6.629  -1.379   8.839  0.00  0.00    -0.467 OA
ATOM     20  C   UNL     1       6.175  -1.397   7.582  0.00  0.00    +0.114 A 
ATOM     21  C   UNL     1       6.385  -2.507   6.585  0.00  0.00    +0.087 C 
ENDBRANCH  13  16
ENDBRANCH  10  12
ENDBRANCH   5   8
BRANCH   1  22
ATOM     22  S   UNL     1       1.902   1.975  -0.234  0.00  0.00    +0.072 S 
ATOM     23  O   UNL     1       3.110   1.240  -0.093  0.00  0.00    -0.150 OA
ATOM     24  O   UNL     1       1.662   2.843  -1.333  0.00  0.00    -0.150 OA
BRANCH  22  25
ATOM     25  N   UNL     1       0.671   0.868  -0.226  0.00  0.00    -0.216 N 
ATOM     26  H   UNL     1       0.898  -0.208  -0.205  0.00  0.00    +0.174 HD
BRANCH  25  33
ATOM     27  C   UNL     1      -1.248  -0.625   1.251  0.00  0.00    +0.046 C 
ATOM     28  C   UNL     1      -1.627   0.602   0.462  0.00  0.00    -0.028 A 
ATOM     29  C   UNL     1      -2.939   1.033   0.441  0.00  0.00    +0.005 A 
ATOM     30  C   UNL     1      -3.288   2.159  -0.282  0.00  0.00    +0.000 A 
ATOM     31  C   UNL     1      -2.324   2.857  -0.987  0.00  0.00    +0.002 A 
ATOM     32  C   UNL     1      -1.010   2.434  -0.966  0.00  0.00    +0.025 A 
ATOM     33  C   UNL     1      -0.657   1.301  -0.245  0.00  0.00    +0.051 A 
ENDBRANCH  25  33
ENDBRANCH  22  25
ENDBRANCH   1  22
TORSDOF 6
