REMARK  Name = ZINC35250773
REMARK  4 active torsions:
REMARK  status: ('A' for Active; 'I' for Inactive)
REMARK    1  A    between atoms: C_4  and  C_6
REMARK    2  A    between atoms: C_4  and  N_9
REMARK    3  A    between atoms: C_10  and  C_12
REMARK    4  A    between atoms: C_12  and  C_13
REMARK                            x       y       z     vdW  Elec       q    Type
REMARK                         _______ _______ _______ _____ _____    ______ ____
ROOT
ATOM      1  N   UNL     1       1.933  -0.674  -1.387  0.00  0.00    -0.300 N 
ATOM      2  C   UNL     1       1.406  -1.693  -2.093  0.00  0.00    +0.214 C 
ATOM      3  O   UNL     1       0.560  -2.404  -1.592  0.00  0.00    -0.276 OA
ATOM      4  H   UNL     1       2.609  -0.105  -1.788  0.00  0.00    +0.150 HD
ENDROOT
BRANCH   1   8
ATOM      5  C   UNL     1      -0.019   1.534   0.011  0.00  0.00    +0.003 C 
ATOM      6  C   UNL     1       1.453   1.995  -0.001  0.00  0.00    +0.003 C 
ATOM      7  C   UNL     1       2.232   0.792   0.586  0.00  0.00    +0.037 C 
ATOM      8  C   UNL     1       1.486  -0.425  -0.014  0.00  0.00    +0.136 C 
ATOM      9  C   UNL     1       0.002  -0.004   0.002  0.00  0.00    +0.037 C 
BRANCH   8  10
ATOM     10  C   UNL     1       1.697  -1.647   0.841  0.00  0.00    +0.379 C 
ATOM     11  O   UNL     1       1.340  -1.646   2.006  0.00  0.00    -0.244 OA
ATOM     12  O   UNL     1       2.226  -2.639   0.367  0.00  0.00    -0.244 OA
ENDBRANCH   8  10
ENDBRANCH   1   8
BRANCH   2  13
ATOM     13  C   UNL     1       1.866  -1.949  -3.505  0.00  0.00    +0.101 C 
BRANCH  13  14
ATOM     14  C   UNL     1       1.115  -3.154  -4.075  0.00  0.00    +0.020 C 
ATOM     15  C   UNL     1       1.520  -4.427  -3.313  0.00  0.00    +0.028 C 
ATOM     16  C   UNL     1       1.024  -5.679  -4.076  0.00  0.00    +0.166 C 
ATOM     17  S   UNL     1       0.993  -5.103  -5.822  0.00  0.00    -0.031 S 
ATOM     18  O   UNL     1       2.014  -5.774  -6.548  0.00  0.00    -0.174 OA
ATOM     19  O   UNL     1      -0.345  -5.143  -6.299  0.00  0.00    -0.174 OA
ATOM     20  C   UNL     1       1.490  -3.347  -5.573  0.00  0.00    +0.170 C 
ENDBRANCH  13  14
ENDBRANCH   2  13
TORSDOF 4
