REMARK  Name = ZINC37806943
REMARK  7 active torsions:
REMARK  status: ('A' for Active; 'I' for Inactive)
REMARK    1  A    between atoms: C_1  and  C_2
REMARK    2  A    between atoms: C_8  and  N_10
REMARK    3  A    between atoms: N_10  and  C_11
REMARK    4  A    between atoms: C_12  and  C_14
REMARK    5  A    between atoms: C_14  and  C_16
REMARK    6  A    between atoms: C_14  and  N_20
REMARK    7  A    between atoms: C_16  and  C_17
REMARK                            x       y       z     vdW  Elec       q    Type
REMARK                         _______ _______ _______ _____ _____    ______ ____
ROOT
ATOM      1  N   UNL     1       0.195   0.086   2.343  0.00  0.00    -0.303 N 
ATOM      2  C   UNL     1      -1.154  -0.322   2.743  0.00  0.00    +0.132 C 
ATOM      3  C   UNL     1       0.884   0.966   3.097  0.00  0.00    +0.202 C 
ATOM      4  O   UNL     1       2.000   1.304   2.766  0.00  0.00    -0.277 OA
ENDROOT
BRANCH   1  11
ATOM      5  C   UNL     1      -1.429  -0.370  -0.012  0.00  0.00    +0.009 C 
ATOM      6  C   UNL     1      -0.253  -1.275   0.361  0.00  0.00    +0.006 C 
ATOM      7  C   UNL     1      -0.750  -2.421   1.243  0.00  0.00    +0.005 C 
ATOM      8  C   UNL     1       0.426  -3.326   1.616  0.00  0.00    +0.000 C 
ATOM      9  C   UNL     1       1.474  -2.512   2.379  0.00  0.00    +0.002 C 
ATOM     10  C   UNL     1       1.971  -1.366   1.496  0.00  0.00    +0.023 C 
ATOM     11  C   UNL     1       0.795  -0.461   1.124  0.00  0.00    +0.078 C 
ENDBRANCH   1  11
BRANCH   3  12
ATOM     12  C   UNL     1       0.266   1.529   4.351  0.00  0.00    +0.022 C 
BRANCH  12  13
ATOM     13  N   UNL     1       0.959   2.770   4.723  0.00  0.00    +0.386 N 
ATOM     14  H   UNL     1       0.872   3.441   3.974  0.00  0.00    -0.089 HD
ATOM     15  H   UNL     1       0.546   3.147   5.562  0.00  0.00    -0.089 HD
ATOM     16  H   UNL     1       1.935   2.574   4.887  0.00  0.00    -0.089 HD
ENDBRANCH  12  13
BRANCH  12  17
ATOM     17  C   UNL     1       0.398   0.511   5.486  0.00  0.00    +0.088 C 
BRANCH  17  18
ATOM     18  C   UNL     1      -0.326   1.022   6.705  0.00  0.00    +0.209 C 
ATOM     19  O   UNL     1      -0.891   2.094   6.670  0.00  0.00    -0.276 OA
ATOM     20  N   UNL     1      -0.344   0.287   7.834  0.00  0.00    -0.329 N 
ATOM     21  H   UNL     1       0.108  -0.571   7.863  0.00  0.00    +0.145 HD
ATOM     22  H   UNL     1      -0.810   0.615   8.619  0.00  0.00    +0.145 HD
ENDBRANCH  17  18
ENDBRANCH  12  17
ENDBRANCH   3  12
TORSDOF 5
