REMARK  Name = ZINC44020937
REMARK  4 active torsions:
REMARK  status: ('A' for Active; 'I' for Inactive)
REMARK    1  A    between atoms: C_1  and  C_2
REMARK    2  A    between atoms: C_13  and  O_15
REMARK    3  A    between atoms: C_17  and  O_27
REMARK    4  A    between atoms: C_25  and  C_26
REMARK                            x       y       z     vdW  Elec       q    Type
REMARK                         _______ _______ _______ _____ _____    ______ ____
ROOT
ATOM      1  C   UNL     1      -0.019   1.526   0.010  0.00  0.00    +0.014 C 
ATOM      2  C   UNL     1       0.002  -0.004   0.002  0.00  0.00    -0.003 C 
ATOM      3  C   UNL     1       0.622  -0.527  -1.273  0.00  0.00    +0.010 C 
ATOM      4  C   UNL     1       2.073  -0.957  -0.986  0.00  0.00    +0.005 C 
ATOM      5  C   UNL     1       2.722   0.066  -0.066  0.00  0.00    +0.003 C 
ATOM      6  C   UNL     1       2.159  -0.023   1.341  0.00  0.00    -0.001 C 
ATOM      7  C   UNL     1       0.737  -0.574   1.230  0.00  0.00    +0.001 C 
ATOM      8  C   UNL     1      -0.187  -0.156   2.386  0.00  0.00    +0.007 C 
ATOM      9  C   UNL     1      -1.612  -0.308   1.793  0.00  0.00    +0.032 C 
ATOM     10  C   UNL     1      -1.437  -0.491   0.264  0.00  0.00    +0.121 C 
ATOM     11  C   UNL     1       2.908  -0.945   2.281  0.00  0.00    +0.040 C 
ATOM     12  C   UNL     1       4.407  -1.024   2.155  0.00  0.00    +0.141 C 
ATOM     13  C   UNL     1       4.849  -0.934   0.714  0.00  0.00    -0.032 C 
ATOM     14  C   UNL     1       5.789  -1.778   0.288  0.00  0.00    +0.048 C 
ATOM     15  C   UNL     1       6.209  -1.752  -1.117  0.00  0.00    +0.156 C 
ATOM     16  O   UNL     1       7.277  -2.204  -1.479  0.00  0.00    -0.293 OA
ATOM     17  C   UNL     1       5.219  -1.169  -2.106  0.00  0.00    +0.080 C 
ATOM     18  C   UNL     1       4.737   0.174  -1.572  0.00  0.00    +0.019 C 
ATOM     19  C   UNL     1       4.227   0.111  -0.151  0.00  0.00    -0.005 C 
ATOM     20  C   UNL     1       4.627   1.465   0.455  0.00  0.00    +0.016 C 
ENDROOT
BRANCH  10  21
ATOM     21  O   UNL     1      -1.565  -1.868  -0.084  0.00  0.00    -0.391 OA
ATOM     22  H   UNL     1      -2.450  -2.229   0.060  0.00  0.00    +0.210 HD
ENDBRANCH  10  21
BRANCH  12  23
ATOM     23  O   UNL     1       5.029  -0.010   2.943  0.00  0.00    -0.387 OA
ATOM     24  H   UNL     1       5.995  -0.014   2.898  0.00  0.00    +0.210 HD
ENDBRANCH  12  23
TORSDOF 2
