REMARK  Name = ZINC10024732
REMARK  5 active torsions:
REMARK  status: ('A' for Active; 'I' for Inactive)
REMARK    1  A    between atoms: C_4  and  C_7
REMARK    2  A    between atoms: N_12  and  C_15
REMARK    3  A    between atoms: C_15  and  C_16
REMARK    4  A    between atoms: C_16  and  C_17
REMARK    5  A    between atoms: C_17  and  O_18
REMARK                            x       y       z     vdW  Elec       q    Type
REMARK                         _______ _______ _______ _____ _____    ______ ____
ROOT
ATOM      1  C   UNL     1      -0.077   3.731   0.022  0.00  0.00    +0.142 C 
ATOM      2  C   UNL     1       1.236   2.975   0.006  0.00  0.00    +0.058 C 
ATOM      3  C   UNL     1       1.184   1.628  -0.001  0.00  0.00    +0.039 C 
ATOM      4  C   UNL     1       2.617   1.146  -0.016  0.00  0.00    +0.159 C 
ATOM      5  N   UNL     1       3.428   2.373  -0.017  0.00  0.00    -0.292 N 
ATOM      6  C   UNL     1       2.576   3.414  -0.004  0.00  0.00    +0.247 C 
ATOM      7  O   UNL     1       2.917   4.582  -0.001  0.00  0.00    -0.270 OA
ATOM      8  N   UNL     1      -0.011   0.966   0.007  0.00  0.00    -0.271 N 
ATOM      9  C   UNL     1      -1.200   1.583   0.017  0.00  0.00    +0.304 C 
ATOM     10  O   UNL     1      -2.212   0.910   0.018  0.00  0.00    -0.252 OA
ATOM     11  N   UNL     1      -1.310   2.926   0.029  0.00  0.00    -0.288 N 
ATOM     12  H   UNL     1       0.002  -0.004   0.002  0.00  0.00    +0.156 HD
ATOM     13  H   UNL     1      -2.181   3.352   0.039  0.00  0.00    +0.151 HD
ENDROOT
BRANCH   1  17
ATOM     14  C   UNL     1      -0.118   6.228   3.488  0.00  0.00    +0.000 A 
ATOM     15  C   UNL     1       0.195   6.765   2.253  0.00  0.00    +0.000 A 
ATOM     16  C   UNL     1       0.208   5.957   1.132  0.00  0.00    +0.006 A 
ATOM     17  C   UNL     1      -0.091   4.612   1.245  0.00  0.00    -0.023 A 
ATOM     18  C   UNL     1      -0.408   4.076   2.479  0.00  0.00    +0.006 A 
ATOM     19  C   UNL     1      -0.417   4.883   3.602  0.00  0.00    +0.000 A 
ENDBRANCH   1  17
BRANCH   5  20
ATOM     20  C   UNL     1       4.891   2.447  -0.031  0.00  0.00    +0.111 C 
BRANCH  20  21
ATOM     21  C   UNL     1       5.387   2.481  -1.478  0.00  0.00    +0.047 C 
BRANCH  21  22
ATOM     22  C   UNL     1       6.915   2.559  -1.492  0.00  0.00    +0.157 C 
BRANCH  22  23
ATOM     23  O   UNL     1       7.377   2.590  -2.844  0.00  0.00    -0.395 OA
ATOM     24  H   UNL     1       8.339   2.640  -2.929  0.00  0.00    +0.209 HD
ENDBRANCH  22  23
ENDBRANCH  21  22
ENDBRANCH  20  21
ENDBRANCH   5  20
TORSDOF 5
