REMARK  Name = ZINC17075832
REMARK  6 active torsions:
REMARK  status: ('A' for Active; 'I' for Inactive)
REMARK    1  A    between atoms: C_1  and  C_2
REMARK    2  A    between atoms: C_2  and  C_13
REMARK    3  A    between atoms: N_3  and  N_4
REMARK    4  A    between atoms: C_5  and  C_7
REMARK    5  A    between atoms: C_7  and  C_12
REMARK    6  A    between atoms: C_18  and  O_19
REMARK                            x       y       z     vdW  Elec       q    Type
REMARK                         _______ _______ _______ _____ _____    ______ ____
ROOT
ATOM      1  C   UNL     1       2.257   1.011   1.992  0.00  0.00    +0.068 C 
ATOM      2  C   UNL     1       1.684  -0.303   1.528  0.00  0.00    +0.067 C 
ATOM      3  N   UNL     1       1.060  -1.071   2.367  0.00  0.00    -0.184 NA
ENDROOT
BRANCH   2   4
ATOM      4  C   UNL     1       1.834  -0.717   0.121  0.00  0.00    +0.042 A 
ATOM      5  C   UNL     1       0.707  -0.858  -0.692  0.00  0.00    +0.033 A 
ATOM      6  C   UNL     1       0.853  -1.246  -2.009  0.00  0.00    +0.043 A 
ATOM      7  C   UNL     1       2.114  -1.496  -2.527  0.00  0.00    +0.043 A 
ATOM      8  C   UNL     1       3.236  -1.360  -1.731  0.00  0.00    +0.084 A 
ATOM      9  C   UNL     1       3.107  -0.965  -0.408  0.00  0.00    +0.144 A 
ATOM     10 CL   UNL     1       4.810  -1.677  -2.391  0.00  0.00    -0.080 Cl
ATOM     11 CL   UNL     1      -0.548  -1.421  -3.019  0.00  0.00    -0.083 Cl
BRANCH   9  12
ATOM     12  O   UNL     1       4.209  -0.825   0.373  0.00  0.00    -0.505 OA
ATOM     13  H   UNL     1       4.509  -1.649   0.782  0.00  0.00    +0.292 HD
ENDBRANCH   9  12
ENDBRANCH   2   4
BRANCH   3  14
ATOM     14  N   UNL     1       0.515  -2.287   1.933  0.00  0.00    -0.206 N 
ATOM     15  C   UNL     1      -0.179  -3.060   2.792  0.00  0.00    +0.241 C 
ATOM     16  O   UNL     1      -0.251  -2.752   3.963  0.00  0.00    -0.273 OA
ATOM     17  H   UNL     1       0.637  -2.572   1.014  0.00  0.00    +0.177 HD
BRANCH  15  18
ATOM     18  C   UNL     1      -0.867  -4.306   2.298  0.00  0.00    +0.081 C 
ATOM     19  C   UNL     1      -2.389  -4.263   2.151  0.00  0.00    +0.058 C 
ATOM     20  C   UNL     1      -1.753  -5.064   3.288  0.00  0.00    +0.133 C 
ATOM     21 CL   UNL     1      -1.894  -4.398   4.957  0.00  0.00    -0.100 Cl
ATOM     22 CL   UNL     1      -1.792  -6.863   3.162  0.00  0.00    -0.100 Cl
ATOM     23  C   UNL     1      -0.081  -5.132   1.277  0.00  0.00    +0.024 C 
ENDBRANCH  15  18
ENDBRANCH   3  14
TORSDOF 4
