REMARK  Name = ZINC37828809
REMARK  3 active torsions:
REMARK  status: ('A' for Active; 'I' for Inactive)
REMARK    1  A    between atoms: C_1  and  C_2
REMARK    2  A    between atoms: C_2  and  C_4
REMARK    3  A    between atoms: C_15  and  C_17
REMARK                            x       y       z     vdW  Elec       q    Type
REMARK                         _______ _______ _______ _____ _____    ______ ____
ROOT
ATOM      1  C   UNL     1       1.856  -2.130   1.052  0.00  0.00    +0.234 C 
ATOM      2  O   UNL     1       2.845  -1.569   1.475  0.00  0.00    -0.274 OA
ATOM      3  N   UNL     1       0.812  -2.366   1.872  0.00  0.00    -0.284 N 
ATOM      4  C   UNL     1      -0.357  -3.126   1.418  0.00  0.00    +0.144 C 
ATOM      5  C   UNL     1      -0.760  -4.120   2.478  0.00  0.00    -0.027 A 
ATOM      6  C   UNL     1      -1.690  -5.092   2.135  0.00  0.00    +0.005 A 
ATOM      7  C   UNL     1      -2.105  -6.024   3.064  0.00  0.00    +0.000 A 
ATOM      8  C   UNL     1      -1.592  -5.987   4.348  0.00  0.00    +0.000 A 
ATOM      9  C   UNL     1      -0.665  -5.024   4.689  0.00  0.00    +0.004 A 
ATOM     10  C   UNL     1      -0.241  -4.089   3.753  0.00  0.00    -0.040 A 
ATOM     11  C   UNL     1       0.794  -3.085   4.189  0.00  0.00    +0.067 C 
ATOM     12  C   UNL     1       0.804  -1.878   3.261  0.00  0.00    +0.166 C 
ENDROOT
BRANCH  12  13
ATOM     13  C   UNL     1       2.038  -1.052   3.518  0.00  0.00    +0.231 C 
ATOM     14  O   UNL     1       2.313  -0.127   2.783  0.00  0.00    -0.274 OA
ATOM     15  N   UNL     1       2.836  -1.341   4.565  0.00  0.00    -0.328 N 
ATOM     16  H   UNL     1       2.616  -2.080   5.153  0.00  0.00    +0.145 HD
ATOM     17  H   UNL     1       3.630  -0.809   4.731  0.00  0.00    +0.145 HD
ENDBRANCH  12  13
BRANCH   1  19
ATOM     18  C   UNL     1       2.324  -1.438  -1.282  0.00  0.00    +0.034 C 
ATOM     19  C   UNL     1       1.793  -2.562  -0.390  0.00  0.00    +0.163 C 
ATOM     20 CL   UNL     1       2.802  -4.038  -0.620  0.00  0.00    -0.112 Cl
ENDBRANCH   1  19
TORSDOF 2
