REMARK  Name = ZINC42142588
REMARK  4 active torsions:
REMARK  status: ('A' for Active; 'I' for Inactive)
REMARK    1  A    between atoms: C_6  and  N_7
REMARK    2  A    between atoms: C_9  and  S_11
REMARK    3  A    between atoms: S_11  and  C_12
REMARK    4  A    between atoms: C_12  and  C_13
REMARK                            x       y       z     vdW  Elec       q    Type
REMARK                         _______ _______ _______ _____ _____    ______ ____
ROOT
ATOM      1  C   UNL     1      -0.017   1.388   0.010  0.00  0.00    +0.025 A 
ATOM      2  C   UNL     1       1.163   2.099   0.002  0.00  0.00    +0.033 A 
ATOM      3  C   UNL     1       2.382   1.421  -0.013  0.00  0.00    +0.111 A 
ATOM      4  C   UNL     1       2.400   0.018  -0.021  0.00  0.00    +0.158 A 
ATOM      5  C   UNL     1       1.208  -0.687  -0.013  0.00  0.00    +0.071 A 
ATOM      6  C   UNL     1       0.002  -0.004   0.002  0.00  0.00    +0.028 A 
ATOM      7  O   UNL     1       3.703  -0.347  -0.035  0.00  0.00    -0.431 OA
ATOM      8  C   UNL     1       4.453   0.770  -0.036  0.00  0.00    +0.258 A 
ATOM      9  N   UNL     1       3.683   1.828  -0.023  0.00  0.00    -0.203 NA
ENDROOT
BRANCH   6  10
ATOM     10  N   UNL     1      -1.202  -0.717   0.010  0.00  0.00    -0.358 N 
ATOM     11  H   UNL     1      -2.047  -0.241   0.021  0.00  0.00    +0.142 HD
ATOM     12  H   UNL     1      -1.191  -1.687   0.005  0.00  0.00    +0.142 HD
ENDBRANCH   6  10
BRANCH   8  13
ATOM     13  S   UNL     1       6.214   0.803  -0.053  0.00  0.00    -0.062 S 
BRANCH  13  14
ATOM     14  C   UNL     1       6.620   2.571  -0.047  0.00  0.00    +0.115 C 
BRANCH  14  15
ATOM     15  C   UNL     1       8.117   2.743  -0.061  0.00  0.00    -0.023 A 
ATOM     16  C   UNL     1       8.815   2.810   1.131  0.00  0.00    +0.008 A 
ATOM     17  C   UNL     1      10.188   2.967   1.120  0.00  0.00    +0.039 A 
ATOM     18  C   UNL     1      10.865   3.058  -0.085  0.00  0.00    +0.124 A 
ATOM     19  C   UNL     1      10.166   2.991  -1.278  0.00  0.00    +0.054 A 
ATOM     20  C   UNL     1       8.792   2.828  -1.265  0.00  0.00    +0.025 A 
ATOM     21 BR   UNL     1       7.837   2.730  -2.893  0.00  0.00    -0.050 Br
ATOM     22  F   UNL     1      12.207   3.212  -0.096  0.00  0.00    -0.205 F 
ENDBRANCH  14  15
ENDBRANCH  13  14
ENDBRANCH   8  13
TORSDOF 4
