REMARK  Name = ZINC13995323
REMARK  8 active torsions:
REMARK  status: ('A' for Active; 'I' for Inactive)
REMARK    1  A    between atoms: C_1  and  C_2
REMARK    2  A    between atoms: C_5  and  N_8
REMARK    3  A    between atoms: C_13  and  C_33
REMARK    4  A    between atoms: C_16  and  C_22
REMARK    5  A    between atoms: C_19  and  C_21
REMARK    6  A    between atoms: C_25  and  O_28
REMARK    7  A    between atoms: O_28  and  C_29
REMARK    8  A    between atoms: C_29  and  C_30
REMARK                            x       y       z     vdW  Elec       q    Type
REMARK                         _______ _______ _______ _____ _____    ______ ____
ROOT
ATOM      1  N   UNL     1       0.243  -4.019  -0.298  0.00  0.00    -0.206 N 
ATOM      2  C   UNL     1       0.029  -4.809   0.825  0.00  0.00    +0.141 C 
ATOM      3  N   UNL     1      -0.096  -4.279   2.016  0.00  0.00    -0.163 NA
ATOM      4  C   UNL     1      -0.297  -4.705   3.207  0.00  0.00    +0.251 C 
ATOM      5  O   UNL     1      -0.412  -3.838   4.052  0.00  0.00    -0.272 OA
ATOM      6  C   UNL     1      -0.413  -6.089   3.712  0.00  0.00    +0.132 C 
ATOM      7  S   UNL     1      -1.290  -7.182   2.585  0.00  0.00    -0.135 S 
ATOM      8  C   UNL     1      -0.207  -7.401   1.168  0.00  0.00    +0.112 C 
ATOM      9  C   UNL     1      -0.014  -6.138   0.384  0.00  0.00    +0.027 C 
ATOM     10  C   UNL     1       0.160  -6.144  -0.969  0.00  0.00    +0.027 C 
ATOM     11  N   UNL     1       0.310  -4.866  -1.406  0.00  0.00    -0.262 N 
ATOM     12  C   UNL     1       0.176  -7.372  -1.842  0.00  0.00    +0.062 C 
ATOM     13  C   UNL     1       0.992  -6.648   3.941  0.00  0.00    +0.029 C 
ATOM     14  H   UNL     1       0.443  -4.591  -2.326  0.00  0.00    +0.170 HD
ENDROOT
BRANCH   1  19
ATOM     15  C   UNL     1       0.732   1.631  -0.369  0.00  0.00    +0.044 C 
ATOM     16  C   UNL     1       0.603   0.130  -0.350  0.00  0.00    -0.050 A 
ATOM     17  C   UNL     1      -0.237  -0.501  -1.250  0.00  0.00    +0.005 A 
ATOM     18  C   UNL     1      -0.359  -1.877  -1.235  0.00  0.00    +0.025 A 
ATOM     19  C   UNL     1       0.364  -2.627  -0.316  0.00  0.00    +0.055 A 
ATOM     20  C   UNL     1       1.207  -1.990   0.586  0.00  0.00    +0.025 A 
ATOM     21  C   UNL     1       1.328  -0.614   0.562  0.00  0.00    +0.005 A 
ENDBRANCH   1  19
BRANCH   8  22
ATOM     22  C   UNL     1      -0.799  -8.448   0.261  0.00  0.00    -0.030 A 
ATOM     23  C   UNL     1      -0.106  -9.619   0.015  0.00  0.00    +0.008 A 
ATOM     24  C   UNL     1      -0.646 -10.581  -0.817  0.00  0.00    +0.046 A 
ATOM     25  C   UNL     1      -1.885 -10.371  -1.404  0.00  0.00    +0.121 A 
ATOM     26  C   UNL     1      -2.579  -9.196  -1.155  0.00  0.00    +0.046 A 
ATOM     27  C   UNL     1      -2.037  -8.239  -0.319  0.00  0.00    +0.008 A 
BRANCH  25  28
ATOM     28  O   UNL     1      -2.419 -11.316  -2.223  0.00  0.00    -0.483 OA
BRANCH  28  29
ATOM     29  C   UNL     1      -3.698 -11.033  -2.793  0.00  0.00    +0.324 C 
BRANCH  29  30
ATOM     30  C   UNL     1      -4.126 -12.185  -3.665  0.00  0.00    +0.248 C 
ATOM     31  O   UNL     1      -3.406 -13.153  -3.787  0.00  0.00    -0.272 OA
ATOM     32  N   UNL     1      -5.308 -12.139  -4.311  0.00  0.00    -0.327 N 
ATOM     33  H   UNL     1      -5.884 -11.364  -4.214  0.00  0.00    +0.145 HD
ATOM     34  H   UNL     1      -5.583 -12.881  -4.872  0.00  0.00    +0.145 HD
ENDBRANCH  29  30
ENDBRANCH  28  29
ENDBRANCH  25  28
ENDBRANCH   8  22
TORSDOF 5
