REMARK  Name = ZINC50654556
REMARK  6 active torsions:
REMARK  status: ('A' for Active; 'I' for Inactive)
REMARK    1  A    between atoms: C_1  and  C_2
REMARK    2  A    between atoms: C_2  and  C_4
REMARK    3  A    between atoms: C_2  and  N_9
REMARK    4  A    between atoms: N_9  and  S_10
REMARK    5  A    between atoms: S_10  and  C_13
REMARK    6  A    between atoms: C_14  and  N_21
REMARK                            x       y       z     vdW  Elec       q    Type
REMARK                         _______ _______ _______ _____ _____    ______ ____
ROOT
ATOM      1  S   UNL     1      -0.188  -0.875  -2.551  0.00  0.00    +0.078 S 
ATOM      2  O   UNL     1       0.751  -1.265  -3.545  0.00  0.00    -0.151 OA
ATOM      3  O   UNL     1      -1.236  -1.730  -2.117  0.00  0.00    -0.151 OA
ENDROOT
BRANCH   1   4
ATOM      4  C   UNL     1      -0.951   0.603  -3.133  0.00  0.00    +0.220 A 
ATOM      5  C   UNL     1      -2.162   1.072  -2.768  0.00  0.00    +0.163 A 
ATOM      6  N   UNL     1      -2.386   2.220  -3.428  0.00  0.00    -0.205 NA
ATOM      7  C   UNL     1      -1.360   2.481  -4.188  0.00  0.00    +0.181 A 
ATOM      8  N   UNL     1      -0.408   1.506  -4.051  0.00  0.00    -0.276 N 
ATOM      9  C   UNL     1       0.744   1.650  -4.794  0.00  0.00    +0.102 A 
ATOM     10  C   UNL     1       0.909   2.697  -5.600  0.00  0.00    +0.067 A 
ATOM     11  S   UNL     1      -0.621   3.588  -5.366  0.00  0.00    -0.058 S 
BRANCH   5  12
ATOM     12  N   UNL     1      -3.037   0.464  -1.854  0.00  0.00    -0.340 N 
ATOM     13  H   UNL     1      -2.788  -0.369  -1.425  0.00  0.00    +0.144 HD
ATOM     14  H   UNL     1      -3.891   0.876  -1.653  0.00  0.00    +0.144 HD
ENDBRANCH   5  12
ENDBRANCH   1   4
BRANCH   1  15
ATOM     15  N   UNL     1       0.688  -0.476  -1.203  0.00  0.00    -0.181 NA
ATOM     16  H   UNL     1       1.655  -0.556  -1.212  0.00  0.00    +0.149 HD
BRANCH  15  18
ATOM     17  C   UNL     1      -0.019   1.526   0.010  0.00  0.00    +0.031 C 
ATOM     18  C   UNL     1       0.002  -0.004   0.002  0.00  0.00    +0.110 C 
BRANCH  18  19
ATOM     19  C   UNL     1       0.731  -0.503   1.223  0.00  0.00    +0.008 A 
ATOM     20  C   UNL     1       0.222  -0.979   2.386  0.00  0.00    +0.013 A 
ATOM     21  C   UNL     1       1.091  -1.386   3.381  0.00  0.00    +0.008 A 
ATOM     22  C   UNL     1       2.426  -1.298   3.164  0.00  0.00    +0.045 A 
ATOM     23  S   UNL     1       2.489  -0.629   1.510  0.00  0.00    -0.100 S 
ENDBRANCH  18  19
ENDBRANCH  15  18
ENDBRANCH   1  15
TORSDOF 5
