REMARK  Name = ZINC35577258
REMARK  6 active torsions:
REMARK  status: ('A' for Active; 'I' for Inactive)
REMARK    1  A    between atoms: C_1  and  C_2
REMARK    2  A    between atoms: C_2  and  C_3
REMARK    3  A    between atoms: C_2  and  N_4
REMARK    4  A    between atoms: C_7  and  C_16
REMARK    5  A    between atoms: C_9  and  N_15
REMARK    6  A    between atoms: N_10  and  C_14
REMARK                            x       y       z     vdW  Elec       q    Type
REMARK                         _______ _______ _______ _____ _____    ______ ____
ROOT
ATOM      1  N   UNL     1      -1.072  -1.255   1.028  0.00  0.00    -0.311 N 
ATOM      2  C   UNL     1      -1.441  -2.277   0.172  0.00  0.00    +0.218 A 
ATOM      3  N   UNL     1      -2.672  -2.770   0.275  0.00  0.00    -0.214 NA
ATOM      4  C   UNL     1      -3.108  -3.750  -0.506  0.00  0.00    +0.089 A 
ATOM      5  C   UNL     1      -2.224  -4.278  -1.474  0.00  0.00    +0.086 A 
ATOM      6  C   UNL     1      -2.289  -5.269  -2.446  0.00  0.00    +0.126 A 
ATOM      7  N   UNL     1      -1.097  -5.306  -3.067  0.00  0.00    -0.251 N 
ATOM      8  N   UNL     1      -0.241  -4.347  -2.513  0.00  0.00    -0.149 NA
ATOM      9  C   UNL     1      -0.869  -3.704  -1.554  0.00  0.00    +0.188 A 
ATOM     10  N   UNL     1      -0.556  -2.706  -0.704  0.00  0.00    -0.193 NA
ATOM     11  C   UNL     1      -0.746  -6.216  -4.160  0.00  0.00    +0.174 C 
ATOM     12  H   UNL     1      -1.703  -0.920   1.683  0.00  0.00    +0.149 HD
ENDROOT
BRANCH   4  13
ATOM     13  C   UNL     1      -4.484  -4.277  -0.367  0.00  0.00    +0.001 A 
ATOM     14  C   UNL     1      -4.709  -5.654  -0.354  0.00  0.00    +0.011 A 
ATOM     15  C   UNL     1      -5.994  -6.139  -0.224  0.00  0.00    +0.020 A 
ATOM     16  C   UNL     1      -7.059  -5.262  -0.105  0.00  0.00    +0.041 A 
ATOM     17  C   UNL     1      -6.842  -3.895  -0.117  0.00  0.00    +0.020 A 
ATOM     18  C   UNL     1      -5.561  -3.398  -0.241  0.00  0.00    +0.011 A 
ATOM     19 CL   UNL     1      -8.673  -5.880   0.060  0.00  0.00    -0.084 Cl
ENDBRANCH   4  13
BRANCH   1  21
ATOM     20  C   UNL     1       0.251   0.749   1.489  0.00  0.00    +0.027 C 
ATOM     21  C   UNL     1       0.273  -0.680   0.945  0.00  0.00    +0.067 C 
ATOM     22  C   UNL     1       1.242  -1.526   1.773  0.00  0.00    +0.027 C 
ENDBRANCH   1  21
BRANCH   6  23
ATOM     23  N   UNL     1      -3.381  -6.070  -2.725  0.00  0.00    -0.343 N 
ATOM     24  H   UNL     1      -4.265  -5.806  -2.426  0.00  0.00    +0.144 HD
ATOM     25  H   UNL     1      -3.263  -6.896  -3.220  0.00  0.00    +0.144 HD
ENDBRANCH   6  23
TORSDOF 3
