REMARK  Name = ZINC35683982
REMARK  6 active torsions:
REMARK  status: ('A' for Active; 'I' for Inactive)
REMARK    1  A    between atoms: C_1  and  O_2
REMARK    2  A    between atoms: O_2  and  C_3
REMARK    3  A    between atoms: C_5  and  C_12
REMARK    4  A    between atoms: C_7  and  O_10
REMARK    5  A    between atoms: O_10  and  C_11
REMARK    6  A    between atoms: N_14  and  N_15
REMARK                            x       y       z     vdW  Elec       q    Type
REMARK                         _______ _______ _______ _____ _____    ______ ____
ROOT
ATOM      1  C   UNL     1       0.626  -0.619   1.042  0.00  0.00    +0.138 A 
ATOM      2  C   UNL     1       1.201   0.139   2.048  0.00  0.00    +0.060 A 
ATOM      3  C   UNL     1       1.841  -0.493   3.115  0.00  0.00    +0.045 A 
ATOM      4  C   UNL     1       1.899  -1.886   3.163  0.00  0.00    +0.060 A 
ATOM      5  C   UNL     1       1.322  -2.637   2.152  0.00  0.00    +0.138 A 
ATOM      6  C   UNL     1       0.681  -2.005   1.096  0.00  0.00    +0.101 A 
ATOM      7 BR   UNL     1      -0.113  -3.034  -0.278  0.00  0.00    -0.043 Br
ENDROOT
BRANCH   3   8
ATOM      8  C   UNL     1       2.456   0.312   4.192  0.00  0.00    +0.258 C 
ATOM      9  O   UNL     1       2.405   1.526   4.148  0.00  0.00    -0.269 OA
ATOM     10  N   UNL     1       3.074  -0.300   5.221  0.00  0.00    -0.250 N 
ATOM     11  H   UNL     1       3.115  -1.269   5.256  0.00  0.00    +0.169 HD
BRANCH  10  12
ATOM     12  N   UNL     1       3.643   0.444   6.216  0.00  0.00    -0.254 NA
ATOM     13  H   UNL     1       2.967   1.067   6.632  0.00  0.00    +0.140 HD
ATOM     14  H   UNL     1       4.065  -0.149   6.915  0.00  0.00    +0.140 HD
ENDBRANCH  10  12
ENDBRANCH   3   8
BRANCH   1  16
ATOM     15  C   UNL     1      -0.017   1.425   0.010  0.00  0.00    +0.277 C 
ATOM     16  O   UNL     1       0.002  -0.004   0.002  0.00  0.00    -0.494 OA
ENDBRANCH   1  16
BRANCH   5  17
ATOM     17  O   UNL     1       1.378  -3.994   2.198  0.00  0.00    -0.494 OA
ATOM     18  C   UNL     1       2.048  -4.578   3.317  0.00  0.00    +0.277 C 
ENDBRANCH   5  17
TORSDOF 4
