REMARK  Name = ZINC21355755
REMARK  4 active torsions:
REMARK  status: ('A' for Active; 'I' for Inactive)
REMARK    1  A    between atoms: C_8  and  N_10
REMARK    2  A    between atoms: C_11  and  C_13
REMARK    3  A    between atoms: C_13  and  N_14
REMARK    4  A    between atoms: C_24  and  C_26
REMARK                            x       y       z     vdW  Elec       q    Type
REMARK                         _______ _______ _______ _____ _____    ______ ____
ROOT
ATOM      1  N   UNL     1      -0.723   1.572  -1.182  0.00  0.00    -0.306 N 
ATOM      2  C   UNL     1      -0.644   2.960  -1.278  0.00  0.00    +0.052 A 
ATOM      3  C   UNL     1       0.394   3.673  -0.690  0.00  0.00    +0.025 A 
ATOM      4  C   UNL     1       0.383   5.056  -0.793  0.00  0.00    +0.002 A 
ATOM      5  C   UNL     1      -0.640   5.702  -1.463  0.00  0.00    +0.002 A 
ATOM      6  C   UNL     1      -1.661   4.975  -2.056  0.00  0.00    +0.025 A 
ATOM      7  C   UNL     1      -1.624   3.589  -1.958  0.00  0.00    +0.052 A 
ATOM      8  N   UNL     1      -2.582   2.786  -2.585  0.00  0.00    -0.316 N 
ATOM      9  C   UNL     1      -2.231   2.026  -3.658  0.00  0.00    +0.017 C 
ATOM     10  C   UNL     1      -1.195   1.150  -3.574  0.00  0.00    +0.040 C 
ATOM     11  C   UNL     1      -0.325   0.835  -2.362  0.00  0.00    +0.175 C 
ATOM     12  C   UNL     1      -0.842   0.403  -4.722  0.00  0.00    +0.163 C 
ATOM     13  O   UNL     1       0.082  -0.384  -4.644  0.00  0.00    -0.292 OA
ATOM     14  C   UNL     1      -1.559   0.539  -6.030  0.00  0.00    +0.080 C 
ATOM     15  C   UNL     1      -2.136   1.954  -6.142  0.00  0.00    +0.014 C 
ATOM     16  C   UNL     1      -3.033   2.189  -4.925  0.00  0.00    +0.051 C 
ATOM     17  H   UNL     1      -3.616   2.771  -2.211  0.00  0.00    +0.152 HD
ENDROOT
BRANCH  11  18
ATOM     18  C   UNL     1      -0.416  -0.641  -2.068  0.00  0.00    +0.130 A 
ATOM     19  C   UNL     1       0.462  -1.578  -2.467  0.00  0.00    +0.047 A 
ATOM     20  C   UNL     1      -0.009  -2.817  -1.973  0.00  0.00    +0.041 A 
ATOM     21  C   UNL     1      -1.146  -2.562  -1.302  0.00  0.00    +0.195 A 
ATOM     22  O   UNL     1      -1.385  -1.241  -1.357  0.00  0.00    -0.466 OA
ENDBRANCH  11  18
BRANCH   1  23
ATOM     23  C   UNL     1      -0.013   1.086   0.008  0.00  0.00    +0.201 C 
BRANCH  23  25
ATOM     24  N   UNL     1      -0.242   1.246   2.466  0.00  0.00    -0.311 N 
ATOM     25  C   UNL     1      -0.718   1.572   1.248  0.00  0.00    +0.231 C 
ATOM     26  O   UNL     1      -1.714   2.256   1.150  0.00  0.00    -0.274 OA
ATOM     27  H   UNL     1       0.662   0.625   2.555  0.00  0.00    +0.149 HD
BRANCH  24  35
ATOM     28  C   UNL     1      -0.562   2.414   8.361  0.00  0.00    +0.000 A 
ATOM     29  C   UNL     1      -0.385   3.722   7.949  0.00  0.00    +0.000 A 
ATOM     30  C   UNL     1      -0.301   4.015   6.602  0.00  0.00    +0.004 A 
ATOM     31  C   UNL     1      -0.394   3.003   5.662  0.00  0.00    -0.042 A 
ATOM     32  C   UNL     1      -0.571   1.695   6.073  0.00  0.00    -0.042 A 
ATOM     33  C   UNL     1      -0.655   1.403   7.424  0.00  0.00    +0.004 A 
ATOM     34  C   UNL     1      -0.642   0.784   4.866  0.00  0.00    +0.058 C 
ATOM     35  C   UNL     1      -0.927   1.718   3.671  0.00  0.00    +0.082 C 
ATOM     36  C   UNL     1      -0.333   3.060   4.150  0.00  0.00    +0.058 C 
ENDBRANCH  24  35
ENDBRANCH  23  25
ENDBRANCH   1  23
TORSDOF 4
