REMARK  Name = ZINC37057106
REMARK  5 active torsions:
REMARK  status: ('A' for Active; 'I' for Inactive)
REMARK    1  A    between atoms: C_1  and  C_2
REMARK    2  A    between atoms: C_7  and  N_8
REMARK    3  A    between atoms: N_8  and  C_9
REMARK    4  A    between atoms: C_9  and  C_11
REMARK    5  A    between atoms: C_9  and  C_12
REMARK                            x       y       z     vdW  Elec       q    Type
REMARK                         _______ _______ _______ _____ _____    ______ ____
ROOT
ATOM      1  C   UNL     1       0.047  -0.757   3.679  0.00  0.00    +0.098 C 
ATOM      2  C   UNL     1      -1.381  -1.143   4.068  0.00  0.00    +0.033 C 
ENDROOT
BRANCH   1   3
ATOM      3  C   UNL     1       0.646   0.107   4.758  0.00  0.00    -0.026 A 
ATOM      4  C   UNL     1       0.329   1.453   4.819  0.00  0.00    +0.007 A 
ATOM      5  C   UNL     1       0.873   2.253   5.804  0.00  0.00    +0.028 A 
ATOM      6  C   UNL     1       1.740   1.706   6.737  0.00  0.00    +0.067 A 
ATOM      7  C   UNL     1       2.061   0.348   6.676  0.00  0.00    +0.067 A 
ATOM      8  C   UNL     1       1.505  -0.448   5.686  0.00  0.00    +0.033 A 
ATOM      9  N   UNL     1       2.939   0.094   7.726  0.00  0.00    -0.306 N 
ATOM     10  H   UNL     1       3.336  -0.765   7.939  0.00  0.00    +0.170 HD
ATOM     11  C   UNL     1       3.144   1.244   8.396  0.00  0.00    +0.325 A 
ATOM     12  O   UNL     1       3.861   1.370   9.370  0.00  0.00    -0.247 OA
ATOM     13  N   UNL     1       2.434   2.235   7.823  0.00  0.00    -0.306 N 
ATOM     14  H   UNL     1       2.410   3.159   8.116  0.00  0.00    +0.170 HD
ENDBRANCH   1   3
BRANCH   1  15
ATOM     15  N   UNL     1       0.025  -0.016   2.415  0.00  0.00    -0.337 N 
ATOM     16  H   UNL     1       0.012   0.954   2.422  0.00  0.00    +0.147 HD
BRANCH  15  23
ATOM     17  C   UNL     1      -0.018   1.503   0.010  0.00  0.00    +0.045 C 
ATOM     18  C   UNL     1       0.002  -0.004   0.002  0.00  0.00    -0.029 A 
ATOM     19  C   UNL     1       0.006  -0.689  -1.198  0.00  0.00    +0.019 A 
ATOM     20  C   UNL     1       0.024  -2.072  -1.206  0.00  0.00    +0.014 A 
ATOM     21  C   UNL     1       0.039  -2.774  -0.014  0.00  0.00    +0.016 A 
ATOM     22  C   UNL     1       0.035  -2.095   1.189  0.00  0.00    +0.024 A 
ATOM     23  C   UNL     1       0.023  -0.706   1.200  0.00  0.00    +0.031 A 
ATOM     24  I   UNL     1       0.030  -3.106  -3.028  0.00  0.00    -0.044 I 
ENDBRANCH  15  23
ENDBRANCH   1  15
TORSDOF 3
