REMARK  Name = ZINC63777708
REMARK  5 active torsions:
REMARK  status: ('A' for Active; 'I' for Inactive)
REMARK    1  A    between atoms: C_6  and  S_10
REMARK    2  A    between atoms: S_10  and  C_11
REMARK    3  A    between atoms: C_11  and  C_12
REMARK    4  A    between atoms: N_14  and  C_15
REMARK    5  A    between atoms: C_18  and  C_21
REMARK                            x       y       z     vdW  Elec       q    Type
REMARK                         _______ _______ _______ _____ _____    ______ ____
ROOT
ATOM      1  C   UNL     1       3.395  -2.604   4.122  0.00  0.00    +0.225 C 
ATOM      2  O   UNL     1       4.085  -3.602   4.121  0.00  0.00    -0.275 OA
ATOM      3  N   UNL     1       3.003  -2.057   5.289  0.00  0.00    -0.285 N 
ATOM      4  H   UNL     1       2.452  -1.259   5.290  0.00  0.00    +0.152 HD
ENDROOT
BRANCH   3   5
ATOM      5  C   UNL     1       3.409  -2.668   6.557  0.00  0.00    +0.251 C 
ATOM      6  N   UNL     1       3.112  -1.778   7.697  0.00  0.00    -0.254 NA
ATOM      7  C   UNL     1       2.524  -2.232   8.728  0.00  0.00    +0.057 C 
ATOM      8  C   UNL     1       2.138  -3.704   8.754  0.00  0.00    +0.128 C 
ATOM      9  S   UNL     1       2.348  -4.123   6.966  0.00  0.00    -0.109 S 
BRANCH   7  10
ATOM     10  C   UNL     1       2.224  -1.353   9.874  0.00  0.00    +0.015 A 
ATOM     11  C   UNL     1       1.583  -1.867  11.004  0.00  0.00    +0.012 A 
ATOM     12  C   UNL     1       1.305  -1.040  12.071  0.00  0.00    +0.021 A 
ATOM     13  C   UNL     1       1.660   0.298  12.027  0.00  0.00    +0.042 A 
ATOM     14  C   UNL     1       2.295   0.816  10.911  0.00  0.00    +0.040 A 
ATOM     15  C   UNL     1       2.584  -0.003   9.837  0.00  0.00    +0.051 A 
ATOM     16 CL   UNL     1       3.387   0.645   8.440  0.00  0.00    -0.083 Cl
ATOM     17 CL   UNL     1       1.306   1.332  13.376  0.00  0.00    -0.083 Cl
ENDBRANCH   7  10
ENDBRANCH   3   5
BRANCH   1  18
ATOM     18  C   UNL     1       2.977  -1.976   2.817  0.00  0.00    +0.168 C 
BRANCH  18  19
ATOM     19  S   UNL     1       3.658  -2.937   1.437  0.00  0.00    -0.106 S 
BRANCH  19  25
ATOM     20  C   UNL     1      -0.016   1.344   0.009  0.00  0.00    +0.002 A 
ATOM     21  C   UNL     1       1.158   2.118   0.002  0.00  0.00    +0.002 A 
ATOM     22  C   UNL     1       2.389   1.570  -0.013  0.00  0.00    +0.027 A 
ATOM     23  C   UNL     1       2.533   0.108  -0.022  0.00  0.00    +0.061 A 
ATOM     24  N   UNL     1       3.569  -0.680  -0.036  0.00  0.00    -0.355 N 
ATOM     25  C   UNL     1       3.071  -2.062  -0.039  0.00  0.00    +0.236 C 
ATOM     26  N   UNL     1       1.606  -1.974  -0.024  0.00  0.00    -0.355 N 
ATOM     27  C   UNL     1       1.290  -0.712  -0.014  0.00  0.00    +0.061 A 
ATOM     28  C   UNL     1       0.002  -0.004   0.002  0.00  0.00    +0.027 A 
ATOM     29  H   UNL     1       4.499  -0.405  -0.045  0.00  0.00    +0.162 HD
ATOM     30  H   UNL     1       0.987  -2.721  -0.022  0.00  0.00    +0.162 HD
ENDBRANCH  19  25
ENDBRANCH  18  19
ENDBRANCH   1  18
TORSDOF 5
