REMARK  Name = ZINC49534578
REMARK  6 active torsions:
REMARK  status: ('A' for Active; 'I' for Inactive)
REMARK    1  A    between atoms: C_1  and  C_2
REMARK    2  A    between atoms: C_5  and  C_7
REMARK    3  A    between atoms: C_7  and  N_8
REMARK    4  A    between atoms: C_9  and  C_19
REMARK    5  A    between atoms: C_10  and  C_18
REMARK    6  A    between atoms: C_16  and  N_17
REMARK                            x       y       z     vdW  Elec       q    Type
REMARK                         _______ _______ _______ _____ _____    ______ ____
ROOT
ATOM      1  N   UNL     1      -1.320  -3.281   2.671  0.00  0.00    -0.323 N 
ATOM      2  C   UNL     1      -2.069  -2.579   3.579  0.00  0.00    +0.022 A 
ATOM      3  C   UNL     1      -3.282  -3.142   3.702  0.00  0.00    -0.017 A 
ATOM      4  C   UNL     1      -3.307  -4.292   2.800  0.00  0.00    +0.062 A 
ATOM      5  C   UNL     1      -2.047  -4.327   2.174  0.00  0.00    +0.147 A 
ATOM      6  N   UNL     1      -1.804  -5.291   1.286  0.00  0.00    -0.218 NA
ATOM      7  C   UNL     1      -2.723  -6.188   1.000  0.00  0.00    +0.225 A 
ATOM      8  N   UNL     1      -3.918  -6.189   1.562  0.00  0.00    -0.220 NA
ATOM      9  C   UNL     1      -4.253  -5.273   2.466  0.00  0.00    +0.129 A 
ATOM     10  C   UNL     1      -4.402  -2.677   4.596  0.00  0.00    +0.046 C 
ATOM     11  C   UNL     1      -1.600  -1.358   4.329  0.00  0.00    +0.064 C 
ENDROOT
BRANCH   9  12
ATOM     12  N   UNL     1      -5.506  -5.278   3.050  0.00  0.00    -0.343 N 
ATOM     13  H   UNL     1      -5.741  -4.597   3.701  0.00  0.00    +0.144 HD
ATOM     14  H   UNL     1      -6.151  -5.962   2.810  0.00  0.00    +0.144 HD
ENDBRANCH   9  12
BRANCH   1  15
ATOM     15  C   UNL     1       0.055  -2.955   2.284  0.00  0.00    +0.186 C 
BRANCH  15  20
ATOM     16  C   UNL     1      -0.018   1.503   0.010  0.00  0.00    +0.066 C 
ATOM     17  C   UNL     1       0.002  -0.004   0.002  0.00  0.00    +0.046 A 
ATOM     18  C   UNL     1       0.006  -0.708  -1.159  0.00  0.00    +0.070 A 
ATOM     19  S   UNL     1       0.032  -2.379  -0.531  0.00  0.00    -0.079 S 
ATOM     20  C   UNL     1       0.036  -2.009   1.111  0.00  0.00    +0.098 A 
ATOM     21  N   UNL     1       0.023  -0.699   1.122  0.00  0.00    -0.247 NA
ENDBRANCH  15  20
ENDBRANCH   1  15
TORSDOF 3
