REMARK  Name = ZINC03875997
REMARK  6 active torsions:
REMARK  status: ('A' for Active; 'I' for Inactive)
REMARK    1  A    between atoms: C_1  and  C_2
REMARK    2  A    between atoms: C_17  and  C_28
REMARK    3  A    between atoms: C_22  and  C_23
REMARK    4  A    between atoms: C_22  and  O_27
REMARK    5  A    between atoms: C_23  and  C_25
REMARK    6  A    between atoms: C_25  and  O_26
REMARK                            x       y       z     vdW  Elec       q    Type
REMARK                         _______ _______ _______ _____ _____    ______ ____
ROOT
ATOM      1  C   UNL     1      -0.019   1.523   0.010  0.00  0.00    +0.016 C 
ATOM      2  C   UNL     1       0.002  -0.004   0.002  0.00  0.00    -0.007 C 
ATOM      3  C   UNL     1      -1.456  -0.469   0.030  0.00  0.00    +0.019 C 
ATOM      4  C   UNL     1      -2.127  -0.170   1.364  0.00  0.00    +0.080 C 
ATOM      5  C   UNL     1      -1.329  -0.823   2.472  0.00  0.00    +0.156 C 
ATOM      6  O   UNL     1      -1.883  -1.325   3.433  0.00  0.00    -0.293 OA
ATOM      7  C   UNL     1       0.130  -0.829   2.353  0.00  0.00    +0.046 C 
ATOM      8  C   UNL     1       0.736  -0.443   1.234  0.00  0.00    -0.060 C 
ATOM      9  C   UNL     1       2.254  -0.442   1.216  0.00  0.00    +0.032 C 
ATOM     10  C   UNL     1       2.690  -1.285   0.018  0.00  0.00    +0.008 C 
ATOM     11  C   UNL     1       2.150  -0.671  -1.270  0.00  0.00    -0.003 C 
ATOM     12  C   UNL     1       0.636  -0.543  -1.271  0.00  0.00    +0.002 C 
ATOM     13  C   UNL     1       0.100   0.154  -2.515  0.00  0.00    +0.005 C 
ATOM     14  C   UNL     1       0.868   1.405  -2.947  0.00  0.00    +0.010 C 
ATOM     15  C   UNL     1       2.350   1.125  -2.984  0.00  0.00    +0.007 C 
ATOM     16  C   UNL     1       2.797   0.652  -1.580  0.00  0.00    +0.002 C 
ATOM     17  C   UNL     1       4.326   0.646  -1.720  0.00  0.00    +0.008 C 
ATOM     18  C   UNL     1       4.609   1.935  -2.537  0.00  0.00    +0.043 C 
ATOM     19  C   UNL     1       3.285   2.306  -3.253  0.00  0.00    +0.131 C 
ATOM     20  C   UNL     1       2.639   0.062  -4.051  0.00  0.00    +0.015 C 
ENDROOT
BRANCH  19  21
ATOM     21  C   UNL     1       2.739   3.591  -2.698  0.00  0.00    +0.190 C 
ATOM     22  O   UNL     1       2.037   3.575  -1.716  0.00  0.00    -0.292 OA
BRANCH  21  23
ATOM     23  C   UNL     1       3.068   4.901  -3.367  0.00  0.00    +0.233 C 
BRANCH  23  24
ATOM     24  O   UNL     1       2.437   5.970  -2.658  0.00  0.00    -0.387 OA
ATOM     25  H   UNL     1       2.606   6.845  -3.034  0.00  0.00    +0.210 HD
ENDBRANCH  23  24
ENDBRANCH  21  23
ENDBRANCH  19  21
BRANCH  19  26
ATOM     26  O   UNL     1       3.510   2.432  -4.660  0.00  0.00    -0.380 OA
ATOM     27  H   UNL     1       4.096   3.162  -4.901  0.00  0.00    +0.211 HD
ENDBRANCH  19  26
TORSDOF 4
