REMARK  Name = ZINC13027506
REMARK  8 active torsions:
REMARK  status: ('A' for Active; 'I' for Inactive)
REMARK    1  A    between atoms: C_1  and  C_2
REMARK    2  A    between atoms: C_5  and  C_25
REMARK    3  A    between atoms: C_7  and  S_8
REMARK    4  A    between atoms: S_8  and  N_11
REMARK    5  A    between atoms: N_11  and  N_12
REMARK    6  A    between atoms: C_13  and  C_15
REMARK    7  A    between atoms: C_15  and  O_16
REMARK    8  A    between atoms: O_16  and  C_17
REMARK                            x       y       z     vdW  Elec       q    Type
REMARK                         _______ _______ _______ _____ _____    ______ ____
ROOT
ATOM      1  N   UNL     1       5.315  -2.766  -0.127  0.00  0.00    -0.108 NA
ATOM      2  H   UNL     1       5.983  -2.517  -0.784  0.00  0.00    +0.172 HD
ENDROOT
BRANCH   1   3
ATOM      3  N   UNL     1       3.989  -2.339  -0.280  0.00  0.00    -0.229 N 
ATOM      4  C   UNL     1       3.716  -1.026  -0.416  0.00  0.00    +0.265 C 
ATOM      5  O   UNL     1       4.617  -0.215  -0.406  0.00  0.00    -0.271 OA
ATOM      6  H   UNL     1       3.268  -2.988  -0.288  0.00  0.00    +0.171 HD
BRANCH   4   7
ATOM      7  C   UNL     1       2.290  -0.567  -0.580  0.00  0.00    +0.326 C 
BRANCH   7   8
ATOM      8  O   UNL     1       2.260   0.857  -0.705  0.00  0.00    -0.481 OA
BRANCH   8   9
ATOM      9  C   UNL     1       1.040   1.436  -0.861  0.00  0.00    +0.140 A 
ATOM     10  C   UNL     1      -0.103   0.652  -0.894  0.00  0.00    +0.048 A 
ATOM     11  C   UNL     1      -1.341   1.242  -1.060  0.00  0.00    +0.023 A 
ATOM     12  C   UNL     1      -1.443   2.617  -1.181  0.00  0.00    +0.043 A 
ATOM     13  C   UNL     1      -0.304   3.402  -1.148  0.00  0.00    +0.043 A 
ATOM     14  C   UNL     1       0.937   2.815  -0.988  0.00  0.00    +0.084 A 
ATOM     15 CL   UNL     1       2.366   3.800  -0.948  0.00  0.00    -0.080 Cl
ATOM     16 CL   UNL     1      -3.001   3.356  -1.382  0.00  0.00    -0.083 Cl
ENDBRANCH   8   9
ENDBRANCH   7   8
ENDBRANCH   4   7
ENDBRANCH   1   3
BRANCH   1  17
ATOM     17  S   UNL     1       5.740  -3.696   1.175  0.00  0.00    +0.074 S 
ATOM     18  O   UNL     1       7.088  -4.093   0.968  0.00  0.00    -0.152 OA
ATOM     19  O   UNL     1       5.324  -2.987   2.334  0.00  0.00    -0.152 OA
BRANCH  17  26
ATOM     20  C   UNL     1       5.963  -5.777  -1.003  0.00  0.00    +0.046 C 
ATOM     21  C   UNL     1       4.941  -6.060   0.068  0.00  0.00    -0.024 A 
ATOM     22  C   UNL     1       4.180  -7.214   0.007  0.00  0.00    +0.006 A 
ATOM     23  C   UNL     1       3.243  -7.479   0.983  0.00  0.00    +0.015 A 
ATOM     24  C   UNL     1       3.063  -6.580   2.036  0.00  0.00    +0.065 A 
ATOM     25  C   UNL     1       3.837  -5.419   2.094  0.00  0.00    +0.044 A 
ATOM     26  C   UNL     1       4.767  -5.164   1.107  0.00  0.00    +0.110 A 
BRANCH  24  27
ATOM     27  C   UNL     1       2.061  -6.857   3.086  0.00  0.00    +0.387 C 
ATOM     28  O   UNL     1       1.906  -6.072   4.000  0.00  0.00    -0.241 OA
ATOM     29  O   UNL     1       1.319  -7.980   3.029  0.00  0.00    -0.241 OA
ENDBRANCH  24  27
ENDBRANCH  17  26
ENDBRANCH   1  17
TORSDOF 7
