REMARK  Name = ZINC01661469
REMARK  4 active torsions:
REMARK  status: ('A' for Active; 'I' for Inactive)
REMARK    1  A    between atoms: C_10  and  C_13
REMARK    2  A    between atoms: C_13  and  C_14
REMARK    3  A    between atoms: N_16  and  N_17
REMARK    4  A    between atoms: N_17  and  C_18
REMARK                            x       y       z     vdW  Elec       q    Type
REMARK                         _______ _______ _______ _____ _____    ______ ____
ROOT
ATOM      1  C   UNL     1       1.808   2.952   2.359  0.00  0.00    +0.231 C 
ATOM      2  O   UNL     1       0.891   3.660   2.002  0.00  0.00    -0.274 OA
ATOM      3  N   UNL     1       2.185   2.939   3.653  0.00  0.00    -0.236 N 
ATOM      4  H   UNL     1       2.919   2.373   3.938  0.00  0.00    +0.173 HD
ENDROOT
BRANCH   3   5
ATOM      5  N   UNL     1       1.517   3.743   4.586  0.00  0.00    -0.262 N 
ATOM      6  H   UNL     1       0.839   4.369   4.288  0.00  0.00    +0.170 HD
BRANCH   5   7
ATOM      7  C   UNL     1       1.828   3.642   5.946  0.00  0.00    +0.081 A 
ATOM      8  C   UNL     1       1.816   4.776   6.749  0.00  0.00    +0.066 A 
ATOM      9  C   UNL     1       2.117   4.672   8.094  0.00  0.00    +0.042 A 
ATOM     10  C   UNL     1       2.442   3.442   8.638  0.00  0.00    +0.044 A 
ATOM     11  C   UNL     1       2.461   2.312   7.840  0.00  0.00    +0.042 A 
ATOM     12  C   UNL     1       2.154   2.408   6.496  0.00  0.00    +0.066 A 
ATOM     13 CL   UNL     1       2.177   0.990   5.495  0.00  0.00    -0.081 Cl
ATOM     14 CL   UNL     1       2.827   3.317  10.326  0.00  0.00    -0.083 Cl
ATOM     15 CL   UNL     1       1.415   6.320   6.065  0.00  0.00    -0.081 Cl
ENDBRANCH   5   7
ENDBRANCH   3   5
BRANCH   1  16
ATOM     16  C   UNL     1       2.527   2.088   1.356  0.00  0.00    +0.121 C 
BRANCH  16  26
ATOM     17  C   UNL     1       0.727  -2.805  -0.141  0.00  0.00    +0.002 A 
ATOM     18  C   UNL     1      -0.383  -2.262   0.482  0.00  0.00    +0.001 A 
ATOM     19  C   UNL     1      -0.548  -0.890   0.521  0.00  0.00    +0.016 A 
ATOM     20  C   UNL     1       0.398  -0.064  -0.062  0.00  0.00    +0.030 A 
ATOM     21  C   UNL     1       1.523  -0.603  -0.686  0.00  0.00    +0.047 A 
ATOM     22  C   UNL     1       1.674  -1.986  -0.722  0.00  0.00    +0.024 A 
ATOM     23  N   UNL     1       2.502   0.202  -1.260  0.00  0.00    -0.284 N 
ATOM     24  C   UNL     1       2.684   1.502  -1.051  0.00  0.00    +0.231 C 
ATOM     25  O   UNL     1       3.517   2.082  -1.716  0.00  0.00    -0.274 OA
ATOM     26  C   UNL     1       1.907   2.289  -0.029  0.00  0.00    +0.146 C 
ATOM     27  S   UNL     1       0.190   1.690  -0.023  0.00  0.00    -0.110 S 
ATOM     28  H   UNL     1       3.115  -0.230  -1.877  0.00  0.00    +0.155 HD
ENDBRANCH  16  26
ENDBRANCH   1  16
TORSDOF 4
