REMARK  Name = ZINC48915213
REMARK  7 active torsions:
REMARK  status: ('A' for Active; 'I' for Inactive)
REMARK    1  A    between atoms: C_1  and  C_2
REMARK    2  A    between atoms: C_2  and  C_3
REMARK    3  A    between atoms: C_7  and  C_23
REMARK    4  A    between atoms: C_12  and  C_19
REMARK    5  A    between atoms: C_13  and  C_18
REMARK    6  A    between atoms: C_15  and  C_17
REMARK    7  A    between atoms: N_20  and  O_21
REMARK                            x       y       z     vdW  Elec       q    Type
REMARK                         _______ _______ _______ _____ _____    ______ ____
ROOT
ATOM      1  C   UNL     1      -2.332  -1.539   1.358  0.00  0.00    +0.100 C 
ATOM      2  C   UNL     1      -1.371  -2.078   2.424  0.00  0.00    +0.182 C 
ATOM      3  O   UNL     1      -0.030  -1.740   2.063  0.00  0.00    -0.373 OA
ATOM      4  C   UNL     1       0.224  -0.334   2.006  0.00  0.00    +0.132 C 
ATOM      5  C   UNL     1      -0.655   0.294   0.918  0.00  0.00    +0.138 C 
ATOM      6  N   UNL     1      -2.051  -0.109   1.159  0.00  0.00    -0.308 N 
ATOM      7  C   UNL     1      -3.068   0.831   1.197  0.00  0.00    +0.110 A 
ATOM      8  C   UNL     1      -3.502   1.340   2.432  0.00  0.00    +0.059 A 
ATOM      9  C   UNL     1      -4.529   2.286   2.446  0.00  0.00    -0.035 A 
ATOM     10  C   UNL     1      -5.078   2.682   1.237  0.00  0.00    +0.025 A 
ATOM     11  C   UNL     1      -4.598   2.135   0.062  0.00  0.00    +0.015 A 
ATOM     12  N   UNL     1      -3.623   1.246   0.070  0.00  0.00    -0.346 N 
ATOM     13  C   UNL     1      -5.196   2.566  -1.252  0.00  0.00    +0.063 C 
ATOM     14  C   UNL     1      -5.029   2.862   3.746  0.00  0.00    +0.044 C 
ATOM     15  C   UNL     1       1.698  -0.095   1.674  0.00  0.00    +0.039 C 
ATOM     16  H   UNL     1      -3.307   0.885  -0.773  0.00  0.00    +0.167 HD
ENDROOT
BRANCH   8  17
ATOM     17  C   UNL     1      -2.882   0.883   3.693  0.00  0.00    +0.166 C 
ATOM     18  N   UNL     1      -1.805   1.464   4.137  0.00  0.00    -0.071 NA
ATOM     19  N   UNL     1      -3.446  -0.164   4.403  0.00  0.00    -0.340 N 
ATOM     20  H   UNL     1      -4.249  -0.597   4.072  0.00  0.00    +0.144 HD
ATOM     21  H   UNL     1      -3.040  -0.464   5.231  0.00  0.00    +0.144 HD
BRANCH  18  22
ATOM     22  O   UNL     1      -1.211   1.026   5.346  0.00  0.00    -0.408 OA
ATOM     23  H   UNL     1      -0.416   1.518   5.594  0.00  0.00    +0.328 HD
ENDBRANCH  18  22
ENDBRANCH   8  17
BRANCH   1  25
ATOM     24  C   UNL     1      -3.157  -1.834  -0.982  0.00  0.00    +0.006 C 
ATOM     25  C   UNL     1      -2.120  -2.294   0.044  0.00  0.00    +0.021 C 
ENDBRANCH   1  25
TORSDOF 3
