REMARK  Name = ZINC35457059
REMARK  13 active torsions:
REMARK  status: ('A' for Active; 'I' for Inactive)
REMARK    1  A    between atoms: C_1  and  C_2
REMARK    2  A    between atoms: C_5  and  O_31
REMARK    3  A    between atoms: C_9  and  C_30
REMARK    4  A    between atoms: C_11  and  O_29
REMARK    5  A    between atoms: C_13  and  C_25
REMARK    6  A    between atoms: C_15  and  C_19
REMARK    7  A    between atoms: C_15  and  C_20
REMARK    8  A    between atoms: C_20  and  C_21
REMARK    9  A    between atoms: C_21  and  C_22
REMARK   10  A    between atoms: C_25  and  C_26
REMARK   11  A    between atoms: C_25  and  C_27
REMARK   12  A    between atoms: C_25  and  O_28
REMARK   13  A    between atoms: O_31  and  C_32
REMARK                            x       y       z     vdW  Elec       q    Type
REMARK                         _______ _______ _______ _____ _____    ______ ____
ROOT
ATOM      1  C   UNL     1       0.977   2.964   1.101  0.00  0.00    +0.048 C 
ATOM      2  C   UNL     1       0.394   1.582   0.953  0.00  0.00    -0.001 A 
ATOM      3  C   UNL     1       0.062   1.113  -0.290  0.00  0.00    +0.014 A 
ATOM      4  C   UNL     1      -0.480  -0.170  -0.439  0.00  0.00    +0.108 A 
ATOM      5  C   UNL     1      -0.679  -0.967   0.696  0.00  0.00    +0.141 A 
ATOM      6  C   UNL     1      -0.341  -0.483   1.952  0.00  0.00    +0.037 A 
ATOM      7  C   UNL     1       0.202   0.784   2.084  0.00  0.00    +0.131 A 
ATOM      8  O   UNL     1       0.560   1.284   3.292  0.00  0.00    -0.485 OA
ATOM      9  C   UNL     1       0.030   0.660   4.464  0.00  0.00    +0.114 C 
ATOM     10  C   UNL     1       0.806   1.166   5.686  0.00  0.00    +0.079 C 
ATOM     11  C   UNL     1       2.297   0.887   5.485  0.00  0.00    +0.125 C 
ATOM     12  C   UNL     1       2.523  -0.618   5.329  0.00  0.00    +0.055 C 
ATOM     13  C   UNL     1       1.732  -1.134   4.124  0.00  0.00    -0.017 C 
ATOM     14  C   UNL     1       0.244  -0.854   4.341  0.00  0.00    +0.044 C 
ATOM     15  C   UNL     1      -0.575  -1.365   3.152  0.00  0.00    +0.050 C 
ATOM     16  C   UNL     1       2.207  -0.421   2.857  0.00  0.00    +0.012 C 
ATOM     17  C   UNL     1      -1.462   0.973   4.599  0.00  0.00    +0.056 C 
ATOM     18  C   UNL     1      -0.729  -0.385  -1.870  0.00  0.00    +0.343 C 
ATOM     19  O   UNL     1      -1.198  -1.398  -2.350  0.00  0.00    -0.245 OA
ATOM     20  O   UNL     1      -0.365   0.702  -2.572  0.00  0.00    -0.456 OA
ATOM     21  C   UNL     1       0.143   1.697  -1.679  0.00  0.00    +0.269 C 
ENDROOT
BRANCH  12  22
ATOM     22  C   UNL     1       4.013  -0.889   5.112  0.00  0.00    +0.066 C 
ATOM     23  C   UNL     1       4.578   0.129   4.118  0.00  0.00    +0.041 C 
ATOM     24  C   UNL     1       4.754  -0.765   6.445  0.00  0.00    +0.041 C 
BRANCH  22  25
ATOM     25  O   UNL     1       4.187  -2.208   4.592  0.00  0.00    -0.389 OA
ATOM     26  H   UNL     1       5.109  -2.449   4.429  0.00  0.00    +0.210 HD
ENDBRANCH  22  25
ENDBRANCH  12  22
BRANCH  11  27
ATOM     27  O   UNL     1       3.026   1.361   6.619  0.00  0.00    -0.391 OA
ATOM     28  H   UNL     1       2.932   2.310   6.778  0.00  0.00    +0.210 HD
ENDBRANCH  11  27
BRANCH   5  29
ATOM     29  O   UNL     1      -1.204  -2.211   0.567  0.00  0.00    -0.494 OA
ATOM     30  C   UNL     1      -0.283  -3.287   0.374  0.00  0.00    +0.277 C 
ENDBRANCH   5  29
BRANCH  13  31
ATOM     31  C   UNL     1       1.952  -2.641   3.977  0.00  0.00    +0.019 C 
BRANCH  31  32
ATOM     32  C   UNL     1       1.661  -3.332   5.311  0.00  0.00    +0.126 C 
BRANCH  32  33
ATOM     33  C   UNL     1       1.745  -4.826   5.131  0.00  0.00    +0.356 C 
ATOM     34  O   UNL     1       2.012  -5.295   4.038  0.00  0.00    -0.246 OA
ATOM     35  O   UNL     1       1.546  -5.566   6.079  0.00  0.00    -0.246 OA
ENDBRANCH  32  33
ENDBRANCH  31  32
ENDBRANCH  13  31
TORSDOF 7
