REMARK  Name = ZINC09307364
REMARK  4 active torsions:
REMARK  status: ('A' for Active; 'I' for Inactive)
REMARK    1  A    between atoms: C_1  and  C_2
REMARK    2  A    between atoms: C_4  and  C_34
REMARK    3  A    between atoms: N_20  and  C_23
REMARK    4  A    between atoms: C_28  and  C_29
REMARK                            x       y       z     vdW  Elec       q    Type
REMARK                         _______ _______ _______ _____ _____    ______ ____
ROOT
ATOM      1  C   UNL     1      -2.744  -3.878   1.035  0.00  0.00    +0.044 C 
ATOM      2  C   UNL     1      -1.373  -3.830   0.410  0.00  0.00    -0.050 A 
ATOM      3  C   UNL     1      -0.915  -4.900  -0.337  0.00  0.00    +0.008 A 
ATOM      4  C   UNL     1       0.339  -4.862  -0.911  0.00  0.00    -0.029 A 
ATOM      5  C   UNL     1       1.153  -3.744  -0.744  0.00  0.00    +0.039 A 
ATOM      6  C   UNL     1       0.680  -2.674   0.010  0.00  0.00    -0.027 A 
ATOM      7  C   UNL     1      -0.571  -2.716   0.583  0.00  0.00    +0.008 A 
ATOM      8  C   UNL     1       1.777  -1.646  -0.002  0.00  0.00    +0.053 C 
ATOM      9  C   UNL     1       2.284  -1.341   1.398  0.00  0.00    +0.089 C 
ATOM     10  C   UNL     1       2.599   0.180   1.384  0.00  0.00    +0.074 C 
ATOM     11  C   UNL     1       2.266   0.648  -0.045  0.00  0.00    -0.054 C 
ATOM     12  C   UNL     1       0.002  -0.004   0.002  0.00  0.00    -0.076 C 
ATOM     13  C   UNL     1      -0.019   1.538   0.011  0.00  0.00    -0.020 C 
ATOM     14  C   UNL     1       1.463   1.960  -0.001  0.00  0.00    -0.016 C 
ATOM     15  C   UNL     1       1.586   0.754   2.348  0.00  0.00    +0.228 C 
ATOM     16  O   UNL     1       1.477   1.927   2.634  0.00  0.00    -0.275 OA
ATOM     17  N   UNL     1       0.828  -0.234   2.837  0.00  0.00    -0.210 N 
ATOM     18  C   UNL     1       1.134  -1.451   2.373  0.00  0.00    +0.229 C 
ATOM     19  O   UNL     1       0.576  -2.481   2.685  0.00  0.00    -0.275 OA
ATOM     20  C   UNL     1       2.876  -2.258  -0.826  0.00  0.00    +0.212 C 
ATOM     21  O   UNL     1       3.950  -1.758  -1.087  0.00  0.00    -0.277 OA
ATOM     22  N   UNL     1       2.438  -3.470  -1.218  0.00  0.00    -0.286 N 
ATOM     23  C   UNL     1       0.829  -6.033  -1.723  0.00  0.00    +0.045 C 
ATOM     24  H   UNL     1       2.954  -4.081  -1.766  0.00  0.00    +0.155 HD
ATOM     25  N   UNL     1       1.338  -0.350  -0.527  0.00  0.00    +0.395 N 
ATOM     26  H   UNL     1       1.320  -0.369  -1.553  0.00  0.00    -0.079 HD
ENDROOT
BRANCH  17  27
ATOM     27  C   UNL     1      -0.204  -0.012   3.760  0.00  0.00    +0.048 A 
ATOM     28  C   UNL     1      -1.492   0.253   3.314  0.00  0.00    +0.024 A 
ATOM     29  C   UNL     1      -2.507   0.465   4.226  0.00  0.00    +0.003 A 
ATOM     30  C   UNL     1      -2.241   0.425   5.582  0.00  0.00    +0.020 A 
ATOM     31  C   UNL     1      -0.958   0.167   6.030  0.00  0.00    +0.046 A 
ATOM     32  C   UNL     1       0.062  -0.052   5.122  0.00  0.00    -0.010 A 
ATOM     33  C   UNL     1       1.460  -0.333   5.610  0.00  0.00    +0.047 C 
ATOM     34 CL   UNL     1      -0.627   0.118   7.734  0.00  0.00    -0.083 Cl
ENDBRANCH  17  27
TORSDOF 1
