REMARK  Name = ZINC49170607
REMARK  10 active torsions:
REMARK  status: ('A' for Active; 'I' for Inactive)
REMARK    1  A    between atoms: C_1  and  S_2
REMARK    2  A    between atoms: S_2  and  N_5
REMARK    3  A    between atoms: N_5  and  C_6
REMARK    4  A    between atoms: C_6  and  C_7
REMARK    5  A    between atoms: C_7  and  N_8
REMARK    6  A    between atoms: N_11  and  C_12
REMARK    7  A    between atoms: C_12  and  C_13
REMARK    8  A    between atoms: C_13  and  C_14
REMARK    9  A    between atoms: C_13  and  O_25
REMARK   10  A    between atoms: C_14  and  N_15
REMARK                            x       y       z     vdW  Elec       q    Type
REMARK                         _______ _______ _______ _____ _____    ______ ____
ROOT
ATOM      1  C   UNL     1       7.112  -1.602  -4.944  0.00  0.00    +0.135 C 
ENDROOT
BRANCH   1   5
ATOM      2  N   UNL     1       4.419  -1.028  -2.508  0.00  0.00    -0.298 N 
ATOM      3  C   UNL     1       5.105  -1.503  -3.566  0.00  0.00    +0.300 C 
ATOM      4  O   UNL     1       4.587  -2.309  -4.315  0.00  0.00    -0.253 OA
ATOM      5  N   UNL     1       6.366  -1.086  -3.794  0.00  0.00    -0.297 N 
ATOM      6  H   UNL     1       4.832  -0.386  -1.910  0.00  0.00    +0.150 HD
ATOM      7  H   UNL     1       6.780  -0.443  -3.197  0.00  0.00    +0.150 HD
BRANCH   2   8
ATOM      8  C   UNL     1       3.048  -1.482  -2.260  0.00  0.00    +0.122 C 
BRANCH   8   9
ATOM      9  C   UNL     1       2.502  -0.795  -1.007  0.00  0.00    +0.124 C 
BRANCH   9  10
ATOM     10  N   UNL     1       1.131  -1.249  -0.759  0.00  0.00    -0.193 NA
ATOM     11  H   UNL     1       0.640  -1.712  -1.456  0.00  0.00    +0.148 HD
BRANCH  10  13
ATOM     12  C   UNL     1       0.280   0.833   0.828  0.00  0.00    +0.214 C 
ATOM     13  S   UNL     1       0.420  -0.972   0.711  0.00  0.00    +0.027 S 
ATOM     14  O   UNL     1       1.358  -1.453   1.664  0.00  0.00    -0.158 OA
ATOM     15  O   UNL     1      -0.870  -1.557   0.605  0.00  0.00    -0.158 OA
ENDBRANCH  10  13
ENDBRANCH   9  10
ENDBRANCH   8   9
ENDBRANCH   2   8
ENDBRANCH   1   5
BRANCH   1  16
ATOM     16  C   UNL     1       8.506  -0.972  -4.973  0.00  0.00    +0.115 C 
BRANCH  16  17
ATOM     17  O   UNL     1       9.243  -1.394  -3.823  0.00  0.00    -0.392 OA
ATOM     18  H   UNL     1       9.364  -2.352  -3.764  0.00  0.00    +0.210 HD
ENDBRANCH  16  17
BRANCH  16  19
ATOM     19  C   UNL     1       9.240  -1.414  -6.240  0.00  0.00    -0.045 C 
BRANCH  19  20
ATOM     20  N   UNL     1      10.578  -0.807  -6.269  0.00  0.00    +0.384 N 
ATOM     21  C   UNL     1      10.453   0.650  -6.423  0.00  0.00    -0.074 C 
ATOM     22  C   UNL     1      11.815   1.288  -6.144  0.00  0.00    +0.017 C 
ATOM     23  C   UNL     1      12.877   0.601  -6.963  0.00  0.00    -0.048 A 
ATOM     24  C   UNL     1      14.102   1.230  -7.126  0.00  0.00    +0.004 A 
ATOM     25  C   UNL     1      15.100   0.630  -7.867  0.00  0.00    +0.000 A 
ATOM     26  C   UNL     1      14.877  -0.604  -8.449  0.00  0.00    +0.000 A 
ATOM     27  C   UNL     1      13.658  -1.231  -8.288  0.00  0.00    +0.002 A 
ATOM     28  C   UNL     1      12.653  -0.628  -7.545  0.00  0.00    -0.061 A 
ATOM     29  C   UNL     1      11.336  -1.344  -7.402  0.00  0.00    -0.043 C 
ATOM     30  H   UNL     1      11.062  -1.017  -5.409  0.00  0.00    -0.081 HD
ENDBRANCH  19  20
ENDBRANCH  16  19
ENDBRANCH   1  16
TORSDOF 9
