REMARK  Name = ZINC20003602
REMARK  6 active torsions:
REMARK  status: ('A' for Active; 'I' for Inactive)
REMARK    1  A    between atoms: C_1  and  C_2
REMARK    2  A    between atoms: C_6  and  N_9
REMARK    3  A    between atoms: N_9  and  S_10
REMARK    4  A    between atoms: S_10  and  C_13
REMARK    5  A    between atoms: C_16  and  O_20
REMARK    6  A    between atoms: C_17  and  N_19
REMARK                            x       y       z     vdW  Elec       q    Type
REMARK                         _______ _______ _______ _____ _____    ______ ____
ROOT
ATOM      1  S   UNL     1      -1.456  -0.824  -0.016  0.00  0.00    +0.072 S 
ATOM      2  O   UNL     1      -1.143  -2.120   0.475  0.00  0.00    -0.150 OA
ATOM      3  O   UNL     1      -2.374   0.039   0.641  0.00  0.00    -0.150 OA
ENDROOT
BRANCH   1   4
ATOM      4  C   UNL     1       0.068   0.053  -0.129  0.00  0.00    +0.110 A 
ATOM      5  C   UNL     1       1.263  -0.641  -0.148  0.00  0.00    +0.032 A 
ATOM      6  C   UNL     1       2.462   0.042  -0.236  0.00  0.00    +0.049 A 
ATOM      7  C   UNL     1       2.469   1.425  -0.305  0.00  0.00    +0.137 A 
ATOM      8  C   UNL     1       1.264   2.126  -0.286  0.00  0.00    +0.068 A 
ATOM      9  C   UNL     1       0.065   1.434  -0.197  0.00  0.00    +0.055 A 
BRANCH   8  10
ATOM     10  N   UNL     1       1.264   3.523  -0.356  0.00  0.00    -0.355 N 
ATOM     11  H   UNL     1       0.313   4.075  -0.340  0.00  0.00    +0.142 HD
ATOM     12  H   UNL     1       2.216   4.071  -0.426  0.00  0.00    +0.142 HD
ENDBRANCH   8  10
BRANCH   7  13
ATOM     13  O   UNL     1       3.647   2.098  -0.392  0.00  0.00    -0.505 OA
ATOM     14  H   UNL     1       3.651   3.197  -0.446  0.00  0.00    +0.292 HD
ENDBRANCH   7  13
ENDBRANCH   1   4
BRANCH   1  15
ATOM     15  N   UNL     1      -2.019  -1.027  -1.560  0.00  0.00    -0.213 N 
ATOM     16  H   UNL     1      -2.942  -0.520  -1.880  0.00  0.00    +0.174 HD
BRANCH  15  22
ATOM     17  C   UNL     1      -0.553  -5.511  -2.947  0.00  0.00    +0.045 C 
ATOM     18  C   UNL     1      -0.594  -4.018  -3.155  0.00  0.00    -0.030 A 
ATOM     19  C   UNL     1       0.059  -3.453  -4.235  0.00  0.00    +0.006 A 
ATOM     20  C   UNL     1       0.023  -2.085  -4.430  0.00  0.00    +0.022 A 
ATOM     21  C   UNL     1      -0.670  -1.277  -3.547  0.00  0.00    +0.065 A 
ATOM     22  C   UNL     1      -1.322  -1.841  -2.458  0.00  0.00    +0.085 A 
ATOM     23  C   UNL     1      -1.284  -3.217  -2.265  0.00  0.00    +0.068 A 
ATOM     24 CL   UNL     1      -2.103  -3.928  -0.909  0.00  0.00    -0.081 Cl
ATOM     25 CL   UNL     1      -0.719   0.440  -3.796  0.00  0.00    -0.082 Cl
ENDBRANCH  15  22
ENDBRANCH   1  15
TORSDOF 5
