REMARK  Name = ZINC49495467
REMARK  10 active torsions:
REMARK  status: ('A' for Active; 'I' for Inactive)
REMARK    1  A    between atoms: C_1  and  C_2
REMARK    2  A    between atoms: C_2  and  O_3
REMARK    3  A    between atoms: O_3  and  C_4
REMARK    4  A    between atoms: C_4  and  C_6
REMARK    5  A    between atoms: C_6  and  C_8
REMARK    6  A    between atoms: C_6  and  N_9
REMARK    7  A    between atoms: C_10  and  C_12
REMARK    8  A    between atoms: C_15  and  C_19
REMARK    9  A    between atoms: C_20  and  C_21
REMARK   10  A    between atoms: C_21  and  N_22
REMARK                            x       y       z     vdW  Elec       q    Type
REMARK                         _______ _______ _______ _____ _____    ______ ____
ROOT
ATOM      1  C   UNL     1       2.373  -6.003  -3.083  0.00  0.00    +0.072 A 
ATOM      2  C   UNL     1       1.377  -6.662  -2.357  0.00  0.00    +0.017 A 
ATOM      3  C   UNL     1       1.357  -8.026  -2.301  0.00  0.00    +0.018 A 
ATOM      4  C   UNL     1       2.334  -8.771  -2.968  0.00  0.00    +0.028 A 
ATOM      5  C   UNL     1       3.333  -8.122  -3.695  0.00  0.00    +0.056 A 
ATOM      6  C   UNL     1       3.351  -6.744  -3.758  0.00  0.00    +0.137 A 
ATOM      7  F   UNL     1       4.313  -6.110  -4.465  0.00  0.00    -0.205 F 
ENDROOT
BRANCH   1   9
ATOM      8  N   UNL     1       1.450  -3.817  -2.491  0.00  0.00    -0.298 N 
ATOM      9  C   UNL     1       2.392  -4.529  -3.142  0.00  0.00    +0.247 C 
ATOM     10  O   UNL     1       3.256  -3.957  -3.777  0.00  0.00    -0.270 OA
ATOM     11  H   UNL     1       0.761  -4.274  -1.984  0.00  0.00    +0.150 HD
BRANCH   8  12
ATOM     12  C   UNL     1       1.468  -2.353  -2.550  0.00  0.00    +0.179 C 
ATOM     13  C   UNL     1       0.741  -1.885  -3.812  0.00  0.00    +0.040 C 
BRANCH  12  14
ATOM     14  C   UNL     1       0.775  -1.794  -1.334  0.00  0.00    +0.327 C 
ATOM     15  O   UNL     1       0.314  -2.540  -0.504  0.00  0.00    -0.249 OA
BRANCH  14  16
ATOM     16  O   UNL     1       0.671  -0.465  -1.174  0.00  0.00    -0.464 OA
BRANCH  16  18
ATOM     17  C   UNL     1      -0.019   1.526   0.010  0.00  0.00    +0.048 C 
ATOM     18  C   UNL     1       0.002  -0.004   0.002  0.00  0.00    +0.229 C 
ENDBRANCH  16  18
ENDBRANCH  14  16
ENDBRANCH  12  14
ENDBRANCH   8  12
ENDBRANCH   1   9
BRANCH   4  19
ATOM     19  C   UNL     1       2.309 -10.202  -2.905  0.00  0.00    -0.068 C 
ATOM     20  C   UNL     1       2.289 -11.374  -2.854  0.00  0.00    -0.117 C 
BRANCH  20  21
ATOM     21  C   UNL     1       2.264 -12.845  -2.790  0.00  0.00    +0.005 C 
BRANCH  21  22
ATOM     22  N   UNL     1       3.386 -13.388  -3.567  0.00  0.00    +0.385 N 
ATOM     23  H   UNL     1       3.368 -14.396  -3.523  0.00  0.00    -0.089 HD
ATOM     24  H   UNL     1       3.304 -13.092  -4.528  0.00  0.00    -0.089 HD
ATOM     25  H   UNL     1       4.255 -13.050  -3.183  0.00  0.00    -0.089 HD
ENDBRANCH  21  22
ENDBRANCH  20  21
ENDBRANCH   4  19
TORSDOF 8
