REMARK  Name = ZINC63576345
REMARK  7 active torsions:
REMARK  status: ('A' for Active; 'I' for Inactive)
REMARK    1  A    between atoms: C_1  and  C_2
REMARK    2  A    between atoms: C_2  and  C_3
REMARK    3  A    between atoms: C_8  and  O_9
REMARK    4  A    between atoms: O_9  and  C_10
REMARK    5  A    between atoms: N_12  and  C_13
REMARK    6  A    between atoms: N_12  and  C_19
REMARK    7  A    between atoms: C_27  and  C_30
REMARK                            x       y       z     vdW  Elec       q    Type
REMARK                         _______ _______ _______ _____ _____    ______ ____
ROOT
ATOM      1  C   UNL     1       0.792  -0.349   1.646  0.00  0.00    -0.004 A 
ATOM      2  C   UNL     1       2.128  -0.631   1.674  0.00  0.00    +0.022 A 
ATOM      3  C   UNL     1       2.689  -1.212   2.812  0.00  0.00    +0.065 A 
ATOM      4  C   UNL     1       1.885  -1.508   3.926  0.00  0.00    +0.142 A 
ATOM      5  C   UNL     1       0.529  -1.216   3.882  0.00  0.00    +0.093 A 
ATOM      6  C   UNL     1      -0.011  -0.634   2.747  0.00  0.00    +0.140 A 
ATOM      7  O   UNL     1       2.439  -2.071   5.019  0.00  0.00    -0.462 OA
ATOM      8  C   UNL     1       3.742  -2.364   5.091  0.00  0.00    +0.207 A 
ATOM      9  C   UNL     1       4.600  -2.123   4.085  0.00  0.00    +0.077 A 
ATOM     10  C   UNL     1       4.126  -1.532   2.883  0.00  0.00    +0.199 A 
ATOM     11  O   UNL     1       4.876  -1.300   1.950  0.00  0.00    -0.287 OA
ENDROOT
BRANCH   9  12
ATOM     12  C   UNL     1       6.058  -2.479   4.230  0.00  0.00    +0.213 C 
ATOM     13  N   UNL     1       6.859  -1.260   4.402  0.00  0.00    -0.359 N 
ATOM     14  C   UNL     1       7.451  -1.342   5.559  0.00  0.00    +0.060 A 
ATOM     15  C   UNL     1       8.367  -0.446   6.277  0.00  0.00    +0.027 A 
ATOM     16  C   UNL     1       8.831  -0.803   7.491  0.00  0.00    +0.002 A 
ATOM     17  C   UNL     1       8.474  -2.013   8.113  0.00  0.00    +0.002 A 
ATOM     18  C   UNL     1       7.641  -2.906   7.542  0.00  0.00    +0.027 A 
ATOM     19  C   UNL     1       7.073  -2.622   6.217  0.00  0.00    +0.060 A 
ATOM     20  N   UNL     1       6.262  -3.283   5.442  0.00  0.00    -0.359 N 
ATOM     21  H   UNL     1       6.933  -0.529   3.770  0.00  0.00    +0.162 HD
ATOM     22  H   UNL     1       5.865  -4.147   5.630  0.00  0.00    +0.162 HD
ENDBRANCH   9  12
BRANCH   1  24
ATOM     23  C   UNL     1       0.136   1.798   0.593  0.00  0.00    +0.009 C 
ATOM     24  C   UNL     1       0.184   0.278   0.418  0.00  0.00    +0.035 C 
ENDBRANCH   1  24
BRANCH   6  25
ATOM     25  O   UNL     1      -1.337  -0.344   2.707  0.00  0.00    -0.411 OA
BRANCH  25  26
ATOM     26  C   UNL     1      -2.162  -1.231   2.117  0.00  0.00    +0.417 C 
ATOM     27  O   UNL     1      -1.724  -2.289   1.710  0.00  0.00    -0.225 OA
ATOM     28  N   UNL     1      -3.471  -0.945   1.977  0.00  0.00    -0.206 N 
BRANCH  28  29
ATOM     29  C   UNL     1      -3.952   0.323   2.326  0.00  0.00    +0.044 A 
ATOM     30  C   UNL     1      -3.470   1.452   1.678  0.00  0.00    +0.024 A 
ATOM     31  C   UNL     1      -3.947   2.702   2.025  0.00  0.00    +0.002 A 
ATOM     32  C   UNL     1      -4.902   2.828   3.017  0.00  0.00    +0.000 A 
ATOM     33  C   UNL     1      -5.383   1.705   3.665  0.00  0.00    +0.002 A 
ATOM     34  C   UNL     1      -4.916   0.453   3.318  0.00  0.00    +0.024 A 
ENDBRANCH  28  29
BRANCH  28  35
ATOM     35  C   UNL     1      -4.351  -1.916   1.483  0.00  0.00    +0.044 A 
ATOM     36  C   UNL     1      -4.620  -3.056   2.230  0.00  0.00    +0.024 A 
ATOM     37  C   UNL     1      -5.488  -4.012   1.740  0.00  0.00    +0.002 A 
ATOM     38  C   UNL     1      -6.089  -3.835   0.507  0.00  0.00    +0.000 A 
ATOM     39  C   UNL     1      -5.823  -2.701  -0.239  0.00  0.00    +0.002 A 
ATOM     40  C   UNL     1      -4.961  -1.739   0.248  0.00  0.00    +0.024 A 
ENDBRANCH  28  35
ENDBRANCH  25  26
ENDBRANCH   6  25
TORSDOF 6
