REMARK  Name = ZINC35514030
REMARK  8 active torsions:
REMARK  status: ('A' for Active; 'I' for Inactive)
REMARK    1  A    between atoms: C_1  and  C_2
REMARK    2  A    between atoms: C_4  and  C_35
REMARK    3  A    between atoms: C_5  and  S_9
REMARK    4  A    between atoms: C_7  and  C_8
REMARK    5  A    between atoms: S_9  and  N_12
REMARK    6  A    between atoms: N_12  and  C_13
REMARK    7  A    between atoms: C_15  and  C_25
REMARK    8  A    between atoms: C_32  and  C_34
REMARK                            x       y       z     vdW  Elec       q    Type
REMARK                         _______ _______ _______ _____ _____    ______ ____
ROOT
ATOM      1  C   UNL     1      -1.491  -5.625  -3.297  0.00  0.00    +0.067 A 
ATOM      2  C   UNL     1      -2.729  -5.065  -3.587  0.00  0.00    +0.042 A 
ATOM      3  C   UNL     1      -3.042  -4.802  -4.925  0.00  0.00    +0.079 A 
ATOM      4  C   UNL     1      -2.096  -5.113  -5.916  0.00  0.00    +0.133 A 
ATOM      5  N   UNL     1      -0.930  -5.646  -5.588  0.00  0.00    -0.238 NA
ATOM      6  C   UNL     1      -0.608  -5.899  -4.335  0.00  0.00    +0.137 A 
ATOM      7  N   UNL     1      -2.387  -4.860  -7.247  0.00  0.00    -0.318 N 
ATOM      8  C   UNL     1      -1.944  -3.615  -7.894  0.00  0.00    +0.087 C 
ATOM      9  C   UNL     1      -1.234  -3.975  -9.204  0.00  0.00    -0.063 C 
ATOM     10  N   UNL     1      -2.122  -4.805 -10.029  0.00  0.00    +0.381 N 
ATOM     11  C   UNL     1      -2.380  -6.084  -9.355  0.00  0.00    -0.063 C 
ATOM     12  C   UNL     1      -3.141  -5.831  -8.054  0.00  0.00    +0.087 C 
ATOM     13  H   UNL     1      -2.995  -4.320 -10.173  0.00  0.00    -0.086 HD
ATOM     14  H   UNL     1      -1.685  -4.978 -10.921  0.00  0.00    -0.086 HD
ENDROOT
BRANCH   3  15
ATOM     15  C   UNL     1      -4.342  -4.209  -5.289  0.00  0.00    +0.250 C 
ATOM     16  O   UNL     1      -4.381  -3.190  -5.951  0.00  0.00    -0.270 OA
ATOM     17  N   UNL     1      -5.487  -4.796  -4.887  0.00  0.00    -0.295 N 
ATOM     18  C   UNL     1      -5.456  -5.961  -3.991  0.00  0.00    +0.108 C 
ATOM     19  C   UNL     1      -6.266  -7.094  -4.628  0.00  0.00    +0.019 C 
ATOM     20  C   UNL     1      -7.673  -6.589  -4.955  0.00  0.00    +0.003 C 
ATOM     21  C   UNL     1      -7.584  -5.436  -5.958  0.00  0.00    +0.022 C 
ATOM     22  C   UNL     1      -6.789  -4.281  -5.331  0.00  0.00    +0.073 C 
ATOM     23  C   UNL     1      -6.576  -3.179  -6.371  0.00  0.00    +0.028 C 
ENDBRANCH   3  15
BRANCH   1  24
ATOM     24  N   UNL     1      -1.134  -5.905  -1.972  0.00  0.00    -0.215 N 
ATOM     25  H   UNL     1      -1.766  -6.346  -1.383  0.00  0.00    +0.174 HD
BRANCH  24  26
ATOM     26  S   UNL     1       0.367  -5.485  -1.413  0.00  0.00    +0.073 S 
ATOM     27  O   UNL     1       1.306  -5.984  -2.356  0.00  0.00    -0.150 OA
ATOM     28  O   UNL     1       0.403  -5.844  -0.038  0.00  0.00    -0.150 OA
BRANCH  26  33
ATOM     29  C   UNL     1       0.735   0.533  -1.630  0.00  0.00    +0.044 C 
ATOM     30  C   UNL     1       0.643  -0.970  -1.576  0.00  0.00    -0.047 A 
ATOM     31  C   UNL     1      -0.288  -1.576  -0.753  0.00  0.00    +0.009 A 
ATOM     32  C   UNL     1      -0.372  -2.955  -0.703  0.00  0.00    -0.024 A 
ATOM     33  C   UNL     1       0.474  -3.728  -1.477  0.00  0.00    +0.112 A 
ATOM     34  C   UNL     1       1.404  -3.121  -2.300  0.00  0.00    +0.032 A 
ATOM     35  C   UNL     1       1.485  -1.742  -2.353  0.00  0.00    -0.046 A 
ATOM     36  C   UNL     1       2.496  -1.081  -3.255  0.00  0.00    +0.044 C 
ATOM     37  C   UNL     1      -1.387  -3.616   0.194  0.00  0.00    +0.046 C 
ENDBRANCH  26  33
ENDBRANCH  24  26
ENDBRANCH   1  24
TORSDOF 4
