REMARK  Name = ZINC42190044
REMARK  5 active torsions:
REMARK  status: ('A' for Active; 'I' for Inactive)
REMARK    1  A    between atoms: C_1  and  C_2
REMARK    2  A    between atoms: C_5  and  C_7
REMARK    3  A    between atoms: C_8  and  C_9
REMARK    4  A    between atoms: N_11  and  C_12
REMARK    5  A    between atoms: C_21  and  O_23
REMARK                            x       y       z     vdW  Elec       q    Type
REMARK                         _______ _______ _______ _____ _____    ______ ____
ROOT
ATOM      1  C   UNL     1       3.857  -4.077  -0.037  0.00  0.00    +0.238 C 
ATOM      2  O   UNL     1       3.413  -5.211  -0.040  0.00  0.00    -0.271 OA
ATOM      3  N   UNL     1       5.190  -3.875  -0.042  0.00  0.00    -0.302 N 
ATOM      4  H   UNL     1       5.543  -2.972  -0.039  0.00  0.00    +0.150 HD
ENDROOT
BRANCH   3   5
ATOM      5  C   UNL     1       6.104  -5.019  -0.052  0.00  0.00    +0.132 C 
ATOM      6  C   UNL     1       6.382  -5.457  -1.474  0.00  0.00    -0.021 A 
ATOM      7  C   UNL     1       5.522  -5.622  -2.546  0.00  0.00    +0.006 A 
ATOM      8  C   UNL     1       6.009  -6.037  -3.770  0.00  0.00    +0.000 A 
ATOM      9  C   UNL     1       7.359  -6.290  -3.926  0.00  0.00    +0.000 A 
ATOM     10  C   UNL     1       8.219  -6.127  -2.857  0.00  0.00    +0.004 A 
ATOM     11  C   UNL     1       7.732  -5.710  -1.629  0.00  0.00    -0.040 A 
ATOM     12  C   UNL     1       8.454  -5.460  -0.322  0.00  0.00    +0.069 C 
ATOM     13  C   UNL     1       7.477  -4.613   0.524  0.00  0.00    +0.143 C 
BRANCH  13  14
ATOM     14  O   UNL     1       7.716  -3.217   0.330  0.00  0.00    -0.389 OA
ATOM     15  H   UNL     1       8.567  -2.912   0.674  0.00  0.00    +0.210 HD
ENDBRANCH  13  14
ENDBRANCH   3   5
BRANCH   1  17
ATOM     16  C   UNL     1       1.633  -3.175  -0.022  0.00  0.00    +0.051 C 
ATOM     17  C   UNL     1       2.973  -2.971  -0.027  0.00  0.00    +0.071 C 
BRANCH  16  22
ATOM     18  C   UNL     1      -0.018   1.503   0.010  0.00  0.00    +0.086 C 
ATOM     19  C   UNL     1       0.002  -0.004   0.002  0.00  0.00    +0.103 A 
ATOM     20  C   UNL     1      -1.088  -0.803   0.003  0.00  0.00    +0.045 A 
ATOM     21  C   UNL     1      -0.630  -2.130  -0.007  0.00  0.00    +0.049 A 
ATOM     22  C   UNL     1       0.749  -2.069  -0.013  0.00  0.00    +0.128 A 
ATOM     23  O   UNL     1       1.104  -0.767  -0.013  0.00  0.00    -0.461 OA
ENDBRANCH  16  22
ENDBRANCH   1  17
TORSDOF 4
