REMARK  Name = ZINC37053569
REMARK  6 active torsions:
REMARK  status: ('A' for Active; 'I' for Inactive)
REMARK    1  A    between atoms: C_1  and  C_2
REMARK    2  A    between atoms: C_4  and  N_8
REMARK    3  A    between atoms: N_5  and  C_7
REMARK    4  A    between atoms: N_8  and  S_9
REMARK    5  A    between atoms: S_9  and  C_12
REMARK    6  A    between atoms: C_13  and  N_20
REMARK                            x       y       z     vdW  Elec       q    Type
REMARK                         _______ _______ _______ _____ _____    ______ ____
ROOT
ATOM      1  S   UNL     1       0.013  -2.825  -3.342  0.00  0.00    +0.077 S 
ATOM      2  O   UNL     1      -0.156  -3.865  -4.295  0.00  0.00    -0.150 OA
ATOM      3  O   UNL     1      -0.867  -1.712  -3.266  0.00  0.00    -0.150 OA
ENDROOT
BRANCH   1   4
ATOM      4  C   UNL     1       1.630  -2.172  -3.590  0.00  0.00    +0.147 A 
ATOM      5  C   UNL     1       2.063  -1.084  -2.842  0.00  0.00    +0.054 A 
ATOM      6  C   UNL     1       3.339  -0.572  -3.040  0.00  0.00    +0.044 A 
ATOM      7  C   UNL     1       4.175  -1.147  -3.979  0.00  0.00    +0.044 A 
ATOM      8  C   UNL     1       3.741  -2.231  -4.722  0.00  0.00    +0.042 A 
ATOM      9  C   UNL     1       2.472  -2.746  -4.524  0.00  0.00    +0.071 A 
ATOM     10 CL   UNL     1       1.935  -4.111  -5.453  0.00  0.00    -0.081 Cl
ATOM     11 CL   UNL     1       5.770  -0.508  -4.227  0.00  0.00    -0.083 Cl
BRANCH   5  12
ATOM     12  N   UNL     1       1.216  -0.505  -1.895  0.00  0.00    -0.356 N 
ATOM     13  H   UNL     1       0.325  -0.863  -1.757  0.00  0.00    +0.142 HD
ATOM     14  H   UNL     1       1.519   0.255  -1.373  0.00  0.00    +0.142 HD
ENDBRANCH   5  12
ENDBRANCH   1   4
BRANCH   1  15
ATOM     15  N   UNL     1      -0.002  -3.543  -1.850  0.00  0.00    -0.200 N 
ATOM     16  H   UNL     1      -0.588  -3.204  -1.154  0.00  0.00    +0.175 HD
BRANCH  15  20
ATOM     17  C   UNL     1       3.015  -7.464  -2.487  0.00  0.00    +0.067 C 
ATOM     18  C   UNL     1       2.176  -6.389  -1.847  0.00  0.00    +0.062 A 
ATOM     19  C   UNL     1       1.444  -5.410  -2.525  0.00  0.00    +0.069 A 
ATOM     20  C   UNL     1       0.825  -4.633  -1.593  0.00  0.00    +0.136 A 
ATOM     21  N   UNL     1       1.161  -5.112  -0.374  0.00  0.00    -0.252 N 
ATOM     22  N   UNL     1       2.004  -6.215  -0.562  0.00  0.00    -0.175 NA
ATOM     23  C   UNL     1       0.719  -4.574   0.915  0.00  0.00    +0.174 C 
ENDBRANCH  15  20
ENDBRANCH   1  15
TORSDOF 4
