REMARK  Name = ZINC63537956
REMARK  6 active torsions:
REMARK  status: ('A' for Active; 'I' for Inactive)
REMARK    1  A    between atoms: C_1  and  C_2
REMARK    2  A    between atoms: C_5  and  C_8
REMARK    3  A    between atoms: C_11  and  C_35
REMARK    4  A    between atoms: C_16  and  C_19
REMARK    5  A    between atoms: N_21  and  C_22
REMARK    6  A    between atoms: C_22  and  C_23
REMARK                            x       y       z     vdW  Elec       q    Type
REMARK                         _______ _______ _______ _____ _____    ______ ____
ROOT
ATOM      1  C   UNL     1       0.059  -4.275  -0.021  0.00  0.00    +0.112 C 
ATOM      2  C   UNL     1      -1.355  -4.802   0.227  0.00  0.00    +0.062 C 
ATOM      3  C   UNL     1      -1.329  -6.337   0.273  0.00  0.00    +0.198 C 
ATOM      4  N   UNL     1      -0.301  -6.731   1.254  0.00  0.00    -0.243 N 
ATOM      5  C   UNL     1       0.752  -5.904   1.574  0.00  0.00    +0.087 C 
ATOM      6  C   UNL     1       1.567  -6.582   2.651  0.00  0.00    +0.100 C 
ATOM      7  C   UNL     1       0.617  -7.711   3.123  0.00  0.00    +0.165 C 
ATOM      8  N   UNL     1      -0.254  -7.905   1.941  0.00  0.00    -0.226 NA
ATOM      9  N   UNL     1       0.966  -4.756   1.027  0.00  0.00    -0.369 N 
ATOM     10  H   UNL     1       0.091  -8.652   1.357  0.00  0.00    +0.145 HD
ATOM     11  H   UNL     1       1.722  -4.216   1.305  0.00  0.00    +0.161 HD
ENDROOT
BRANCH   1  16
ATOM     12  C   UNL     1      -0.018   1.503   0.010  0.00  0.00    +0.044 C 
ATOM     13  C   UNL     1       0.002  -0.004   0.002  0.00  0.00    -0.050 A 
ATOM     14  C   UNL     1       0.006  -0.689  -1.199  0.00  0.00    +0.004 A 
ATOM     15  C   UNL     1       0.025  -2.071  -1.206  0.00  0.00    +0.006 A 
ATOM     16  C   UNL     1       0.040  -2.768  -0.013  0.00  0.00    -0.025 A 
ATOM     17  C   UNL     1       0.037  -2.084   1.188  0.00  0.00    +0.006 A 
ATOM     18  C   UNL     1       0.023  -0.702   1.195  0.00  0.00    +0.004 A 
ENDBRANCH   1  16
BRANCH   7  19
ATOM     19  C   UNL     1       1.390  -8.966   3.438  0.00  0.00    +0.232 C 
ATOM     20  O   UNL     1       1.433  -9.870   2.630  0.00  0.00    -0.274 OA
ATOM     21  N   UNL     1       2.034  -9.083   4.616  0.00  0.00    -0.312 N 
ATOM     22  H   UNL     1       1.999  -8.360   5.262  0.00  0.00    +0.149 HD
BRANCH  21  23
ATOM     23  C   UNL     1       2.785 -10.303   4.922  0.00  0.00    +0.133 C 
BRANCH  23  24
ATOM     24  C   UNL     1       3.415 -10.180   6.311  0.00  0.00    +0.120 C 
ATOM     25  C   UNL     1       4.040 -11.495   6.718  0.00  0.00    +0.009 C 
ATOM     26  C   UNL     1       3.395 -11.885   7.841  0.00  0.00    -0.003 A 
ATOM     27  C   UNL     1       3.534 -13.059   8.711  0.00  0.00    +0.029 A 
ATOM     28  C   UNL     1       2.726 -13.176   9.790  0.00  0.00    +0.042 A 
ATOM     29  C   UNL     1       1.761 -12.205  10.097  0.00  0.00    +0.022 A 
ATOM     30  C   UNL     1       1.574 -11.100   9.345  0.00  0.00    +0.027 A 
ATOM     31  C   UNL     1       2.369 -10.875   8.187  0.00  0.00    +0.043 A 
ATOM     32  N   UNL     1       2.380  -9.897   7.312  0.00  0.00    -0.376 N 
ATOM     33 CL   UNL     1       2.887 -14.563  10.821  0.00  0.00    -0.084 Cl
ATOM     34  H   UNL     1       1.801  -9.119   7.324  0.00  0.00    +0.160 HD
ENDBRANCH  23  24
ENDBRANCH  21  23
ENDBRANCH   7  19
BRANCH   3  35
ATOM     35  C   UNL     1      -2.696  -6.867   0.708  0.00  0.00    +0.409 C 
ATOM     36  F   UNL     1      -3.671  -6.449  -0.204  0.00  0.00    -0.169 F 
ATOM     37  F   UNL     1      -2.663  -8.265   0.747  0.00  0.00    -0.169 F 
ATOM     38  F   UNL     1      -3.005  -6.373   1.980  0.00  0.00    -0.169 F 
ENDBRANCH   3  35
TORSDOF 5
