REMARK  Name = ZINC48961687
REMARK  5 active torsions:
REMARK  status: ('A' for Active; 'I' for Inactive)
REMARK    1  A    between atoms: C_1  and  C_2
REMARK    2  A    between atoms: C_5  and  O_20
REMARK    3  A    between atoms: C_6  and  S_8
REMARK    4  A    between atoms: S_8  and  N_11
REMARK    5  A    between atoms: N_11  and  C_12
REMARK                            x       y       z     vdW  Elec       q    Type
REMARK                         _______ _______ _______ _____ _____    ______ ____
ROOT
ATOM      1  S   UNL     1       0.040  -2.985   2.568  0.00  0.00    +0.076 S 
ATOM      2  O   UNL     1       0.998  -4.032   2.490  0.00  0.00    -0.150 OA
ATOM      3  O   UNL     1       0.162  -1.908   3.487  0.00  0.00    -0.150 OA
ENDROOT
BRANCH   1   9
ATOM      4  C   UNL     1       0.008   1.163  -0.610  0.00  0.00    +0.044 C 
ATOM      5  C   UNL     1      -0.064  -0.334  -0.449  0.00  0.00    -0.048 A 
ATOM      6  C   UNL     1      -0.204  -1.141  -1.563  0.00  0.00    +0.007 A 
ATOM      7  C   UNL     1      -0.271  -2.514  -1.418  0.00  0.00    +0.047 A 
ATOM      8  C   UNL     1      -0.196  -3.081  -0.154  0.00  0.00    +0.143 A 
ATOM      9  C   UNL     1      -0.055  -2.268   0.961  0.00  0.00    +0.150 A 
ATOM     10  C   UNL     1       0.017  -0.897   0.811  0.00  0.00    +0.036 A 
BRANCH   8  11
ATOM     11  O   UNL     1      -0.262  -4.431  -0.009  0.00  0.00    -0.505 OA
ATOM     12  H   UNL     1       0.598  -4.872  -0.041  0.00  0.00    +0.292 HD
ENDBRANCH   8  11
ENDBRANCH   1   9
BRANCH   1  13
ATOM     13  N   UNL     1      -1.421  -3.703   2.871  0.00  0.00    -0.216 N 
ATOM     14  H   UNL     1      -1.469  -4.659   3.025  0.00  0.00    +0.174 HD
BRANCH  13  15
ATOM     15  C   UNL     1      -2.585  -2.930   2.906  0.00  0.00    +0.051 A 
ATOM     16  C   UNL     1      -2.601  -1.726   3.600  0.00  0.00    +0.026 A 
ATOM     17  C   UNL     1      -3.752  -0.964   3.633  0.00  0.00    +0.025 A 
ATOM     18  C   UNL     1      -4.890  -1.397   2.977  0.00  0.00    +0.076 A 
ATOM     19  C   UNL     1      -4.878  -2.597   2.284  0.00  0.00    +0.143 A 
ATOM     20  C   UNL     1      -3.726  -3.362   2.243  0.00  0.00    +0.064 A 
ATOM     21  F   UNL     1      -5.991  -3.019   1.644  0.00  0.00    -0.204 F 
ATOM     22 CL   UNL     1      -6.335  -0.436   3.021  0.00  0.00    -0.081 Cl
ENDBRANCH  13  15
ENDBRANCH   1  13
TORSDOF 4
