REMARK  Name = ZINC30499083
REMARK  11 active torsions:
REMARK  status: ('A' for Active; 'I' for Inactive)
REMARK    1  A    between atoms: C_1  and  C_2
REMARK    2  A    between atoms: C_2  and  C_3
REMARK    3  A    between atoms: N_5  and  C_6
REMARK    4  A    between atoms: C_9  and  C_12
REMARK    5  A    between atoms: C_12  and  C_14
REMARK    6  A    between atoms: C_12  and  N_15
REMARK    7  A    between atoms: N_15  and  C_16
REMARK    8  A    between atoms: C_16  and  C_18
REMARK    9  A    between atoms: C_16  and  C_19
REMARK   10  A    between atoms: N_21  and  C_22
REMARK   11  A    between atoms: C_27  and  C_28
REMARK                            x       y       z     vdW  Elec       q    Type
REMARK                         _______ _______ _______ _____ _____    ______ ____
ROOT
ATOM      1  N   UNL     1      -5.730  -2.310   1.345  0.00  0.00    +0.391 N 
ATOM      2  H   UNL     1      -6.453  -3.119   1.160  0.00  0.00    -0.084 HD
ATOM      3  H   UNL     1      -4.708  -2.695   1.215  0.00  0.00    -0.084 HD
ENDROOT
BRANCH   1   4
ATOM      4  C   UNL     1      -5.967  -1.216   0.394  0.00  0.00    -0.043 C 
ATOM      5  C   UNL     1      -6.294  -1.798  -0.982  0.00  0.00    -0.009 C 
BRANCH   4   9
ATOM      6  C   UNL     1      -2.460   1.212   0.117  0.00  0.00    +0.033 A 
ATOM      7  C   UNL     1      -2.346  -0.170   0.192  0.00  0.00    +0.023 A 
ATOM      8  C   UNL     1      -3.480  -0.951   0.287  0.00  0.00    +0.004 A 
ATOM      9  C   UNL     1      -4.730  -0.360   0.297  0.00  0.00    -0.062 A 
ATOM     10  C   UNL     1      -4.848   1.016   0.217  0.00  0.00    +0.004 A 
ATOM     11  C   UNL     1      -3.717   1.803   0.127  0.00  0.00    +0.023 A 
BRANCH   6  14
ATOM     12  C   UNL     1      -1.280   3.215   0.624  0.00  0.00    +0.217 C 
ATOM     13  O   UNL     1      -2.272   3.648   1.170  0.00  0.00    -0.275 OA
ATOM     14  N   UNL     1      -1.312   2.007   0.026  0.00  0.00    -0.286 N 
ATOM     15  H   UNL     1      -0.437   1.646  -0.533  0.00  0.00    +0.155 HD
BRANCH  12  17
ATOM     16  C   UNL     1      -0.239   5.340   1.364  0.00  0.00    +0.013 C 
ATOM     17  C   UNL     1      -0.009   4.024   0.618  0.00  0.00    +0.093 C 
ENDBRANCH  12  17
ENDBRANCH   6  14
ENDBRANCH   4   9
ENDBRANCH   1   4
BRANCH   1  18
ATOM     18  C   UNL     1      -5.886  -1.847   2.731  0.00  0.00    +0.014 C 
ATOM     19  C   UNL     1      -7.343  -2.018   3.165  0.00  0.00    -0.004 C 
BRANCH  18  20
ATOM     20  C   UNL     1      -4.994  -2.658   3.635  0.00  0.00    +0.203 C 
ATOM     21  O   UNL     1      -4.297  -3.536   3.171  0.00  0.00    -0.277 OA
ATOM     22  N   UNL     1      -4.971  -2.409   4.959  0.00  0.00    -0.287 N 
ATOM     23  H   UNL     1      -5.649  -1.657   5.389  0.00  0.00    +0.155 HD
BRANCH  22  24
ATOM     24  C   UNL     1      -4.083  -3.105   5.787  0.00  0.00    +0.036 A 
ATOM     25  C   UNL     1      -3.624  -4.362   5.414  0.00  0.00    +0.023 A 
ATOM     26  C   UNL     1      -2.744  -5.044   6.230  0.00  0.00    +0.002 A 
ATOM     27  C   UNL     1      -2.328  -4.482   7.423  0.00  0.00    +0.000 A 
ATOM     28  C   UNL     1      -2.787  -3.233   7.800  0.00  0.00    +0.005 A 
ATOM     29  C   UNL     1      -3.663  -2.543   6.985  0.00  0.00    -0.029 A 
ATOM     30  C   UNL     1      -4.163  -1.183   7.396  0.00  0.00    +0.045 C 
ENDBRANCH  22  24
ENDBRANCH  18  20
ENDBRANCH   1  18
TORSDOF 7
