REMARK  Name = ZINC40051448
REMARK  8 active torsions:
REMARK  status: ('A' for Active; 'I' for Inactive)
REMARK    1  A    between atoms: C_1  and  C_2
REMARK    2  A    between atoms: C_2  and  C_4
REMARK    3  A    between atoms: C_2  and  N_20
REMARK    4  A    between atoms: N_9  and  C_10
REMARK    5  A    between atoms: N_20  and  C_21
REMARK    6  A    between atoms: N_20  and  C_22
REMARK    7  A    between atoms: C_22  and  C_23
REMARK    8  A    between atoms: C_28  and  C_29
REMARK                            x       y       z     vdW  Elec       q    Type
REMARK                         _______ _______ _______ _____ _____    ______ ____
ROOT
ATOM      1  C   UNL     1       3.067  -0.919  -1.808  0.00  0.00    +0.207 C 
ATOM      2  O   UNL     1       3.727  -1.747  -2.399  0.00  0.00    -0.277 OA
ATOM      3  N   UNL     1       3.469  -0.473  -0.602  0.00  0.00    -0.241 N 
ATOM      4  C   UNL     1       4.605  -0.947  -0.052  0.00  0.00    +0.310 C 
ATOM      5  O   UNL     1       5.266  -1.777  -0.645  0.00  0.00    -0.252 OA
ATOM      6  N   UNL     1       5.007  -0.500   1.154  0.00  0.00    -0.269 N 
ATOM      7  H   UNL     1       2.941   0.190  -0.130  0.00  0.00    +0.159 HD
ATOM      8  H   UNL     1       4.438   0.097   1.665  0.00  0.00    +0.156 HD
ENDROOT
BRANCH   6   9
ATOM      9  C   UNL     1       6.247  -0.898   1.670  0.00  0.00    +0.038 A 
ATOM     10  C   UNL     1       6.405  -1.076   3.038  0.00  0.00    +0.027 A 
ATOM     11  C   UNL     1       7.628  -1.467   3.548  0.00  0.00    +0.051 A 
ATOM     12  C   UNL     1       8.701  -1.684   2.696  0.00  0.00    +0.162 A 
ATOM     13  C   UNL     1       8.546  -1.508   1.326  0.00  0.00    +0.164 A 
ATOM     14  C   UNL     1       7.317  -1.119   0.814  0.00  0.00    +0.072 A 
ATOM     15  O   UNL     1       9.585  -1.723   0.473  0.00  0.00    -0.485 OA
ATOM     16  C   UNL     1      10.895  -1.755   1.050  0.00  0.00    +0.270 C 
ATOM     17  C   UNL     1      10.846  -2.636   2.306  0.00  0.00    +0.270 C 
ATOM     18  O   UNL     1       9.900  -2.065   3.217  0.00  0.00    -0.485 OA
ENDBRANCH   6   9
BRANCH   1  20
ATOM     19  C   UNL     1       2.097   0.910  -3.173  0.00  0.00    -0.004 C 
ATOM     20  C   UNL     1       1.797  -0.389  -2.423  0.00  0.00    +0.017 C 
BRANCH  20  21
ATOM     21  N   UNL     1       1.256  -1.382  -3.361  0.00  0.00    +0.388 N 
ATOM     22  C   UNL     1       0.916  -2.611  -2.631  0.00  0.00    -0.095 C 
ATOM     23  H   UNL     1       1.946  -1.589  -4.067  0.00  0.00    -0.081 HD
BRANCH  21  24
ATOM     24  C   UNL     1       0.048  -0.843  -4.001  0.00  0.00    -0.042 C 
BRANCH  24  25
ATOM     25  C   UNL     1      -0.424  -1.798  -5.066  0.00  0.00    -0.052 A 
ATOM     26  C   UNL     1       0.363  -2.876  -5.427  0.00  0.00    +0.002 A 
ATOM     27  C   UNL     1      -0.070  -3.752  -6.405  0.00  0.00    +0.000 A 
ATOM     28  C   UNL     1      -1.291  -3.551  -7.021  0.00  0.00    +0.001 A 
ATOM     29  C   UNL     1      -2.079  -2.474  -6.660  0.00  0.00    +0.012 A 
ATOM     30  C   UNL     1      -1.647  -1.600  -5.679  0.00  0.00    +0.056 A 
BRANCH  30  31
ATOM     31  C   UNL     1      -2.509  -0.429  -5.281  0.00  0.00    +0.418 C 
ATOM     32  F   UNL     1      -3.640  -0.382  -6.102  0.00  0.00    -0.166 F 
ATOM     33  F   UNL     1      -2.906  -0.574  -3.948  0.00  0.00    -0.166 F 
ATOM     34  F   UNL     1      -1.779   0.756  -5.424  0.00  0.00    -0.166 F 
ENDBRANCH  30  31
ENDBRANCH  24  25
ENDBRANCH  21  24
ENDBRANCH  20  21
ENDBRANCH   1  20
TORSDOF 6
