REMARK  Name = ZINC62801301
REMARK  6 active torsions:
REMARK  status: ('A' for Active; 'I' for Inactive)
REMARK    1  A    between atoms: C_1  and  C_2
REMARK    2  A    between atoms: C_2  and  C_3
REMARK    3  A    between atoms: C_2  and  N_4
REMARK    4  A    between atoms: C_8  and  S_9
REMARK    5  A    between atoms: S_9  and  C_10
REMARK    6  A    between atoms: C_10  and  C_11
REMARK                            x       y       z     vdW  Elec       q    Type
REMARK                         _______ _______ _______ _____ _____    ______ ____
ROOT
ATOM      1  N   UNL     1      -1.372  -0.511   0.012  0.00  0.00    -0.288 N 
ATOM      2  C   UNL     1      -2.309  -0.271   0.977  0.00  0.00    +0.215 A 
ATOM      3  N   UNL     1      -3.412  -0.891   0.634  0.00  0.00    -0.113 NA
ATOM      4  N   UNL     1      -3.179  -1.548  -0.581  0.00  0.00    -0.121 NA
ATOM      5  C   UNL     1      -1.944  -1.303  -0.944  0.00  0.00    +0.193 A 
ATOM      6  N   UNL     1      -2.126   0.496   2.120  0.00  0.00    -0.328 N 
ATOM      7  H   UNL     1      -1.269   0.918   2.289  0.00  0.00    +0.145 HD
ATOM      8  H   UNL     1      -2.855   0.610   2.750  0.00  0.00    +0.145 HD
ENDROOT
BRANCH   1  10
ATOM      9  C   UNL     1      -0.019   1.526   0.010  0.00  0.00    +0.031 C 
ATOM     10  C   UNL     1       0.002  -0.004   0.002  0.00  0.00    +0.086 C 
ATOM     11  C   UNL     1       0.742  -0.511   1.242  0.00  0.00    +0.031 C 
ENDBRANCH   1  10
BRANCH   5  12
ATOM     12  S   UNL     1      -1.157  -1.893  -2.406  0.00  0.00    -0.083 S 
BRANCH  12  13
ATOM     13  C   UNL     1      -2.442  -2.872  -3.231  0.00  0.00    +0.111 C 
BRANCH  13  14
ATOM     14  C   UNL     1      -1.885  -3.451  -4.533  0.00  0.00    +0.157 C 
ATOM     15  C   UNL     1      -2.990  -4.214  -5.297  0.00  0.00    +0.195 C 
ATOM     16  O   UNL     1      -2.287  -5.370  -5.818  0.00  0.00    -0.346 OA
ATOM     17  C   UNL     1      -1.349  -5.681  -4.775  0.00  0.00    +0.171 C 
ATOM     18  O   UNL     1      -0.873  -4.436  -4.250  0.00  0.00    -0.342 OA
ATOM     19  C   UNL     1      -2.031  -6.510  -3.675  0.00  0.00    +0.065 C 
ATOM     20  C   UNL     1      -1.658  -7.974  -4.022  0.00  0.00    +0.005 C 
ATOM     21  C   UNL     1      -0.201  -7.846  -4.532  0.00  0.00    +0.005 C 
ATOM     22  C   UNL     1      -0.191  -6.521  -5.324  0.00  0.00    +0.065 C 
ENDBRANCH  13  14
ENDBRANCH  12  13
ENDBRANCH   5  12
TORSDOF 4
