REMARK  Name = ZINC39545302
REMARK  2 active torsions:
REMARK  status: ('A' for Active; 'I' for Inactive)
REMARK    1  A    between atoms: C_4  and  N_7
REMARK    2  A    between atoms: C_8  and  C_10
REMARK                            x       y       z     vdW  Elec       q    Type
REMARK                         _______ _______ _______ _____ _____    ______ ____
ROOT
ATOM      1  C   UNL     1       5.058  -2.542  -0.082  0.00  0.00    +0.151 C 
ATOM      2  C   UNL     1       5.819  -2.244   1.225  0.00  0.00    +0.081 C 
ATOM      3  C   UNL     1       6.039  -3.607   1.843  0.00  0.00    +0.055 C 
ATOM      4  C   UNL     1       5.527  -4.526   1.064  0.00  0.00    +0.090 C 
ATOM      5  N   UNL     1       5.504  -5.911   1.321  0.00  0.00    -0.303 N 
ATOM      6  C   UNL     1       4.339  -6.571   0.893  0.00  0.00    +0.037 A 
ATOM      7  C   UNL     1       4.157  -7.913   1.194  0.00  0.00    +0.023 A 
ATOM      8  C   UNL     1       3.017  -8.565   0.765  0.00  0.00    +0.002 A 
ATOM      9  C   UNL     1       2.064  -7.876   0.036  0.00  0.00    +0.000 A 
ATOM     10  C   UNL     1       2.244  -6.539  -0.261  0.00  0.00    +0.007 A 
ATOM     11  C   UNL     1       3.381  -5.875   0.169  0.00  0.00    -0.010 A 
ATOM     12  C   UNL     1       3.537  -4.411  -0.148  0.00  0.00    +0.124 C 
ATOM     13  N   UNL     1       4.947  -4.010  -0.107  0.00  0.00    -0.369 NA
ATOM     14 CL   UNL     1       6.846  -3.905   3.350  0.00  0.00    -0.085 Cl
ATOM     15  H   UNL     1       6.235  -6.373   1.759  0.00  0.00    +0.153 HD
ATOM     16  H   UNL     1       5.428  -4.373  -0.915  0.00  0.00    +0.129 HD
ENDROOT
BRANCH   1  18
ATOM     17  N   UNL     1       3.216  -1.281  -1.146  0.00  0.00    -0.204 N 
ATOM     18  C   UNL     1       3.691  -1.909  -0.053  0.00  0.00    +0.249 C 
ATOM     19  O   UNL     1       3.018  -1.966   0.955  0.00  0.00    -0.272 OA
ATOM     20 BR   UNL     1       4.220  -1.242  -2.700  0.00  0.00    +0.044 Br
BRANCH  17  24
ATOM     21  C   UNL     1      -0.511   0.577  -1.029  0.00  0.00    +0.000 A 
ATOM     22  C   UNL     1       0.320   0.627   0.075  0.00  0.00    +0.002 A 
ATOM     23  C   UNL     1       1.556   0.012   0.039  0.00  0.00    +0.024 A 
ATOM     24  C   UNL     1       1.964  -0.657  -1.107  0.00  0.00    +0.048 A 
ATOM     25  C   UNL     1       1.127  -0.707  -2.214  0.00  0.00    +0.024 A 
ATOM     26  C   UNL     1      -0.108  -0.090  -2.172  0.00  0.00    +0.002 A 
ENDBRANCH  17  24
ENDBRANCH   1  18
TORSDOF 2
