REMARK  Name = ZINC48579531
REMARK  6 active torsions:
REMARK  status: ('A' for Active; 'I' for Inactive)
REMARK    1  A    between atoms: C_1  and  N_2
REMARK    2  A    between atoms: N_2  and  C_3
REMARK    3  A    between atoms: N_2  and  C_11
REMARK    4  A    between atoms: C_3  and  C_4
REMARK    5  A    between atoms: C_4  and  C_5
REMARK    6  A    between atoms: C_11  and  C_12
REMARK                            x       y       z     vdW  Elec       q    Type
REMARK                         _______ _______ _______ _____ _____    ______ ____
ROOT
ATOM      1  C   UNL     1      -0.018   1.465   0.010  0.00  0.00    -0.096 C 
ATOM      2  N   UNL     1       0.002  -0.004   0.002  0.00  0.00    +0.381 N 
ATOM      3  H   UNL     1      -0.945  -0.353   0.009  0.00  0.00    -0.082 HD
ENDROOT
BRANCH   2   4
ATOM      4  C   UNL     1       0.713  -0.491   1.192  0.00  0.00    -0.070 C 
BRANCH   4   5
ATOM      5  C   UNL     1      -0.071  -0.103   2.448  0.00  0.00    +0.078 C 
BRANCH   5   6
ATOM      6  C   UNL     1       0.658  -0.603   3.669  0.00  0.00    +0.219 C 
ATOM      7  O   UNL     1       1.701  -1.208   3.547  0.00  0.00    -0.275 OA
ATOM      8  N   UNL     1       0.150  -0.376   4.896  0.00  0.00    -0.240 N 
ATOM      9  C   UNL     1       0.802  -0.822   5.988  0.00  0.00    +0.303 C 
ATOM     10  O   UNL     1       1.848  -1.429   5.866  0.00  0.00    -0.253 OA
ATOM     11  N   UNL     1       0.294  -0.596   7.216  0.00  0.00    -0.313 N 
ATOM     12  H   UNL     1      -0.685   0.109   4.994  0.00  0.00    +0.159 HD
ATOM     13  H   UNL     1      -0.540  -0.111   7.314  0.00  0.00    +0.146 HD
ATOM     14  H   UNL     1       0.763  -0.917   8.002  0.00  0.00    +0.146 HD
ENDBRANCH   5   6
ENDBRANCH   4   5
ENDBRANCH   2   4
BRANCH   2  15
ATOM     15  C   UNL     1       0.690  -0.478  -1.207  0.00  0.00    -0.043 C 
BRANCH  15  16
ATOM     16  C   UNL     1      -0.106  -0.083  -2.424  0.00  0.00    -0.061 A 
ATOM     17  C   UNL     1      -1.079  -0.931  -2.919  0.00  0.00    +0.021 A 
ATOM     18  C   UNL     1      -1.809  -0.570  -4.037  0.00  0.00    +0.043 A 
ATOM     19  C   UNL     1      -1.565   0.641  -4.660  0.00  0.00    +0.040 A 
ATOM     20  C   UNL     1      -0.592   1.490  -4.164  0.00  0.00    +0.043 A 
ATOM     21  C   UNL     1       0.134   1.129  -3.043  0.00  0.00    +0.021 A 
ATOM     22 CL   UNL     1      -0.285   3.009  -4.946  0.00  0.00    -0.083 Cl
ATOM     23 CL   UNL     1      -3.030  -1.636  -4.658  0.00  0.00    -0.083 Cl
ENDBRANCH  15  16
ENDBRANCH   2  15
TORSDOF 5
