REMARK  Name = ZINC09955356
REMARK  6 active torsions:
REMARK  status: ('A' for Active; 'I' for Inactive)
REMARK    1  A    between atoms: C_1  and  C_2
REMARK    2  A    between atoms: C_2  and  C_25
REMARK    3  A    between atoms: N_5  and  N_9
REMARK    4  A    between atoms: C_10  and  C_12
REMARK    5  A    between atoms: C_12  and  N_13
REMARK    6  A    between atoms: C_15  and  C_21
REMARK                            x       y       z     vdW  Elec       q    Type
REMARK                         _______ _______ _______ _____ _____    ______ ____
ROOT
ATOM      1  N   UNL     1       1.039   1.851   6.672  0.00  0.00    -0.222 N 
ATOM      2  C   UNL     1       0.336   1.771   5.524  0.00  0.00    +0.250 C 
ATOM      3  O   UNL     1      -0.162   0.717   5.191  0.00  0.00    -0.272 OA
ATOM      4  H   UNL     1       1.437   2.695   6.938  0.00  0.00    +0.174 HD
ENDROOT
BRANCH   1   9
ATOM      5  C   UNL     1       2.192  -2.480   7.870  0.00  0.00    +0.047 C 
ATOM      6  C   UNL     1       2.038  -1.117   8.548  0.00  0.00    +0.137 C 
ATOM      7  C   UNL     1       2.333   0.002   7.570  0.00  0.00    +0.267 C 
ATOM      8  O   UNL     1       3.377   0.211   6.989  0.00  0.00    -0.271 OA
ATOM      9  N   UNL     1       1.194   0.717   7.479  0.00  0.00    -0.137 N 
ATOM     10  C   UNL     1       0.232   0.213   8.260  0.00  0.00    +0.327 C 
ATOM     11  O   UNL     1      -0.883   0.688   8.350  0.00  0.00    -0.251 OA
ATOM     12  N   UNL     1       0.635  -0.881   8.931  0.00  0.00    -0.280 N 
ATOM     13  H   UNL     1       0.106  -1.410   9.549  0.00  0.00    +0.152 HD
BRANCH   6  14
ATOM     14  C   UNL     1       2.939  -1.021   9.752  0.00  0.00    -0.015 A 
ATOM     15  C   UNL     1       4.207  -0.486   9.625  0.00  0.00    +0.006 A 
ATOM     16  C   UNL     1       5.032  -0.393  10.730  0.00  0.00    +0.000 A 
ATOM     17  C   UNL     1       4.593  -0.845  11.960  0.00  0.00    +0.000 A 
ATOM     18  C   UNL     1       3.327  -1.386  12.086  0.00  0.00    +0.000 A 
ATOM     19  C   UNL     1       2.500  -1.474  10.982  0.00  0.00    +0.006 A 
ENDBRANCH   6  14
ENDBRANCH   1   9
BRANCH   2  20
ATOM     20  C   UNL     1       0.169   2.991   4.656  0.00  0.00    +0.222 C 
BRANCH  20  21
ATOM     21  N   UNL     1      -0.628   2.646   3.477  0.00  0.00    -0.305 N 
ATOM     22  C   UNL     1      -0.008   2.201   2.353  0.00  0.00    +0.102 A 
ATOM     23  C   UNL     1      -0.722   1.881   1.250  0.00  0.00    +0.073 A 
ATOM     24  C   UNL     1      -2.120   1.996   1.262  0.00  0.00    +0.039 A 
ATOM     25  C   UNL     1      -2.742   2.438   2.393  0.00  0.00    +0.106 A 
ATOM     26  C   UNL     1      -1.969   2.767   3.520  0.00  0.00    +0.270 A 
ATOM     27  O   UNL     1      -2.513   3.164   4.539  0.00  0.00    -0.266 OA
ATOM     28 CL   UNL     1      -4.471   2.591   2.440  0.00  0.00    -0.078 Cl
BRANCH  23  29
ATOM     29  C   UNL     1      -0.017   1.395   0.010  0.00  0.00    +0.419 C 
ATOM     30  F   UNL     1       0.002  -0.004   0.002  0.00  0.00    -0.166 F 
ATOM     31  F   UNL     1       1.296   1.879  -0.000  0.00  0.00    -0.166 F 
ATOM     32  F   UNL     1      -0.694   1.858  -1.124  0.00  0.00    -0.166 F 
ENDBRANCH  23  29
ENDBRANCH  20  21
ENDBRANCH   2  20
TORSDOF 5
