REMARK  Name = ZINC00897512
REMARK  7 active torsions:
REMARK  status: ('A' for Active; 'I' for Inactive)
REMARK    1  A    between atoms: C_7  and  O_11
REMARK    2  A    between atoms: O_11  and  C_12
REMARK    3  A    between atoms: C_14  and  O_27
REMARK    4  A    between atoms: C_16  and  O_26
REMARK    5  A    between atoms: C_18  and  O_25
REMARK    6  A    between atoms: C_20  and  C_23
REMARK    7  A    between atoms: C_23  and  O_24
REMARK                            x       y       z     vdW  Elec       q    Type
REMARK                         _______ _______ _______ _____ _____    ______ ____
ROOT
ATOM      1  C   UNL     1       1.344  -4.464  -0.035  0.00  0.00    +0.339 C 
ATOM      2  C   UNL     1       0.259  -5.516  -0.280  0.00  0.00    +0.214 C 
ATOM      3  C   UNL     1       0.890  -6.911  -0.233  0.00  0.00    +0.180 C 
ATOM      4  C   UNL     1       1.587  -7.098   1.118  0.00  0.00    +0.177 C 
ATOM      5  C   UNL     1       2.621  -5.985   1.309  0.00  0.00    +0.179 C 
ATOM      6  O   UNL     1       1.973  -4.715   1.223  0.00  0.00    -0.331 OA
ENDROOT
BRANCH   4   7
ATOM      7  O   UNL     1       2.241  -8.369   1.146  0.00  0.00    -0.386 OA
ATOM      8  H   UNL     1       1.644  -9.120   1.026  0.00  0.00    +0.210 HD
ENDBRANCH   4   7
BRANCH   3   9
ATOM      9  O   UNL     1      -0.127  -7.902  -0.390  0.00  0.00    -0.386 OA
ATOM     10  H   UNL     1      -0.614  -7.838  -1.223  0.00  0.00    +0.210 HD
ENDBRANCH   3   9
BRANCH   2  11
ATOM     11  O   UNL     1      -0.334  -5.302  -1.563  0.00  0.00    -0.383 OA
ATOM     12  H   UNL     1      -0.749  -4.434  -1.664  0.00  0.00    +0.210 HD
ENDBRANCH   2  11
BRANCH   1  13
ATOM     13  O   UNL     1       0.752  -3.163  -0.022  0.00  0.00    -0.459 OA
BRANCH  13  20
ATOM     14  C   UNL     1      -0.017   1.362   0.009  0.00  0.00    +0.001 A 
ATOM     15  C   UNL     1       1.170   2.083   0.002  0.00  0.00    +0.002 A 
ATOM     16  C   UNL     1       2.386   1.436  -0.013  0.00  0.00    +0.026 A 
ATOM     17  C   UNL     1       2.428   0.045  -0.021  0.00  0.00    +0.050 A 
ATOM     18  C   UNL     1       1.223  -0.681  -0.013  0.00  0.00    +0.041 A 
ATOM     19  C   UNL     1       0.002  -0.004   0.002  0.00  0.00    +0.013 A 
ATOM     20  C   UNL     1       1.601  -2.098  -0.025  0.00  0.00    +0.149 A 
ATOM     21  C   UNL     1       2.945  -2.146  -0.038  0.00  0.00    +0.130 A 
ATOM     22  N   UNL     1       3.456  -0.870  -0.036  0.00  0.00    -0.358 N 
ATOM     23  H   UNL     1       4.401  -0.647  -0.044  0.00  0.00    +0.165 HD
ENDBRANCH  13  20
ENDBRANCH   1  13
BRANCH   5  24
ATOM     24  C   UNL     1       3.280  -6.131   2.682  0.00  0.00    +0.190 C 
BRANCH  24  25
ATOM     25  O   UNL     1       4.325  -5.165   2.814  0.00  0.00    -0.392 OA
ATOM     26  H   UNL     1       4.787  -5.199   3.662  0.00  0.00    +0.210 HD
ENDBRANCH  24  25
ENDBRANCH   5  24
TORSDOF 7
