REMARK  Name = ZINC39669695
REMARK  8 active torsions:
REMARK  status: ('A' for Active; 'I' for Inactive)
REMARK    1  A    between atoms: C_1  and  C_2
REMARK    2  A    between atoms: C_6  and  C_9
REMARK    3  A    between atoms: C_13  and  C_22
REMARK    4  A    between atoms: N_24  and  C_25
REMARK    5  A    between atoms: C_25  and  C_26
REMARK    6  A    between atoms: C_26  and  C_27
REMARK    7  A    between atoms: C_26  and  C_28
REMARK    8  A    between atoms: C_26  and  N_29
REMARK                            x       y       z     vdW  Elec       q    Type
REMARK                         _______ _______ _______ _____ _____    ______ ____
ROOT
ATOM      1  C   UNL     1       0.250  -2.995   2.233  0.00  0.00    +0.251 C 
ATOM      2  O   UNL     1       1.289  -3.304   2.784  0.00  0.00    -0.270 OA
ATOM      3  N   UNL     1      -0.931  -3.264   2.824  0.00  0.00    -0.296 N 
ATOM      4  C   UNL     1      -2.290  -2.972   2.310  0.00  0.00    +0.121 C 
ATOM      5  C   UNL     1      -3.129  -4.210   2.700  0.00  0.00    +0.100 C 
ATOM      6  C   UNL     1      -2.386  -4.825   3.898  0.00  0.00    -0.004 C 
ATOM      7  C   UNL     1      -1.165  -3.924   4.130  0.00  0.00    +0.115 C 
ATOM      8  C   UNL     1      -3.284  -4.829   5.131  0.00  0.00    -0.010 C 
ATOM      9  C   UNL     1      -2.545  -5.498   6.293  0.00  0.00    -0.082 C 
ATOM     10  N   UNL     1      -2.186  -6.872   5.921  0.00  0.00    +0.379 N 
ATOM     11  C   UNL     1      -1.248  -6.856   4.792  0.00  0.00    -0.082 C 
ATOM     12  C   UNL     1      -1.933  -6.244   3.566  0.00  0.00    -0.010 C 
ATOM     13  H   UNL     1      -1.753  -7.330   6.710  0.00  0.00    -0.086 HD
ATOM     14  H   UNL     1      -3.019  -7.376   5.658  0.00  0.00    -0.086 HD
ENDROOT
BRANCH   1  20
ATOM     15  C   UNL     1       0.404   1.194  -0.480  0.00  0.00    +0.047 C 
ATOM     16  C   UNL     1       0.356  -0.310  -0.394  0.00  0.00    -0.014 A 
ATOM     17  C   UNL     1       0.343  -1.067  -1.551  0.00  0.00    +0.007 A 
ATOM     18  C   UNL     1       0.299  -2.448  -1.482  0.00  0.00    +0.021 A 
ATOM     19  C   UNL     1       0.269  -3.082  -0.256  0.00  0.00    +0.056 A 
ATOM     20  C   UNL     1       0.283  -2.325   0.918  0.00  0.00    +0.091 A 
ATOM     21  C   UNL     1       0.332  -0.929   0.842  0.00  0.00    +0.140 A 
ATOM     22  F   UNL     1       0.351  -0.188   1.971  0.00  0.00    -0.204 F 
ATOM     23 CL   UNL     1       0.214  -4.815  -0.174  0.00  0.00    -0.083 Cl
ENDBRANCH   1  20
BRANCH   5  24
ATOM     24  C   UNL     1      -3.184  -5.189   1.555  0.00  0.00    +0.218 C 
ATOM     25  O   UNL     1      -2.300  -5.201   0.725  0.00  0.00    -0.275 OA
ATOM     26  N   UNL     1      -4.216  -6.050   1.454  0.00  0.00    -0.313 N 
ATOM     27  H   UNL     1      -4.923  -6.040   2.118  0.00  0.00    +0.149 HD
BRANCH  26  28
ATOM     28  C   UNL     1      -4.270  -7.001   0.341  0.00  0.00    +0.126 C 
BRANCH  28  29
ATOM     29  C   UNL     1      -5.594  -7.766   0.388  0.00  0.00    +0.032 C 
ATOM     30  C   UNL     1      -6.752  -6.797   0.139  0.00  0.00    +0.029 C 
ATOM     31  C   UNL     1      -5.595  -8.850  -0.692  0.00  0.00    +0.029 C 
BRANCH  29  32
ATOM     32  N   UNL     1      -5.753  -8.390   1.708  0.00  0.00    -0.291 NA
ATOM     33  C   UNL     1      -4.631  -9.294   2.002  0.00  0.00    +0.113 C 
ATOM     34  C   UNL     1      -4.806  -9.875   3.407  0.00  0.00    +0.175 C 
ATOM     35  O   UNL     1      -6.071 -10.537   3.490  0.00  0.00    -0.377 OA
ATOM     36  C   UNL     1      -7.186  -9.686   3.211  0.00  0.00    +0.175 C 
ATOM     37  C   UNL     1      -7.035  -9.103   1.803  0.00  0.00    +0.113 C 
ENDBRANCH  29  32
ENDBRANCH  28  29
ENDBRANCH  26  28
ENDBRANCH   5  24
TORSDOF 5
