REMARK  Name = ZINC46672743
REMARK  7 active torsions:
REMARK  status: ('A' for Active; 'I' for Inactive)
REMARK    1  A    between atoms: C_1  and  C_2
REMARK    2  A    between atoms: C_7  and  C_8
REMARK    3  A    between atoms: C_8  and  C_10
REMARK    4  A    between atoms: C_8  and  N_29
REMARK    5  A    between atoms: C_10  and  C_11
REMARK    6  A    between atoms: N_16  and  S_19
REMARK    7  A    between atoms: S_19  and  C_22
REMARK                            x       y       z     vdW  Elec       q    Type
REMARK                         _______ _______ _______ _____ _____    ______ ____
ROOT
ATOM      1  C   UNL     1      -1.441   1.293   4.069  0.00  0.00    +0.218 C 
ATOM      2  O   UNL     1      -0.408   1.535   4.657  0.00  0.00    -0.276 OA
ATOM      3  N   UNL     1      -2.610   1.772   4.537  0.00  0.00    -0.299 N 
ATOM      4  C   UNL     1      -3.870   1.482   3.839  0.00  0.00    +0.125 C 
ATOM      5  C   UNL     1      -4.845   0.838   4.833  0.00  0.00    +0.128 C 
ATOM      6  N   UNL     1      -4.883   1.658   6.051  0.00  0.00    -0.174 NA
ATOM      7  C   UNL     1      -3.623   1.949   6.750  0.00  0.00    +0.128 C 
ATOM      8  C   UNL     1      -2.649   2.588   5.759  0.00  0.00    +0.125 C 
ENDROOT
BRANCH   6   9
ATOM      9  S   UNL     1      -6.321   2.246   6.627  0.00  0.00    +0.061 S 
ATOM     10  O   UNL     1      -6.008   3.392   7.407  0.00  0.00    -0.153 OA
ATOM     11  O   UNL     1      -7.210   2.299   5.520  0.00  0.00    -0.153 OA
BRANCH   9  12
ATOM     12  C   UNL     1      -6.969   1.042   7.737  0.00  0.00    +0.107 A 
ATOM     13  C   UNL     1      -7.797   0.040   7.265  0.00  0.00    +0.028 A 
ATOM     14  C   UNL     1      -8.306  -0.905   8.135  0.00  0.00    +0.003 A 
ATOM     15  C   UNL     1      -7.987  -0.849   9.479  0.00  0.00    +0.020 A 
ATOM     16  C   UNL     1      -7.159   0.152   9.953  0.00  0.00    +0.043 A 
ATOM     17  C   UNL     1      -6.645   1.095   9.080  0.00  0.00    +0.048 A 
ATOM     18 CL   UNL     1      -6.759   0.223  11.641  0.00  0.00    -0.083 Cl
ENDBRANCH   9  12
ENDBRANCH   6   9
BRANCH   1  19
ATOM     19  C   UNL     1      -1.416   0.458   2.815  0.00  0.00    +0.123 C 
BRANCH  19  20
ATOM     20  C   UNL     1       0.024   0.045   2.505  0.00  0.00    +0.114 C 
BRANCH  20  27
ATOM     21  C   UNL     1       2.552  -0.399   1.178  0.00  0.00    +0.044 C 
ATOM     22  C   UNL     1       1.274  -0.898   0.553  0.00  0.00    -0.045 A 
ATOM     23  C   UNL     1       1.312  -1.573  -0.653  0.00  0.00    +0.004 A 
ATOM     24  C   UNL     1       0.141  -2.030  -1.227  0.00  0.00    +0.000 A 
ATOM     25  C   UNL     1      -1.069  -1.812  -0.594  0.00  0.00    +0.000 A 
ATOM     26  C   UNL     1      -1.107  -1.138   0.612  0.00  0.00    +0.006 A 
ATOM     27  C   UNL     1       0.065  -0.685   1.188  0.00  0.00    -0.024 A 
ENDBRANCH  20  27
BRANCH  20  28
ATOM     28  N   UNL     1       0.520  -0.834   3.567  0.00  0.00    -0.292 N 
ATOM     29  C   UNL     1      -0.067  -2.029   3.781  0.00  0.00    +0.298 C 
ATOM     30  O   UNL     1      -0.946  -2.416   3.036  0.00  0.00    -0.253 OA
ATOM     31  N   UNL     1       0.321  -2.793   4.821  0.00  0.00    -0.313 N 
ATOM     32  H   UNL     1       1.270  -0.557   4.116  0.00  0.00    +0.151 HD
ATOM     33  H   UNL     1       1.022  -2.484   5.415  0.00  0.00    +0.146 HD
ATOM     34  H   UNL     1      -0.102  -3.653   4.975  0.00  0.00    +0.146 HD
ENDBRANCH  20  28
ENDBRANCH  19  20
ENDBRANCH   1  19
TORSDOF 6
