REMARK  Name = ZINC48728969
REMARK  2 active torsions:
REMARK  status: ('A' for Active; 'I' for Inactive)
REMARK    1  A    between atoms: C_9  and  N_11
REMARK    2  A    between atoms: N_14  and  C_15
REMARK                            x       y       z     vdW  Elec       q    Type
REMARK                         _______ _______ _______ _____ _____    ______ ____
ROOT
ATOM      1  N   UNL     1       4.147  -1.058   1.302  0.00  0.00    -0.293 N 
ATOM      2  C   UNL     1       5.090  -0.183   1.704  0.00  0.00    +0.300 C 
ATOM      3  O   UNL     1       5.457   0.702   0.956  0.00  0.00    -0.253 OA
ATOM      4  N   UNL     1       5.626  -0.289   2.936  0.00  0.00    -0.295 N 
ATOM      5  H   UNL     1       3.854  -1.764   1.899  0.00  0.00    +0.151 HD
ATOM      6  H   UNL     1       5.333  -0.996   3.533  0.00  0.00    +0.151 HD
ENDROOT
BRANCH   1  15
ATOM      7  C   UNL     1      -0.017   1.377   0.010  0.00  0.00    +0.000 A 
ATOM      8  C   UNL     1       1.172   2.083   0.002  0.00  0.00    +0.000 A 
ATOM      9  C   UNL     1       2.376   1.406  -0.013  0.00  0.00    +0.006 A 
ATOM     10  C   UNL     1       2.396   0.021  -0.021  0.00  0.00    -0.024 A 
ATOM     11  C   UNL     1       1.208  -0.685  -0.013  0.00  0.00    -0.042 A 
ATOM     12  C   UNL     1       0.002  -0.004   0.002  0.00  0.00    +0.004 A 
ATOM     13  C   UNL     1       1.496  -2.171  -0.025  0.00  0.00    +0.037 C 
ATOM     14  C   UNL     1       2.966  -2.294  -0.480  0.00  0.00    +0.032 C 
ATOM     15  C   UNL     1       3.564  -0.942  -0.037  0.00  0.00    +0.105 C 
ENDBRANCH   1  15
BRANCH   4  16
ATOM     16  C   UNL     1       6.651   0.662   3.373  0.00  0.00    +0.097 C 
ATOM     17  C   UNL     1       8.038   0.173   2.925  0.00  0.00    +0.046 C 
ATOM     18  C   UNL     1       9.142   0.984   3.645  0.00  0.00    +0.168 C 
ATOM     19  S   UNL     1       8.325   1.467   5.221  0.00  0.00    -0.029 S 
ATOM     20  O   UNL     1       8.941   0.768   6.294  0.00  0.00    -0.174 OA
ATOM     21  O   UNL     1       8.225   2.883   5.274  0.00  0.00    -0.174 OA
ATOM     22  C   UNL     1       6.650   0.757   4.926  0.00  0.00    +0.188 C 
ENDBRANCH   4  16
TORSDOF 2
