REMARK  Name = ZINC05901138
REMARK  5 active torsions:
REMARK  status: ('A' for Active; 'I' for Inactive)
REMARK    1  A    between atoms: C_1  and  C_2
REMARK    2  A    between atoms: C_6  and  C_26
REMARK    3  A    between atoms: C_7  and  N_8
REMARK    4  A    between atoms: N_14  and  C_15
REMARK    5  A    between atoms: C_17  and  C_25
REMARK                            x       y       z     vdW  Elec       q    Type
REMARK                         _______ _______ _______ _____ _____    ______ ____
ROOT
ATOM      1  N   UNL     1      -0.559   2.249   6.835  0.00  0.00    -0.294 N 
ATOM      2  C   UNL     1      -0.010   2.476   8.068  0.00  0.00    +0.150 C 
ATOM      3  S   UNL     1      -0.290   4.011   8.887  0.00  0.00    -0.016 SA
ATOM      4  N   UNL     1       0.732   1.544   8.644  0.00  0.00    -0.308 N 
ATOM      5  C   UNL     1       1.351   1.803   9.806  0.00  0.00    +0.204 C 
ATOM      6  N   UNL     1       2.135   0.839  10.397  0.00  0.00    -0.369 N 
ATOM      7  N   UNL     1       1.209   2.987  10.383  0.00  0.00    -0.177 NA
ATOM      8  H   UNL     1      -0.573   1.350   6.469  0.00  0.00    +0.154 HD
ATOM      9  H   UNL     1       2.928   1.096  10.892  0.00  0.00    +0.159 HD
ATOM     10  H   UNL     1       1.894  -0.097  10.318  0.00  0.00    +0.159 HD
ATOM     11  H   UNL     1       0.827   0.673   8.227  0.00  0.00    +0.170 HD
ENDROOT
BRANCH   7  12
ATOM     12  C   UNL     1       1.654   3.182  11.644  0.00  0.00    +0.254 A 
ATOM     13  N   UNL     1       1.600   4.414  12.163  0.00  0.00    -0.215 NA
ATOM     14  C   UNL     1       2.018   4.664  13.384  0.00  0.00    +0.051 A 
ATOM     15  C   UNL     1       2.532   3.600  14.152  0.00  0.00    +0.022 A 
ATOM     16  C   UNL     1       2.996   3.787  15.461  0.00  0.00    +0.012 A 
ATOM     17  C   UNL     1       3.483   2.722  16.160  0.00  0.00    +0.001 A 
ATOM     18  C   UNL     1       3.527   1.452  15.591  0.00  0.00    +0.002 A 
ATOM     19  C   UNL     1       3.084   1.234  14.321  0.00  0.00    +0.028 A 
ATOM     20  C   UNL     1       2.575   2.306  13.571  0.00  0.00    +0.077 A 
ATOM     21  N   UNL     1       2.123   2.144  12.323  0.00  0.00    -0.211 NA
ATOM     22  C   UNL     1       1.949   6.059  13.951  0.00  0.00    +0.066 C 
ENDBRANCH   7  12
BRANCH   1  29
ATOM     23  C   UNL     1      -3.074   3.301   7.650  0.00  0.00    +0.045 C 
ATOM     24  C   UNL     1      -2.324   3.855   6.466  0.00  0.00    -0.029 A 
ATOM     25  C   UNL     1      -2.852   4.907   5.745  0.00  0.00    +0.005 A 
ATOM     26  C   UNL     1      -2.164   5.417   4.658  0.00  0.00    +0.001 A 
ATOM     27  C   UNL     1      -0.946   4.874   4.291  0.00  0.00    +0.005 A 
ATOM     28  C   UNL     1      -0.413   3.821   5.008  0.00  0.00    -0.029 A 
ATOM     29  C   UNL     1      -1.099   3.311   6.103  0.00  0.00    +0.039 A 
ATOM     30  C   UNL     1       0.914   3.230   4.607  0.00  0.00    +0.045 C 
ENDBRANCH   1  29
TORSDOF 2
