REMARK  Name = ZINC23441483
REMARK  5 active torsions:
REMARK  status: ('A' for Active; 'I' for Inactive)
REMARK    1  A    between atoms: C_3  and  N_8
REMARK    2  A    between atoms: N_15  and  C_23
REMARK    3  A    between atoms: C_16  and  S_18
REMARK    4  A    between atoms: S_18  and  C_19
REMARK    5  A    between atoms: C_19  and  C_20
REMARK                            x       y       z     vdW  Elec       q    Type
REMARK                         _______ _______ _______ _____ _____    ______ ____
ROOT
ATOM      1  N   UNL     1      -1.354   9.291  -0.046  0.00  0.00    -0.343 N 
ATOM      2  C   UNL     1      -0.687   8.427  -0.772  0.00  0.00    +0.111 C 
ATOM      3  C   UNL     1      -1.040   6.987  -1.028  0.00  0.00    +0.097 C 
ATOM      4  C   UNL     1      -1.123   6.185   0.281  0.00  0.00    +0.034 C 
ATOM      5  C   UNL     1      -2.009   4.976  -0.116  0.00  0.00    +0.003 C 
ATOM      6  C   UNL     1      -3.047   5.568  -1.094  0.00  0.00    +0.003 C 
ATOM      7  C   UNL     1      -2.416   6.845  -1.684  0.00  0.00    +0.034 C 
ATOM      8  N   UNL     1       0.031   6.495  -1.894  0.00  0.00    -0.268 N 
ATOM      9  C   UNL     1       0.872   7.564  -2.075  0.00  0.00    +0.141 C 
ATOM     10  N   UNL     1       0.453   8.640  -1.445  0.00  0.00    -0.326 N 
ATOM     11  H   UNL     1       1.029   9.575  -1.510  0.00  0.00    +0.169 HD
ATOM     12  H   UNL     1      -0.814  10.027   0.567  0.00  0.00    +0.167 HD
ENDROOT
BRANCH   1  15
ATOM     13  C   UNL     1      -4.792   8.063   0.094  0.00  0.00    +0.003 A 
ATOM     14  C   UNL     1      -3.412   8.071   0.099  0.00  0.00    +0.026 A 
ATOM     15  C   UNL     1      -2.723   9.276  -0.050  0.00  0.00    +0.042 A 
ATOM     16  C   UNL     1      -3.436  10.468  -0.198  0.00  0.00    +0.045 A 
ATOM     17  C   UNL     1      -4.816  10.445  -0.206  0.00  0.00    +0.043 A 
ATOM     18  C   UNL     1      -5.493   9.246  -0.058  0.00  0.00    +0.020 A 
ATOM     19 CL   UNL     1      -5.706  11.924  -0.397  0.00  0.00    -0.083 Cl
ENDBRANCH   1  15
BRANCH   8  20
ATOM     20  C   UNL     1       0.172   5.207  -2.420  0.00  0.00    +0.037 A 
ATOM     21  C   UNL     1       0.939   4.262  -1.750  0.00  0.00    +0.025 A 
ATOM     22  C   UNL     1       1.077   2.991  -2.272  0.00  0.00    +0.022 A 
ATOM     23  C   UNL     1       0.453   2.659  -3.462  0.00  0.00    +0.041 A 
ATOM     24  C   UNL     1      -0.307   3.599  -4.133  0.00  0.00    +0.022 A 
ATOM     25  C   UNL     1      -0.453   4.870  -3.613  0.00  0.00    +0.025 A 
ATOM     26 CL   UNL     1       0.629   1.060  -4.115  0.00  0.00    -0.084 Cl
ENDBRANCH   8  20
BRANCH   9  27
ATOM     27  S   UNL     1       2.341   7.504  -3.045  0.00  0.00    -0.080 S 
BRANCH  27  28
ATOM     28  C   UNL     1       2.921   9.207  -2.843  0.00  0.00    +0.202 C 
BRANCH  28  29
ATOM     29  C   UNL     1       4.205   9.395  -3.609  0.00  0.00    +0.366 C 
ATOM     30  O   UNL     1       4.680   8.472  -4.228  0.00  0.00    -0.245 OA
ATOM     31  O   UNL     1       4.822  10.587  -3.604  0.00  0.00    -0.245 OA
ENDBRANCH  28  29
ENDBRANCH  27  28
ENDBRANCH   9  27
TORSDOF 5
