REMARK  Name = ZINC10302663
REMARK  9 active torsions:
REMARK  status: ('A' for Active; 'I' for Inactive)
REMARK    1  A    between atoms: C_1  and  C_2
REMARK    2  A    between atoms: C_4  and  C_23
REMARK    3  A    between atoms: C_9  and  C_10
REMARK    4  A    between atoms: C_10  and  N_11
REMARK    5  A    between atoms: C_12  and  C_14
REMARK    6  A    between atoms: C_14  and  C_15
REMARK    7  A    between atoms: C_16  and  C_22
REMARK    8  A    between atoms: N_18  and  C_21
REMARK    9  A    between atoms: C_19  and  C_20
REMARK                            x       y       z     vdW  Elec       q    Type
REMARK                         _______ _______ _______ _____ _____    ______ ____
ROOT
ATOM      1  N   UNL     1       2.370  -3.541  -1.707  0.00  0.00    -0.311 N 
ATOM      2  C   UNL     1       1.939  -2.290  -1.450  0.00  0.00    +0.218 C 
ATOM      3  O   UNL     1       1.673  -1.540  -2.365  0.00  0.00    -0.275 OA
ATOM      4  H   UNL     1       2.583  -4.141  -0.975  0.00  0.00    +0.149 HD
ENDROOT
BRANCH   1   5
ATOM      5  C   UNL     1       2.516  -3.995  -3.092  0.00  0.00    +0.145 C 
BRANCH   5  14
ATOM      6  C   UNL     1       0.644  -6.184  -3.291  0.00  0.00    +0.044 C 
ATOM      7  C   UNL     1       2.124  -6.454  -3.198  0.00  0.00    -0.039 A 
ATOM      8  C   UNL     1       2.607  -7.770  -3.212  0.00  0.00    +0.024 A 
ATOM      9  C   UNL     1       3.938  -8.002  -3.123  0.00  0.00    +0.016 A 
ATOM     10  N   UNL     1       4.816  -6.971  -3.024  0.00  0.00    -0.326 N 
ATOM     11  H   UNL     1       5.766  -7.156  -2.961  0.00  0.00    +0.169 HD
ATOM     12  C   UNL     1       4.383  -5.696  -3.013  0.00  0.00    +0.254 A 
ATOM     13  O   UNL     1       5.185  -4.781  -2.924  0.00  0.00    -0.268 OA
ATOM     14  C   UNL     1       3.009  -5.420  -3.104  0.00  0.00    +0.037 A 
ATOM     15  C   UNL     1       4.449  -9.419  -3.133  0.00  0.00    +0.063 C 
ENDBRANCH   5  14
ENDBRANCH   1   5
BRANCH   2  16
ATOM     16  C   UNL     1       1.789  -1.823  -0.025  0.00  0.00    +0.134 C 
BRANCH  16  17
ATOM     17  C   UNL     1       1.296  -0.399  -0.013  0.00  0.00    +0.005 A 
ATOM     18  C   UNL     1       2.096   0.748  -0.014  0.00  0.00    +0.064 A 
ATOM     19  N   UNL     1       1.311   1.794  -0.001  0.00  0.00    -0.176 NA
ATOM     20  N   UNL     1      -0.016   1.345   0.009  0.00  0.00    -0.271 N 
ATOM     21  C   UNL     1       0.002  -0.004   0.002  0.00  0.00    +0.040 A 
ATOM     22  C   UNL     1      -1.203  -0.909   0.008  0.00  0.00    +0.065 C 
ATOM     23  C   UNL     1      -1.212   2.191   0.020  0.00  0.00    +0.172 C 
ATOM     24  C   UNL     1       3.603   0.775  -0.028  0.00  0.00    +0.068 C 
ENDBRANCH  16  17
ENDBRANCH   2  16
TORSDOF 4
