REMARK  Name = ZINC39596108
REMARK  8 active torsions:
REMARK  status: ('A' for Active; 'I' for Inactive)
REMARK    1  A    between atoms: C_1  and  C_2
REMARK    2  A    between atoms: C_2  and  C_4
REMARK    3  A    between atoms: C_2  and  O_30
REMARK    4  A    between atoms: C_4  and  N_5
REMARK    5  A    between atoms: C_6  and  C_8
REMARK    6  A    between atoms: C_19  and  C_21
REMARK    7  A    between atoms: C_27  and  C_29
REMARK    8  A    between atoms: O_30  and  C_31
REMARK                            x       y       z     vdW  Elec       q    Type
REMARK                         _______ _______ _______ _____ _____    ______ ____
ROOT
ATOM      1  C   UNL     1       1.371  -4.285   1.456  0.00  0.00    +0.100 C 
ATOM      2  C   UNL     1      -0.056  -4.838   1.242  0.00  0.00    +0.121 C 
ATOM      3  N   UNL     1      -0.030  -6.187   1.856  0.00  0.00    -0.300 N 
ATOM      4  C   UNL     1       0.783  -6.018   3.083  0.00  0.00    +0.115 C 
ATOM      5  C   UNL     1       1.918  -5.060   2.666  0.00  0.00    -0.004 C 
ATOM      6  C   UNL     1       2.244  -4.100   3.806  0.00  0.00    -0.010 C 
ATOM      7  C   UNL     1       2.840  -4.888   4.976  0.00  0.00    -0.082 C 
ATOM      8  N   UNL     1       4.055  -5.582   4.532  0.00  0.00    +0.379 N 
ATOM      9  C   UNL     1       3.718  -6.570   3.500  0.00  0.00    -0.082 C 
ATOM     10  C   UNL     1       3.159  -5.854   2.268  0.00  0.00    -0.010 C 
ATOM     11  C   UNL     1      -0.615  -7.313   1.401  0.00  0.00    +0.219 C 
ATOM     12  O   UNL     1      -0.502  -8.348   2.022  0.00  0.00    -0.275 OA
ATOM     13  H   UNL     1       4.705  -4.910   4.153  0.00  0.00    -0.086 HD
ATOM     14  H   UNL     1       4.480  -6.051   5.318  0.00  0.00    -0.086 HD
ENDROOT
BRANCH  11  15
ATOM     15  C   UNL     1      -1.408  -7.285   0.120  0.00  0.00    +0.078 C 
ATOM     16  C   UNL     1      -2.567  -6.296   0.259  0.00  0.00    +0.032 C 
ATOM     17  C   UNL     1      -3.351  -6.245  -1.056  0.00  0.00    +0.108 C 
ATOM     18  N   UNL     1      -3.762  -7.609  -1.415  0.00  0.00    -0.302 N 
ATOM     19  C   UNL     1      -2.737  -8.659  -1.488  0.00  0.00    +0.108 C 
ATOM     20  C   UNL     1      -1.960  -8.683  -0.168  0.00  0.00    +0.032 C 
ATOM     21  C   UNL     1      -5.054  -7.891  -1.671  0.00  0.00    +0.212 C 
ATOM     22  O   UNL     1      -5.891  -7.016  -1.607  0.00  0.00    -0.276 OA
ATOM     23  C   UNL     1      -5.460  -9.296  -2.038  0.00  0.00    +0.109 C 
ENDBRANCH  11  15
BRANCH   1  25
ATOM     24  N   UNL     1       2.368  -2.021   1.442  0.00  0.00    -0.312 N 
ATOM     25  C   UNL     1       1.321  -2.809   1.758  0.00  0.00    +0.218 C 
ATOM     26  O   UNL     1       0.340  -2.330   2.285  0.00  0.00    -0.275 OA
ATOM     27  H   UNL     1       3.153  -2.404   1.020  0.00  0.00    +0.149 HD
BRANCH  24  28
ATOM     28  C   UNL     1       2.320  -0.586   1.735  0.00  0.00    +0.148 C 
BRANCH  28  30
ATOM     29  C   UNL     1       3.626   1.543   1.697  0.00  0.00    +0.053 C 
ATOM     30  C   UNL     1       3.624   0.071   1.279  0.00  0.00    +0.187 C 
BRANCH  30  31
ATOM     31  O   UNL     1       3.732  -0.020  -0.142  0.00  0.00    -0.488 OA
BRANCH  31  32
ATOM     32  C   UNL     1       4.984   0.034  -0.671  0.00  0.00    +0.121 A 
ATOM     33  C   UNL     1       6.073   0.285   0.150  0.00  0.00    +0.048 A 
ATOM     34  C   UNL     1       7.344   0.339  -0.389  0.00  0.00    +0.042 A 
ATOM     35  C   UNL     1       7.531   0.143  -1.746  0.00  0.00    +0.124 A 
ATOM     36  C   UNL     1       6.444  -0.107  -2.567  0.00  0.00    +0.042 A 
ATOM     37  C   UNL     1       5.172  -0.168  -2.030  0.00  0.00    +0.048 A 
ATOM     38  F   UNL     1       8.774   0.198  -2.272  0.00  0.00    -0.205 F 
ENDBRANCH  31  32
ENDBRANCH  30  31
ENDBRANCH  28  30
ENDBRANCH  24  28
ENDBRANCH   1  25
TORSDOF 6
