REMARK  Name = ZINC45695339
REMARK  8 active torsions:
REMARK  status: ('A' for Active; 'I' for Inactive)
REMARK    1  A    between atoms: C_1  and  C_2
REMARK    2  A    between atoms: C_2  and  N_3
REMARK    3  A    between atoms: N_3  and  C_4
REMARK    4  A    between atoms: C_4  and  C_5
REMARK    5  A    between atoms: N_16  and  C_17
REMARK    6  A    between atoms: C_22  and  S_23
REMARK    7  A    between atoms: S_23  and  C_24
REMARK    8  A    between atoms: C_24  and  C_25
REMARK                            x       y       z     vdW  Elec       q    Type
REMARK                         _______ _______ _______ _____ _____    ______ ____
ROOT
ATOM      1  N   UNL     1       0.673  -0.056  -1.203  0.00  0.00    -0.286 N 
ATOM      2  C   UNL     1      -0.006  -0.245  -2.352  0.00  0.00    +0.305 C 
ATOM      3  O   UNL     1      -1.222  -0.279  -2.340  0.00  0.00    -0.252 OA
ATOM      4  N   UNL     1       0.661  -0.398  -3.513  0.00  0.00    -0.282 N 
ATOM      5  C   UNL     1       2.094  -0.724  -3.514  0.00  0.00    +0.128 C 
ATOM      6  C   UNL     1       2.306  -1.997  -4.343  0.00  0.00    +0.128 C 
ATOM      7  N   UNL     1       1.613  -1.841  -5.630  0.00  0.00    -0.282 N 
ATOM      8  C   UNL     1       0.180  -1.515  -5.628  0.00  0.00    +0.128 C 
ATOM      9  C   UNL     1      -0.033  -0.247  -4.799  0.00  0.00    +0.128 C 
ATOM     10  C   UNL     1       2.281  -1.993  -6.790  0.00  0.00    +0.307 C 
ATOM     11  O   UNL     1       3.484  -2.168  -6.782  0.00  0.00    -0.252 OA
ATOM     12  N   UNL     1       1.615  -1.952  -7.961  0.00  0.00    -0.268 N 
ATOM     13  H   UNL     1       0.670  -1.729  -7.974  0.00  0.00    +0.156 HD
ENDROOT
BRANCH  12  14
ATOM     14  C   UNL     1       2.286  -2.230  -9.160  0.00  0.00    +0.048 A 
ATOM     15  C   UNL     1       3.569  -2.755  -9.133  0.00  0.00    +0.024 A 
ATOM     16  C   UNL     1       4.229  -3.029 -10.316  0.00  0.00    +0.002 A 
ATOM     17  C   UNL     1       3.614  -2.780 -11.530  0.00  0.00    +0.001 A 
ATOM     18  C   UNL     1       2.335  -2.257 -11.567  0.00  0.00    +0.016 A 
ATOM     19  C   UNL     1       1.663  -1.985 -10.384  0.00  0.00    +0.030 A 
BRANCH  19  20
ATOM     20  S   UNL     1       0.029  -1.325 -10.428  0.00  0.00    -0.114 S 
BRANCH  20  21
ATOM     21  C   UNL     1      -0.340  -1.186 -12.198  0.00  0.00    +0.169 C 
BRANCH  21  22
ATOM     22  C   UNL     1      -1.728  -0.626 -12.379  0.00  0.00    +0.221 C 
ATOM     23  O   UNL     1      -2.401  -0.348 -11.409  0.00  0.00    -0.275 OA
ATOM     24  N   UNL     1      -2.220  -0.434 -13.619  0.00  0.00    -0.329 N 
ATOM     25  H   UNL     1      -1.682  -0.656 -14.394  0.00  0.00    +0.145 HD
ATOM     26  H   UNL     1      -3.113  -0.073 -13.735  0.00  0.00    +0.145 HD
ENDBRANCH  21  22
ENDBRANCH  20  21
ENDBRANCH  19  20
ENDBRANCH  12  14
BRANCH   1  28
ATOM     27  C   UNL     1      -0.544   1.261   0.459  0.00  0.00    +0.024 C 
ATOM     28  C   UNL     1      -0.025  -0.128   0.082  0.00  0.00    +0.106 C 
ENDBRANCH   1  28
BRANCH   1  29
ATOM     29  C   UNL     1       2.111   0.222  -1.241  0.00  0.00    +0.106 C 
ATOM     30  C   UNL     1       2.878  -0.981  -0.688  0.00  0.00    +0.024 C 
ENDBRANCH   1  29
TORSDOF 6
