REMARK  Name = ZINC58436162
REMARK  5 active torsions:
REMARK  status: ('A' for Active; 'I' for Inactive)
REMARK    1  A    between atoms: C_1  and  N_2
REMARK    2  A    between atoms: N_2  and  C_3
REMARK    3  A    between atoms: N_6  and  C_7
REMARK    4  A    between atoms: C_12  and  N_13
REMARK    5  A    between atoms: C_14  and  C_16
REMARK                            x       y       z     vdW  Elec       q    Type
REMARK                         _______ _______ _______ _____ _____    ______ ____
ROOT
ATOM      1  C   UNL     1      -0.063  -2.673  -2.423  0.00  0.00    +0.056 A 
ATOM      2  C   UNL     1      -0.060  -1.939  -3.600  0.00  0.00    +0.025 A 
ATOM      3  C   UNL     1      -0.147  -2.586  -4.818  0.00  0.00    +0.002 A 
ATOM      4  C   UNL     1      -0.237  -3.965  -4.869  0.00  0.00    +0.002 A 
ATOM      5  C   UNL     1      -0.241  -4.705  -3.701  0.00  0.00    +0.025 A 
ATOM      6  C   UNL     1      -0.148  -4.064  -2.474  0.00  0.00    +0.055 A 
ENDROOT
BRANCH   1  12
ATOM      7  C   UNL     1       1.203   1.200   0.143  0.00  0.00    +0.133 C 
ATOM      8  N   UNL     1       0.581  -0.124   0.058  0.00  0.00    -0.291 N 
ATOM      9  C   UNL     1      -0.056  -0.712   1.238  0.00  0.00    +0.133 C 
ATOM     10  C   UNL     1       0.596  -0.801  -1.108  0.00  0.00    +0.306 C 
ATOM     11  O   UNL     1       1.125  -0.313  -2.088  0.00  0.00    -0.252 OA
ATOM     12  N   UNL     1       0.025  -2.019  -1.187  0.00  0.00    -0.268 N 
ATOM     13  H   UNL     1      -0.326  -2.443  -0.388  0.00  0.00    +0.156 HD
ENDBRANCH   1  12
BRANCH   6  14
ATOM     14  N   UNL     1      -0.146  -4.811  -1.290  0.00  0.00    -0.277 N 
ATOM     15  C   UNL     1      -0.714  -6.033  -1.264  0.00  0.00    +0.284 C 
ATOM     16  O   UNL     1      -1.317  -6.446  -2.237  0.00  0.00    -0.266 OA
ATOM     17  H   UNL     1       0.265  -4.450  -0.489  0.00  0.00    +0.155 HD
BRANCH  15  18
ATOM     18  C   UNL     1      -0.605  -6.866  -0.063  0.00  0.00    +0.191 A 
ATOM     19  C   UNL     1      -1.126  -8.119   0.095  0.00  0.00    +0.056 A 
ATOM     20  C   UNL     1      -0.785  -8.538   1.389  0.00  0.00    +0.063 A 
ATOM     21  C   UNL     1      -0.078  -7.534   1.960  0.00  0.00    +0.195 A 
ATOM     22  O   UNL     1       0.033  -6.531   1.079  0.00  0.00    -0.439 OA
ATOM     23 CL   UNL     1       0.582  -7.548   3.565  0.00  0.00    -0.043 Cl
ENDBRANCH  15  18
ENDBRANCH   6  14
TORSDOF 3
