REMARK  Name = ZINC63133414
REMARK  5 active torsions:
REMARK  status: ('A' for Active; 'I' for Inactive)
REMARK    1  A    between atoms: C_7  and  C_10
REMARK    2  A    between atoms: C_10  and  C_11
REMARK    3  A    between atoms: N_13  and  N_14
REMARK    4  A    between atoms: C_15  and  C_17
REMARK    5  A    between atoms: C_24  and  C_26
REMARK                            x       y       z     vdW  Elec       q    Type
REMARK                         _______ _______ _______ _____ _____    ______ ____
ROOT
ATOM      1  N   UNL     1      -1.025  -4.770  -3.260  0.00  0.00    -0.234 N 
ATOM      2  C   UNL     1      -1.806  -5.842  -3.497  0.00  0.00    +0.234 C 
ATOM      3  O   UNL     1      -2.434  -6.347  -2.591  0.00  0.00    -0.274 OA
ATOM      4  H   UNL     1      -0.522  -4.366  -3.985  0.00  0.00    +0.173 HD
ENDROOT
BRANCH   2   5
ATOM      5  C   UNL     1      -1.897  -6.415  -4.888  0.00  0.00    +0.094 C 
ATOM      6  C   UNL     1      -2.841  -7.619  -4.884  0.00  0.00    +0.016 C 
ATOM      7  C   UNL     1      -2.960  -8.182  -6.302  0.00  0.00    +0.020 C 
ATOM      8  C   UNL     1      -1.582  -8.650  -6.779  0.00  0.00    +0.108 C 
ATOM      9  N   UNL     1      -0.633  -7.535  -6.649  0.00  0.00    -0.297 N 
ATOM     10  C   UNL     1      -0.506  -6.862  -5.349  0.00  0.00    +0.120 C 
ATOM     11  C   UNL     1       0.107  -7.138  -7.703  0.00  0.00    +0.250 C 
ATOM     12  O   UNL     1       0.044  -7.745  -8.755  0.00  0.00    -0.270 OA
BRANCH  11  13
ATOM     13  C   UNL     1       0.994  -5.967  -7.580  0.00  0.00    +0.074 A 
ATOM     14  C   UNL     1       1.859  -5.622  -6.442  0.00  0.00    +0.054 A 
ATOM     15  C   UNL     1       2.475  -4.479  -6.781  0.00  0.00    +0.195 A 
ATOM     16  O   UNL     1       2.068  -4.105  -8.004  0.00  0.00    -0.470 OA
ATOM     17  C   UNL     1       1.189  -4.980  -8.502  0.00  0.00    +0.207 A 
ENDBRANCH  11  13
ENDBRANCH   2   5
BRANCH   1  20
ATOM     18  C   UNL     1      -0.159  -3.164  -1.730  0.00  0.00    +0.233 C 
ATOM     19  O   UNL     1       0.470  -2.660  -2.636  0.00  0.00    -0.274 OA
ATOM     20  N   UNL     1      -0.940  -4.237  -1.967  0.00  0.00    -0.234 N 
ATOM     21  H   UNL     1      -1.443  -4.641  -1.242  0.00  0.00    +0.173 HD
BRANCH  18  22
ATOM     22  C   UNL     1      -0.068  -2.592  -0.339  0.00  0.00    +0.130 C 
BRANCH  22  29
ATOM     23  C   UNL     1      -0.797   1.922  -0.730  0.00  0.00    +0.001 A 
ATOM     24  C   UNL     1       0.377   2.687  -0.684  0.00  0.00    +0.002 A 
ATOM     25  C   UNL     1       1.601   2.136  -0.538  0.00  0.00    +0.026 A 
ATOM     26  C   UNL     1       1.746   0.726  -0.422  0.00  0.00    +0.043 A 
ATOM     27  N   UNL     1       2.804  -0.034  -0.276  0.00  0.00    -0.380 N 
ATOM     28  C   UNL     1       2.370  -1.433  -0.211  0.00  0.00    +0.145 C 
ATOM     29  C   UNL     1       0.863  -1.407  -0.344  0.00  0.00    -0.033 C 
ATOM     30  C   UNL     1       0.521  -0.104  -0.468  0.00  0.00    -0.001 A 
ATOM     31  C   UNL     1      -0.771   0.573  -0.629  0.00  0.00    +0.010 A 
ATOM     32  H   UNL     1       3.721   0.278  -0.219  0.00  0.00    +0.160 HD
ENDBRANCH  22  29
ENDBRANCH  18  22
ENDBRANCH   1  20
TORSDOF 5
