REMARK  Name = ZINC37645807
REMARK  8 active torsions:
REMARK  status: ('A' for Active; 'I' for Inactive)
REMARK    1  A    between atoms: C_1  and  N_2
REMARK    2  A    between atoms: N_2  and  S_3
REMARK    3  A    between atoms: S_3  and  C_6
REMARK    4  A    between atoms: C_9  and  N_13
REMARK    5  A    between atoms: C_10  and  N_12
REMARK    6  A    between atoms: N_13  and  C_14
REMARK    7  A    between atoms: C_14  and  C_15
REMARK    8  A    between atoms: N_19  and  C_21
REMARK                            x       y       z     vdW  Elec       q    Type
REMARK                         _______ _______ _______ _____ _____    ______ ____
ROOT
ATOM      1  C   UNL     1      -2.247  -0.499  -1.505  0.00  0.00    +0.107 A 
ATOM      2  C   UNL     1      -3.116   0.573  -1.583  0.00  0.00    +0.030 A 
ATOM      3  C   UNL     1      -3.768   0.855  -2.769  0.00  0.00    +0.026 A 
ATOM      4  C   UNL     1      -3.550   0.063  -3.885  0.00  0.00    +0.048 A 
ATOM      5  C   UNL     1      -2.672  -1.018  -3.807  0.00  0.00    +0.048 A 
ATOM      6  C   UNL     1      -2.019  -1.291  -2.615  0.00  0.00    +0.053 A 
ENDROOT
BRANCH   1   7
ATOM      7  S   UNL     1      -1.421  -0.852   0.011  0.00  0.00    +0.058 S 
ATOM      8  O   UNL     1      -1.073  -2.229  -0.027  0.00  0.00    -0.153 OA
ATOM      9  O   UNL     1      -2.218  -0.295   1.047  0.00  0.00    -0.153 OA
BRANCH   7  11
ATOM     10  C   UNL     1      -0.018   1.461   0.010  0.00  0.00    +0.127 C 
ATOM     11  N   UNL     1       0.002  -0.004   0.002  0.00  0.00    -0.193 NA
ATOM     12  H   UNL     1       0.849  -0.478  -0.009  0.00  0.00    +0.148 HD
ENDBRANCH   7  11
ENDBRANCH   1   7
BRANCH   5  13
ATOM     13  N   UNL     1      -2.447  -1.823  -4.931  0.00  0.00    -0.356 N 
ATOM     14  H   UNL     1      -2.902  -1.629  -5.765  0.00  0.00    +0.142 HD
ATOM     15  H   UNL     1      -1.836  -2.575  -4.875  0.00  0.00    +0.142 HD
ENDBRANCH   5  13
BRANCH   4  16
ATOM     16  N   UNL     1      -4.208   0.346  -5.088  0.00  0.00    -0.342 N 
ATOM     17  H   UNL     1      -4.054  -0.209  -5.868  0.00  0.00    +0.146 HD
BRANCH  16  18
ATOM     18  C   UNL     1      -5.130   1.482  -5.168  0.00  0.00    +0.103 C 
BRANCH  18  19
ATOM     19  C   UNL     1      -5.711   1.569  -6.580  0.00  0.00    -0.012 C 
ATOM     20  C   UNL     1      -6.662   0.376  -6.857  0.00  0.00    -0.016 C 
ATOM     21  C   UNL     1      -7.604   0.969  -7.935  0.00  0.00    -0.079 C 
ATOM     22  N   UNL     1      -7.793   2.380  -7.536  0.00  0.00    +0.378 N 
ATOM     23  C   UNL     1      -6.638   2.796  -6.715  0.00  0.00    -0.074 C 
ATOM     24  C   UNL     1      -7.874   3.226  -8.734  0.00  0.00    -0.096 C 
ATOM     25  H   UNL     1      -8.643   2.470  -7.000  0.00  0.00    -0.082 HD
ENDBRANCH  18  19
ENDBRANCH  16  18
ENDBRANCH   4  16
TORSDOF 6
