REMARK  Name = ZINC66135663
REMARK  3 active torsions:
REMARK  status: ('A' for Active; 'I' for Inactive)
REMARK    1  A    between atoms: C_1  and  C_2
REMARK    2  A    between atoms: C_3  and  C_17
REMARK    3  A    between atoms: C_4  and  C_9
REMARK                            x       y       z     vdW  Elec       q    Type
REMARK                         _______ _______ _______ _____ _____    ______ ____
ROOT
ATOM      1  C   UNL     1      -0.535   1.448   0.043  0.00  0.00    +0.066 C 
ATOM      2  C   UNL     1      -0.244  -0.030   0.018  0.00  0.00    +0.056 A 
ATOM      3  C   UNL     1      -0.254  -0.734  -1.192  0.00  0.00    +0.084 A 
ATOM      4  C   UNL     1       0.025  -2.118  -1.159  0.00  0.00    +0.090 A 
ATOM      5  N   UNL     1       0.283  -2.692   0.012  0.00  0.00    -0.214 NA
ATOM      6  C   UNL     1       0.280  -1.981   1.129  0.00  0.00    +0.213 A 
ATOM      7  N   UNL     1       0.027  -0.678   1.135  0.00  0.00    -0.219 NA
ATOM      8  N   UNL     1       0.552  -2.614   2.325  0.00  0.00    -0.327 N 
ATOM      9  H   UNL     1       0.742  -3.565   2.337  0.00  0.00    +0.145 HD
ATOM     10  H   UNL     1       0.553  -2.108   3.152  0.00  0.00    +0.145 HD
ENDROOT
BRANCH   4  11
ATOM     11  C   UNL     1       0.030  -2.916  -2.406  0.00  0.00    +0.020 A 
ATOM     12  C   UNL     1       0.799  -2.507  -3.497  0.00  0.00    +0.013 A 
ATOM     13  C   UNL     1       0.800  -3.254  -4.656  0.00  0.00    +0.021 A 
ATOM     14  C   UNL     1       0.038  -4.408  -4.740  0.00  0.00    +0.042 A 
ATOM     15  C   UNL     1      -0.727  -4.819  -3.663  0.00  0.00    +0.040 A 
ATOM     16  C   UNL     1      -0.731  -4.083  -2.494  0.00  0.00    +0.052 A 
ATOM     17 CL   UNL     1      -1.686  -4.603  -1.141  0.00  0.00    -0.083 Cl
ATOM     18 CL   UNL     1       0.043  -5.342  -6.204  0.00  0.00    -0.083 Cl
ENDBRANCH   4  11
BRANCH   3  19
ATOM     19  C   UNL     1      -0.546  -0.051  -2.464  0.00  0.00    +0.245 C 
ATOM     20  O   UNL     1       0.359   0.436  -3.115  0.00  0.00    -0.270 OA
ATOM     21  N   UNL     1      -1.817   0.036  -2.906  0.00  0.00    -0.325 N 
ATOM     22  H   UNL     1      -2.538  -0.352  -2.386  0.00  0.00    +0.145 HD
ATOM     23  H   UNL     1      -2.009   0.486  -3.743  0.00  0.00    +0.145 HD
ENDBRANCH   3  19
TORSDOF 2
