REMARK  Name = ZINC15039871
REMARK  8 active torsions:
REMARK  status: ('A' for Active; 'I' for Inactive)
REMARK    1  A    between atoms: C_3  and  O_29
REMARK    2  A    between atoms: C_6  and  N_7
REMARK    3  A    between atoms: C_8  and  C_10
REMARK    4  A    between atoms: C_10  and  C_11
REMARK    5  A    between atoms: C_11  and  C_12
REMARK    6  A    between atoms: C_12  and  N_13
REMARK    7  A    between atoms: C_17  and  C_18
REMARK    8  A    between atoms: C_23  and  O_24
REMARK                            x       y       z     vdW  Elec       q    Type
REMARK                         _______ _______ _______ _____ _____    ______ ____
ROOT
ATOM      1  N   UNL     1       3.847  -1.966   0.293  0.00  0.00    -0.255 N 
ATOM      2  C   UNL     1       4.322  -0.738   0.163  0.00  0.00    +0.258 C 
ATOM      3  O   UNL     1       5.518  -0.517   0.122  0.00  0.00    -0.269 OA
ATOM      4  C   UNL     1       3.328   0.349   0.069  0.00  0.00    +0.077 C 
ATOM      5  C   UNL     1       3.519   1.687  -0.068  0.00  0.00    +0.032 C 
ATOM      6  S   UNL     1       1.804  -0.578   0.192  0.00  0.00    -0.061 S 
ATOM      7  C   UNL     1       2.521  -2.207   0.337  0.00  0.00    +0.121 C 
ATOM      8  S   UNL     1       1.718  -3.711   0.499  0.00  0.00    -0.027 S 
ENDROOT
BRANCH   5   9
ATOM      9  C   UNL     1       2.373   2.570  -0.315  0.00  0.00    +0.019 A 
ATOM     10  C   UNL     1       1.207   2.064  -0.903  0.00  0.00    +0.031 A 
ATOM     11  C   UNL     1       0.138   2.902  -1.137  0.00  0.00    +0.042 A 
ATOM     12  C   UNL     1       0.206   4.240  -0.782  0.00  0.00    +0.023 A 
ATOM     13  C   UNL     1       1.351   4.752  -0.202  0.00  0.00    +0.047 A 
ATOM     14  C   UNL     1       2.438   3.928   0.037  0.00  0.00    +0.124 A 
ATOM     15 CL   UNL     1      -1.305   2.276  -1.873  0.00  0.00    -0.084 Cl
BRANCH  14  16
ATOM     16  O   UNL     1       3.563   4.431   0.607  0.00  0.00    -0.506 OA
ATOM     17  H   UNL     1       4.209   4.768  -0.028  0.00  0.00    +0.292 HD
ENDBRANCH  14  16
ENDBRANCH   5   9
BRANCH   1  18
ATOM     18  C   UNL     1       4.782  -3.089   0.392  0.00  0.00    +0.115 C 
BRANCH  18  19
ATOM     19  C   UNL     1       5.129  -3.336   1.861  0.00  0.00    +0.029 C 
BRANCH  19  20
ATOM     20  C   UNL     1       6.106  -4.509   1.964  0.00  0.00    +0.097 C 
BRANCH  20  22
ATOM     21  N   UNL     1       7.297  -5.744   3.746  0.00  0.00    -0.285 N 
ATOM     22  C   UNL     1       6.447  -4.752   3.412  0.00  0.00    +0.217 C 
ATOM     23  O   UNL     1       5.957  -4.056   4.276  0.00  0.00    -0.275 OA
ATOM     24  H   UNL     1       7.745  -6.253   3.053  0.00  0.00    +0.155 HD
BRANCH  21  30
ATOM     25  C   UNL     1       8.792  -6.459   5.505  0.00  0.00    +0.027 A 
ATOM     26  C   UNL     1       9.025  -6.744   6.835  0.00  0.00    +0.047 A 
ATOM     27  C   UNL     1       8.000  -6.620   7.762  0.00  0.00    +0.117 A 
ATOM     28  C   UNL     1       6.741  -6.205   7.353  0.00  0.00    +0.047 A 
ATOM     29  C   UNL     1       6.508  -5.914   6.024  0.00  0.00    +0.027 A 
ATOM     30  C   UNL     1       7.533  -6.038   5.096  0.00  0.00    +0.034 A 
BRANCH  27  31
ATOM     31  O   UNL     1       8.229  -6.907   9.071  0.00  0.00    -0.507 OA
ATOM     32  H   UNL     1       8.065  -7.830   9.306  0.00  0.00    +0.292 HD
ENDBRANCH  27  31
ENDBRANCH  21  30
ENDBRANCH  20  22
ENDBRANCH  19  20
ENDBRANCH  18  19
ENDBRANCH   1  18
TORSDOF 8
