REMARK  Name = ZINC00719951
REMARK  5 active torsions:
REMARK  status: ('A' for Active; 'I' for Inactive)
REMARK    1  A    between atoms: C_3  and  C_6
REMARK    2  A    between atoms: C_13  and  N_29
REMARK    3  A    between atoms: C_14  and  C_27
REMARK    4  A    between atoms: C_15  and  C_17
REMARK    5  A    between atoms: C_20  and  C_23
REMARK                            x       y       z     vdW  Elec       q    Type
REMARK                         _______ _______ _______ _____ _____    ______ ____
ROOT
ATOM      1  C   UNL     1       3.740   1.825  -0.024  0.00  0.00    +0.107 A 
ATOM      2  C   UNL     1       4.835   1.222   0.607  0.00  0.00    +0.055 A 
ATOM      3  C   UNL     1       5.938   1.987   0.360  0.00  0.00    +0.223 A 
ATOM      4  N   UNL     1       5.552   3.033  -0.400  0.00  0.00    -0.246 N 
ATOM      5  H   UNL     1       6.127   3.741  -0.730  0.00  0.00    +0.192 HD
ATOM      6  N   UNL     1       4.174   2.913  -0.636  0.00  0.00    -0.170 NA
ATOM      7  O   UNL     1       7.168   1.673   0.838  0.00  0.00    -0.423 OA
ATOM      8  C   UNL     1       7.242   0.730   1.800  0.00  0.00    +0.200 C 
ATOM      9  C   UNL     1       6.222  -0.095   2.125  0.00  0.00    +0.098 C 
ATOM     10  C   UNL     1       4.885  -0.039   1.429  0.00  0.00    +0.102 C 
ENDROOT
BRANCH  10  11
ATOM     11  C   UNL     1       4.731  -1.239   0.529  0.00  0.00    -0.035 A 
ATOM     12  C   UNL     1       5.648  -1.470  -0.478  0.00  0.00    +0.005 A 
ATOM     13  C   UNL     1       5.507  -2.570  -1.303  0.00  0.00    +0.012 A 
ATOM     14  C   UNL     1       4.448  -3.439  -1.120  0.00  0.00    +0.055 A 
ATOM     15  C   UNL     1       3.530  -3.209  -0.112  0.00  0.00    +0.012 A 
ATOM     16  C   UNL     1       3.675  -2.111   0.716  0.00  0.00    +0.005 A 
BRANCH  14  17
ATOM     17  C   UNL     1       4.293  -4.638  -2.020  0.00  0.00    +0.417 C 
ATOM     18  F   UNL     1       4.977  -5.726  -1.469  0.00  0.00    -0.166 F 
ATOM     19  F   UNL     1       2.936  -4.955  -2.145  0.00  0.00    -0.166 F 
ATOM     20  F   UNL     1       4.821  -4.345  -3.282  0.00  0.00    -0.166 F 
ENDBRANCH  14  17
ENDBRANCH  10  11
BRANCH   1  23
ATOM     21  C   UNL     1      -0.016   1.353   0.009  0.00  0.00    +0.008 A 
ATOM     22  C   UNL     1       1.178   2.041   0.002  0.00  0.00    +0.018 A 
ATOM     23  C   UNL     1       2.347   1.329  -0.013  0.00  0.00    +0.040 A 
ATOM     24  S   UNL     1       1.752  -0.354  -0.017  0.00  0.00    -0.095 S 
ATOM     25  C   UNL     1       0.002  -0.004   0.002  0.00  0.00    +0.046 A 
ENDBRANCH   1  23
BRANCH   8  26
ATOM     26  N   UNL     1       8.423   0.601   2.488  0.00  0.00    -0.328 N 
ATOM     27  H   UNL     1       9.174   1.178   2.277  0.00  0.00    +0.145 HD
ATOM     28  H   UNL     1       8.507  -0.069   3.185  0.00  0.00    +0.145 HD
ENDBRANCH   8  26
BRANCH   9  29
ATOM     29  C   UNL     1       6.418  -1.056   3.168  0.00  0.00    +0.101 C 
ATOM     30  N   UNL     1       6.573  -1.818   3.996  0.00  0.00    -0.191 NA
ENDBRANCH   9  29
TORSDOF 5
