REMARK  Name = ZINC37895970
REMARK  7 active torsions:
REMARK  status: ('A' for Active; 'I' for Inactive)
REMARK    1  A    between atoms: C_1  and  N_2
REMARK    2  A    between atoms: C_4  and  S_10
REMARK    3  A    between atoms: C_6  and  C_7
REMARK    4  A    between atoms: S_10  and  N_13
REMARK    5  A    between atoms: C_18  and  C_20
REMARK    6  A    between atoms: C_20  and  C_21
REMARK    7  A    between atoms: C_21  and  O_22
REMARK                            x       y       z     vdW  Elec       q    Type
REMARK                         _______ _______ _______ _____ _____    ______ ____
ROOT
ATOM      1  S   UNL     1      -0.171  -3.571  -1.966  0.00  0.00    +0.063 S 
ATOM      2  O   UNL     1      -0.793  -4.777  -1.544  0.00  0.00    -0.153 OA
ATOM      3  O   UNL     1      -0.604  -2.852  -3.113  0.00  0.00    -0.153 OA
ENDROOT
BRANCH   1   7
ATOM      4  C   UNL     1      -0.143   0.820   0.937  0.00  0.00    +0.149 C 
ATOM      5  N   UNL     1      -0.247  -0.597   0.580  0.00  0.00    -0.344 N 
ATOM      6  C   UNL     1      -0.103  -1.111  -0.665  0.00  0.00    +0.114 A 
ATOM      7  C   UNL     1      -0.266  -2.454  -0.607  0.00  0.00    +0.124 A 
ATOM      8  C   UNL     1      -0.522  -2.797   0.725  0.00  0.00    +0.061 A 
ATOM      9  C   UNL     1      -0.502  -1.628   1.455  0.00  0.00    +0.106 A 
BRANCH   9  10
ATOM     10  C   UNL     1      -0.717  -1.506   2.901  0.00  0.00    +0.258 C 
ATOM     11  O   UNL     1      -0.762  -0.405   3.418  0.00  0.00    -0.269 OA
ATOM     12  N   UNL     1      -0.863  -2.612   3.657  0.00  0.00    -0.324 N 
ATOM     13  H   UNL     1      -0.900  -3.486   3.236  0.00  0.00    +0.145 HD
ATOM     14  H   UNL     1      -0.932  -2.535   4.621  0.00  0.00    +0.145 HD
ENDBRANCH   9  10
ENDBRANCH   1   7
BRANCH   1  15
ATOM     15  N   UNL     1       1.430  -3.921  -2.202  0.00  0.00    -0.173 NA
ATOM     16  C   UNL     1       2.194  -3.252  -3.264  0.00  0.00    +0.110 C 
ATOM     17  C   UNL     1       2.857  -4.318  -4.141  0.00  0.00    +0.017 C 
ATOM     18  C   UNL     1       3.691  -5.251  -3.260  0.00  0.00    +0.003 C 
ATOM     19  C   UNL     1       2.779  -5.954  -2.252  0.00  0.00    +0.021 C 
ATOM     20  C   UNL     1       2.115  -4.902  -1.350  0.00  0.00    +0.082 C 
BRANCH  20  21
ATOM     21  C   UNL     1       1.099  -5.580  -0.429  0.00  0.00    +0.048 C 
BRANCH  21  22
ATOM     22  C   UNL     1       1.832  -6.504   0.546  0.00  0.00    +0.157 C 
BRANCH  22  23
ATOM     23  O   UNL     1       0.878  -7.195   1.355  0.00  0.00    -0.395 OA
ATOM     24  H   UNL     1       1.273  -7.742   2.048  0.00  0.00    +0.209 HD
ENDBRANCH  22  23
ENDBRANCH  21  22
ENDBRANCH  20  21
ENDBRANCH   1  15
TORSDOF 6
