REMARK  Name = ZINC63072062
REMARK  6 active torsions:
REMARK  status: ('A' for Active; 'I' for Inactive)
REMARK    1  A    between atoms: C_1  and  C_2
REMARK    2  A    between atoms: C_2  and  C_18
REMARK    3  A    between atoms: C_7  and  C_9
REMARK    4  A    between atoms: C_9  and  C_10
REMARK    5  A    between atoms: C_9  and  C_11
REMARK    6  A    between atoms: C_9  and  N_17
REMARK                            x       y       z     vdW  Elec       q    Type
REMARK                         _______ _______ _______ _____ _____    ______ ____
ROOT
ATOM      1  C   UNL     1       2.574  -0.742   2.800  0.00  0.00    +0.116 C 
ATOM      2  C   UNL     1       4.057  -0.398   2.947  0.00  0.00    +0.042 C 
ENDROOT
BRANCH   1   9
ATOM      3  C   UNL     1       0.493   2.025   0.033  0.00  0.00    +0.031 C 
ATOM      4  C   UNL     1       0.092   0.551   0.126  0.00  0.00    +0.032 C 
ATOM      5  C   UNL     1      -1.435   0.434   0.319  0.00  0.00    +0.027 C 
ATOM      6  C   UNL     1      -1.570  -0.746   1.316  0.00  0.00    +0.021 C 
ATOM      7  C   UNL     1      -0.325  -0.538   2.215  0.00  0.00    +0.108 C 
ATOM      8  N   UNL     1       0.729  -0.068   1.297  0.00  0.00    -0.294 N 
ATOM      9  C   UNL     1       2.056  -0.187   1.498  0.00  0.00    +0.240 C 
ATOM     10  O   UNL     1       2.833   0.153   0.632  0.00  0.00    -0.273 OA
ATOM     11  C   UNL     1       0.516  -0.184  -1.147  0.00  0.00    +0.031 C 
ENDBRANCH   1   9
BRANCH   1  12
ATOM     12  C   UNL     1       2.402  -2.240   2.811  0.00  0.00    -0.019 A 
ATOM     13  C   UNL     1       2.599  -2.966   1.651  0.00  0.00    +0.006 A 
ATOM     14  C   UNL     1       2.442  -4.340   1.661  0.00  0.00    +0.000 A 
ATOM     15  C   UNL     1       2.088  -4.986   2.831  0.00  0.00    +0.000 A 
ATOM     16  C   UNL     1       1.892  -4.260   3.990  0.00  0.00    +0.000 A 
ATOM     17  C   UNL     1       2.054  -2.887   3.982  0.00  0.00    +0.006 A 
ENDBRANCH   1  12
BRANCH   1  18
ATOM     18  N   UNL     1       1.821  -0.155   3.917  0.00  0.00    -0.314 NA
ATOM     19  H   UNL     1       1.963   0.843   3.963  0.00  0.00    +0.119 HD
ATOM     20  H   UNL     1       0.840  -0.379   3.849  0.00  0.00    +0.119 HD
ENDBRANCH   1  18
TORSDOF 3
