REMARK  Name = ZINC38598500
REMARK  5 active torsions:
REMARK  status: ('A' for Active; 'I' for Inactive)
REMARK    1  A    between atoms: C_1  and  C_2
REMARK    2  A    between atoms: C_3  and  C_19
REMARK    3  A    between atoms: N_6  and  C_7
REMARK    4  A    between atoms: C_7  and  C_9
REMARK    5  A    between atoms: C_11  and  C_16
REMARK                            x       y       z     vdW  Elec       q    Type
REMARK                         _______ _______ _______ _____ _____    ______ ____
ROOT
ATOM      1  C   UNL     1       3.400  -2.465  -0.031  0.00  0.00    +0.254 C 
ATOM      2  O   UNL     1       3.614  -1.267  -0.025  0.00  0.00    -0.272 OA
ENDROOT
BRANCH   1   8
ATOM      3  C   UNL     1      -0.018   1.503   0.010  0.00  0.00    +0.064 C 
ATOM      4  C   UNL     1       0.002  -0.004   0.002  0.00  0.00    +0.024 A 
ATOM      5  C   UNL     1      -1.131  -0.715   0.004  0.00  0.00    +0.009 A 
ATOM      6  S   UNL     1      -0.516  -2.389  -0.009  0.00  0.00    -0.057 S 
ATOM      7  C   UNL     1       1.132  -2.055  -0.016  0.00  0.00    +0.163 A 
ATOM      8  N   UNL     1       2.152  -2.915  -0.027  0.00  0.00    -0.156 NA
ATOM      9  N   UNL     1       1.173  -0.696  -0.013  0.00  0.00    -0.339 N 
ATOM     10  H   UNL     1       2.022  -0.228  -0.019  0.00  0.00    +0.167 HD
ATOM     11  C   UNL     1      -2.557  -0.229   0.014  0.00  0.00    +0.053 C 
ENDBRANCH   1   8
BRANCH   1  12
ATOM     12  C   UNL     1       4.552  -3.436  -0.043  0.00  0.00    +0.169 C 
ATOM     13  C   UNL     1       5.828  -2.800  -0.673  0.00  0.00    +0.090 C 
ATOM     14  N   UNL     1       6.996  -3.535  -0.153  0.00  0.00    -0.243 NA
ATOM     15  N   UNL     1       6.946  -3.697   1.306  0.00  0.00    -0.199 NA
ATOM     16  S   UNL     1       5.190  -3.748   1.659  0.00  0.00    -0.051 S 
ATOM     17  C   UNL     1       5.771  -2.923  -2.197  0.00  0.00    +0.027 C 
ATOM     18  H   UNL     1       7.096  -4.428  -0.613  0.00  0.00    +0.142 HD
ATOM     19  H   UNL     1       7.387  -2.918   1.772  0.00  0.00    +0.154 HD
ENDBRANCH   1  12
TORSDOF 2
