REMARK  Name = ZINC42877991
REMARK  7 active torsions:
REMARK  status: ('A' for Active; 'I' for Inactive)
REMARK    1  A    between atoms: C_1  and  C_2
REMARK    2  A    between atoms: C_2  and  C_4
REMARK    3  A    between atoms: C_2  and  N_22
REMARK    4  A    between atoms: C_4  and  C_5
REMARK    5  A    between atoms: C_10  and  O_11
REMARK    6  A    between atoms: O_11  and  C_12
REMARK    7  A    between atoms: C_12  and  C_13
REMARK                            x       y       z     vdW  Elec       q    Type
REMARK                         _______ _______ _______ _____ _____    ______ ____
ROOT
ATOM      1  C   UNL     1      -1.416  -2.035  -0.119  0.00  0.00    -0.004 A 
ATOM      2  C   UNL     1      -1.554  -2.620  -1.364  0.00  0.00    +0.056 A 
ATOM      3  C   UNL     1      -1.538  -3.999  -1.489  0.00  0.00    +0.167 A 
ATOM      4  C   UNL     1      -1.383  -4.797  -0.358  0.00  0.00    +0.170 A 
ATOM      5  C   UNL     1      -1.244  -4.209   0.888  0.00  0.00    +0.095 A 
ATOM      6  C   UNL     1      -1.256  -2.827   1.007  0.00  0.00    +0.128 A 
ATOM      7  O   UNL     1      -1.401  -6.107  -0.743  0.00  0.00    -0.452 OA
ATOM      8  C   UNL     1      -1.976  -6.113  -2.062  0.00  0.00    +0.466 C 
ATOM      9  O   UNL     1      -1.653  -4.810  -2.582  0.00  0.00    -0.453 OA
ENDROOT
BRANCH   1  10
ATOM     10  C   UNL     1      -1.433  -0.534   0.013  0.00  0.00    +0.022 C 
BRANCH  10  12
ATOM     11  C   UNL     1      -0.019   1.526   0.010  0.00  0.00    -0.014 C 
ATOM     12  C   UNL     1       0.002  -0.004   0.002  0.00  0.00    -0.074 C 
BRANCH  12  13
ATOM     13  N   UNL     1       0.713  -0.491   1.192  0.00  0.00    +0.380 N 
ATOM     14  H   UNL     1       0.240  -0.165   2.022  0.00  0.00    -0.090 HD
ATOM     15  H   UNL     1       0.726  -1.500   1.187  0.00  0.00    -0.090 HD
ATOM     16  H   UNL     1       1.659  -0.141   1.185  0.00  0.00    -0.090 HD
ENDBRANCH  12  13
ENDBRANCH  10  12
ENDBRANCH   1  10
BRANCH   6  17
ATOM     17  O   UNL     1      -1.115  -2.249   2.230  0.00  0.00    -0.486 OA
BRANCH  17  18
ATOM     18  C   UNL     1      -0.954  -3.126   3.347  0.00  0.00    +0.271 C 
BRANCH  18  19
ATOM     19  C   UNL     1      -0.813  -2.312   4.608  0.00  0.00    +0.028 A 
ATOM     20  C   UNL     1      -1.778  -1.880   5.457  0.00  0.00    +0.016 A 
ATOM     21  C   UNL     1      -1.412  -1.139   6.565  0.00  0.00    +0.023 A 
ATOM     22  C   UNL     1      -0.100  -0.866   6.770  0.00  0.00    +0.055 A 
ATOM     23  S   UNL     1       0.667  -1.675   5.375  0.00  0.00    -0.083 S 
ATOM     24 BR   UNL     1       0.709   0.111   8.172  0.00  0.00    -0.043 Br
ENDBRANCH  18  19
ENDBRANCH  17  18
ENDBRANCH   6  17
TORSDOF 6
