REMARK  Name = ZINC23449155
REMARK  6 active torsions:
REMARK  status: ('A' for Active; 'I' for Inactive)
REMARK    1  A    between atoms: C_5  and  C_7
REMARK    2  A    between atoms: C_9  and  C_12
REMARK    3  A    between atoms: C_12  and  S_13
REMARK    4  A    between atoms: S_13  and  C_14
REMARK    5  A    between atoms: C_17  and  C_20
REMARK    6  A    between atoms: N_18  and  N_19
REMARK                            x       y       z     vdW  Elec       q    Type
REMARK                         _______ _______ _______ _____ _____    ______ ____
ROOT
ATOM      1  S   UNL     1      -1.195  -5.641  -1.743  0.00  0.00    -0.078 S 
ENDROOT
BRANCH   1   2
ATOM      2  C   UNL     1      -2.553  -6.752  -1.575  0.00  0.00    +0.209 A 
ATOM      3  N   UNL     1      -3.075  -7.182  -0.450  0.00  0.00    -0.121 NA
ATOM      4  N   UNL     1      -4.051  -7.980  -0.698  0.00  0.00    -0.132 NA
ATOM      5  C   UNL     1      -4.210  -8.105  -1.986  0.00  0.00    +0.154 A 
ATOM      6  N   UNL     1      -3.265  -7.323  -2.590  0.00  0.00    -0.228 N 
BRANCH   5   7
ATOM      7  C   UNL     1      -5.247  -8.950  -2.679  0.00  0.00    +0.059 C 
ATOM      8  C   UNL     1      -6.644  -8.480  -2.271  0.00  0.00    +0.011 C 
ATOM      9  C   UNL     1      -7.697  -9.338  -2.976  0.00  0.00    +0.001 C 
ATOM     10  C   UNL     1      -7.514 -10.803  -2.573  0.00  0.00    +0.000 C 
ATOM     11  C   UNL     1      -6.116 -11.273  -2.981  0.00  0.00    +0.001 C 
ATOM     12  C   UNL     1      -5.064 -10.415  -2.277  0.00  0.00    +0.011 C 
ENDBRANCH   5   7
BRANCH   6  13
ATOM     13  N   UNL     1      -3.072  -7.151  -3.932  0.00  0.00    -0.295 N 
ATOM     14  H   UNL     1      -2.425  -7.836  -4.294  0.00  0.00    +0.163 HD
ATOM     15  H   UNL     1      -3.948  -7.182  -4.430  0.00  0.00    +0.163 HD
ENDBRANCH   6  13
ENDBRANCH   1   2
BRANCH   1  16
ATOM     16  C   UNL     1      -0.718  -5.270  -0.033  0.00  0.00    +0.133 C 
BRANCH  16  19
ATOM     17  C   UNL     1       1.249  -2.161  -0.023  0.00  0.00    +0.110 A 
ATOM     18  N   UNL     1       0.240  -3.021  -0.023  0.00  0.00    -0.243 NA
ATOM     19  C   UNL     1       0.449  -4.316  -0.033  0.00  0.00    +0.059 A 
ATOM     20  C   UNL     1       1.721  -4.797  -0.042  0.00  0.00    +0.071 A 
ATOM     21  S   UNL     1       2.651  -3.270  -0.044  0.00  0.00    -0.075 S 
BRANCH  17  26
ATOM     22  C   UNL     1      -0.017   1.375   0.010  0.00  0.00    +0.001 A 
ATOM     23  C   UNL     1       1.170   2.087   0.002  0.00  0.00    +0.001 A 
ATOM     24  C   UNL     1       2.383   1.422  -0.013  0.00  0.00    +0.020 A 
ATOM     25  C   UNL     1       2.416   0.041  -0.021  0.00  0.00    +0.051 A 
ATOM     26  C   UNL     1       1.222  -0.682  -0.014  0.00  0.00    +0.025 A 
ATOM     27  C   UNL     1       0.002  -0.004   0.002  0.00  0.00    +0.012 A 
ATOM     28 CL   UNL     1       3.938  -0.793  -0.041  0.00  0.00    -0.083 Cl
ENDBRANCH  17  26
ENDBRANCH  16  19
ENDBRANCH   1  16
TORSDOF 6
