REMARK  Name = ZINC52795709
REMARK  10 active torsions:
REMARK  status: ('A' for Active; 'I' for Inactive)
REMARK    1  A    between atoms: C_1  and  C_2
REMARK    2  A    between atoms: C_3  and  C_12
REMARK    3  A    between atoms: C_4  and  C_11
REMARK    4  A    between atoms: N_5  and  C_7
REMARK    5  A    between atoms: C_7  and  C_8
REMARK    6  A    between atoms: C_8  and  C_9
REMARK    7  A    between atoms: C_12  and  C_13
REMARK    8  A    between atoms: C_13  and  C_14
REMARK    9  A    between atoms: N_16  and  S_17
REMARK   10  A    between atoms: S_17  and  N_20
REMARK                            x       y       z     vdW  Elec       q    Type
REMARK                         _______ _______ _______ _____ _____    ______ ____
ROOT
ATOM      1  C   UNL     1       1.431  -0.162  -3.057  0.00  0.00    +0.107 C 
ENDROOT
BRANCH   1   2
ATOM      2  C   UNL     1       1.417   0.313  -4.487  0.00  0.00    +0.266 C 
ATOM      3  O   UNL     1       2.579   0.542  -5.133  0.00  0.00    -0.269 OA
ATOM      4  N   UNL     1       0.294   0.501  -5.094  0.00  0.00    -0.080 NA
BRANCH   4   5
ATOM      5  S   UNL     1       0.278   1.022  -6.665  0.00  0.00    +0.142 S 
ATOM      6  O   UNL     1       0.811   2.340  -6.661  0.00  0.00    -0.134 OA
ATOM      7  O   UNL     1       0.840  -0.024  -7.446  0.00  0.00    -0.134 OA
BRANCH   5   8
ATOM      8  N   UNL     1      -1.308   1.155  -7.122  0.00  0.00    -0.160 NA
ATOM      9  C   UNL     1      -2.012   0.013  -7.721  0.00  0.00    +0.111 C 
ATOM     10  C   UNL     1      -3.297  -0.245  -6.928  0.00  0.00    +0.017 C 
ATOM     11  C   UNL     1      -4.123   1.042  -6.869  0.00  0.00    +0.003 C 
ATOM     12  C   UNL     1      -3.323   2.131  -6.151  0.00  0.00    +0.017 C 
ATOM     13  C   UNL     1      -2.040   2.414  -6.929  0.00  0.00    +0.111 C 
ENDBRANCH   5   8
ENDBRANCH   4   5
ENDBRANCH   1   2
BRANCH   1  14
ATOM     14  C   UNL     1      -0.006  -0.343  -2.566  0.00  0.00    +0.048 C 
BRANCH  14  17
ATOM     15  C   UNL     1      -0.018   1.503   0.010  0.00  0.00    +0.068 C 
ATOM     16  C   UNL     1       0.002  -0.004   0.002  0.00  0.00    +0.063 A 
ATOM     17  C   UNL     1       0.008  -0.818  -1.135  0.00  0.00    -0.004 A 
ATOM     18  C   UNL     1       0.028  -2.107  -0.725  0.00  0.00    +0.040 A 
ATOM     19  N   UNL     1       0.034  -2.109   0.625  0.00  0.00    -0.267 N 
ATOM     20  N   UNL     1       0.023  -0.777   1.058  0.00  0.00    -0.176 NA
ATOM     21  C   UNL     1       0.040  -3.323  -1.615  0.00  0.00    +0.065 C 
BRANCH  19  22
ATOM     22  C   UNL     1       0.055  -3.295   1.485  0.00  0.00    +0.158 C 
BRANCH  22  23
ATOM     23  C   UNL     1       1.504  -3.688   1.777  0.00  0.00    +0.141 C 
BRANCH  23  24
ATOM     24  C   UNL     1       1.525  -4.879   2.642  0.00  0.00    +0.064 C 
ATOM     25  N   UNL     1       1.541  -5.798   3.308  0.00  0.00    -0.197 NA
ENDBRANCH  23  24
ENDBRANCH  22  23
ENDBRANCH  19  22
ENDBRANCH  14  17
ENDBRANCH   1  14
TORSDOF 8
