REMARK  Name = ZINC16627126
REMARK  10 active torsions:
REMARK  status: ('A' for Active; 'I' for Inactive)
REMARK    1  A    between atoms: C_1  and  C_2
REMARK    2  A    between atoms: C_2  and  C_4
REMARK    3  A    between atoms: C_2  and  N_17
REMARK    4  A    between atoms: N_6  and  C_7
REMARK    5  A    between atoms: N_17  and  C_18
REMARK    6  A    between atoms: N_17  and  C_19
REMARK    7  A    between atoms: C_19  and  C_20
REMARK    8  A    between atoms: N_22  and  C_23
REMARK    9  A    between atoms: C_26  and  O_29
REMARK   10  A    between atoms: O_29  and  C_30
REMARK                            x       y       z     vdW  Elec       q    Type
REMARK                         _______ _______ _______ _____ _____    ______ ____
ROOT
ATOM      1  C   UNL     1       0.125   1.678  -0.085  0.00  0.00    -0.004 C 
ATOM      2  C   UNL     1       0.142   0.151   0.010  0.00  0.00    +0.017 C 
ENDROOT
BRANCH   2   3
ATOM      3  C   UNL     1       0.495  -0.261   1.416  0.00  0.00    +0.203 C 
ATOM      4  O   UNL     1      -0.358  -0.724   2.144  0.00  0.00    -0.277 OA
ATOM      5  N   UNL     1       1.758  -0.117   1.864  0.00  0.00    -0.286 N 
ATOM      6  H   UNL     1       2.426   0.307   1.303  0.00  0.00    +0.155 HD
BRANCH   5   7
ATOM      7  C   UNL     1       2.104  -0.576   3.136  0.00  0.00    +0.041 A 
ATOM      8  C   UNL     1       1.193  -0.516   4.169  0.00  0.00    +0.024 A 
ATOM      9  C   UNL     1       1.528  -0.971   5.441  0.00  0.00    +0.002 A 
ATOM     10  C   UNL     1       2.761  -1.487   5.700  0.00  0.00    +0.008 A 
ATOM     11  C   UNL     1       3.719  -1.565   4.675  0.00  0.00    -0.016 A 
ATOM     12  C   UNL     1       3.388  -1.110   3.375  0.00  0.00    +0.003 A 
ATOM     13  C   UNL     1       4.344  -1.193   2.351  0.00  0.00    +0.010 A 
ATOM     14  C   UNL     1       5.573  -1.714   2.618  0.00  0.00    +0.001 A 
ATOM     15  C   UNL     1       5.898  -2.168   3.895  0.00  0.00    +0.001 A 
ATOM     16  C   UNL     1       5.000  -2.092   4.915  0.00  0.00    +0.008 A 
ENDBRANCH   5   7
ENDBRANCH   2   3
BRANCH   2  17
ATOM     17  N   UNL     1      -1.185  -0.376  -0.337  0.00  0.00    +0.391 N 
ATOM     18  C   UNL     1      -1.133  -1.844  -0.378  0.00  0.00    -0.094 C 
ATOM     19  H   UNL     1      -1.855  -0.083   0.358  0.00  0.00    -0.080 HD
BRANCH  17  20
ATOM     20  C   UNL     1      -1.587   0.137  -1.653  0.00  0.00    +0.020 C 
BRANCH  20  21
ATOM     21  C   UNL     1      -2.996  -0.303  -1.955  0.00  0.00    +0.201 C 
ATOM     22  O   UNL     1      -3.606  -0.978  -1.152  0.00  0.00    -0.278 OA
ATOM     23  N   UNL     1      -3.579   0.053  -3.117  0.00  0.00    -0.287 N 
ATOM     24  H   UNL     1      -3.068   0.529  -3.790  0.00  0.00    +0.155 HD
BRANCH  23  25
ATOM     25  C   UNL     1      -4.923  -0.265  -3.352  0.00  0.00    +0.034 A 
ATOM     26  C   UNL     1      -5.347  -0.581  -4.636  0.00  0.00    +0.027 A 
ATOM     27  C   UNL     1      -6.672  -0.895  -4.867  0.00  0.00    +0.047 A 
ATOM     28  C   UNL     1      -7.579  -0.894  -3.818  0.00  0.00    +0.120 A 
ATOM     29  C   UNL     1      -7.156  -0.578  -2.535  0.00  0.00    +0.047 A 
ATOM     30  C   UNL     1      -5.830  -0.271  -2.301  0.00  0.00    +0.027 A 
BRANCH  28  31
ATOM     31  O   UNL     1      -8.883  -1.203  -4.046  0.00  0.00    -0.495 OA
ATOM     32  C   UNL     1      -9.762  -1.183  -2.920  0.00  0.00    +0.277 C 
ENDBRANCH  28  31
ENDBRANCH  23  25
ENDBRANCH  20  21
ENDBRANCH  17  20
ENDBRANCH   2  17
TORSDOF 7
