REMARK  Name = ZINC65410667
REMARK  4 active torsions:
REMARK  status: ('A' for Active; 'I' for Inactive)
REMARK    1  A    between atoms: C_1  and  C_2
REMARK    2  A    between atoms: C_2  and  C_4
REMARK    3  A    between atoms: C_2  and  N_11
REMARK    4  A    between atoms: C_15  and  C_23
REMARK                            x       y       z     vdW  Elec       q    Type
REMARK                         _______ _______ _______ _____ _____    ______ ____
ROOT
ATOM      1  N   UNL     1       0.688  -0.476  -1.203  0.00  0.00    -0.322 N 
ATOM      2  C   UNL     1       2.060  -0.589  -1.215  0.00  0.00    +0.132 A 
ATOM      3  C   UNL     1       2.771  -1.052  -2.407  0.00  0.00    +0.039 A 
ATOM      4  C   UNL     1       2.104  -1.399  -3.579  0.00  0.00    +0.028 A 
ATOM      5  C   UNL     1       2.840  -1.832  -4.678  0.00  0.00    +0.064 A 
ATOM      6  C   UNL     1       4.243  -1.919  -4.604  0.00  0.00    +0.017 A 
ATOM      7  C   UNL     1       4.904  -1.583  -3.466  0.00  0.00    +0.027 A 
ATOM      8  C   UNL     1       4.186  -1.143  -2.342  0.00  0.00    +0.052 A 
ATOM      9  N   UNL     1       4.798  -0.802  -1.202  0.00  0.00    -0.327 N 
ATOM     10  C   UNL     1       4.108  -0.391  -0.156  0.00  0.00    +0.192 A 
ATOM     11  N   UNL     1       2.784  -0.277  -0.148  0.00  0.00    -0.201 NA
ATOM     12  N   UNL     1       4.800  -0.055   0.991  0.00  0.00    -0.329 N 
ATOM     13  H   UNL     1       0.175  -0.710  -1.993  0.00  0.00    +0.148 HD
ATOM     14  H   UNL     1       5.767  -0.124   1.013  0.00  0.00    +0.145 HD
ATOM     15  H   UNL     1       4.318   0.251   1.776  0.00  0.00    +0.145 HD
ATOM     16  H   UNL     1       5.765  -0.859  -1.144  0.00  0.00    +0.169 HD
ENDROOT
BRANCH   5  17
ATOM     17  C   UNL     1       2.148  -2.203  -5.923  0.00  0.00    +0.387 C 
ATOM     18  O   UNL     1       0.929  -2.129  -5.990  0.00  0.00    -0.241 OA
ATOM     19  O   UNL     1       2.792  -2.584  -6.891  0.00  0.00    -0.241 OA
ENDBRANCH   5  17
BRANCH   1  21
ATOM     20  C   UNL     1      -0.019   1.526   0.010  0.00  0.00    +0.033 C 
ATOM     21  C   UNL     1       0.002  -0.004   0.002  0.00  0.00    +0.099 C 
BRANCH  21  22
ATOM     22  C   UNL     1      -1.412  -0.526   0.013  0.00  0.00    -0.027 A 
ATOM     23  C   UNL     1      -2.141  -0.569  -1.161  0.00  0.00    +0.007 A 
ATOM     24  C   UNL     1      -3.438  -1.047  -1.152  0.00  0.00    +0.020 A 
ATOM     25  C   UNL     1      -4.006  -1.483   0.032  0.00  0.00    +0.041 A 
ATOM     26  C   UNL     1      -3.275  -1.440   1.206  0.00  0.00    +0.020 A 
ATOM     27  C   UNL     1      -1.977  -0.966   1.195  0.00  0.00    +0.007 A 
ATOM     28 CL   UNL     1      -5.635  -2.083   0.045  0.00  0.00    -0.084 Cl
ENDBRANCH  21  22
ENDBRANCH   1  21
TORSDOF 3
