REMARK  Name = ZINC35363899
REMARK  7 active torsions:
REMARK  status: ('A' for Active; 'I' for Inactive)
REMARK    1  A    between atoms: C_1  and  C_2
REMARK    2  A    between atoms: C_4  and  C_38
REMARK    3  A    between atoms: C_13  and  C_16
REMARK    4  A    between atoms: C_16  and  C_18
REMARK    5  A    between atoms: C_16  and  O_19
REMARK    6  A    between atoms: N_22  and  C_25
REMARK    7  A    between atoms: C_25  and  C_26
REMARK                            x       y       z     vdW  Elec       q    Type
REMARK                         _______ _______ _______ _____ _____    ______ ____
ROOT
ATOM      1  C   UNL     1      -0.061   1.458  -0.043  0.00  0.00    +0.044 C 
ATOM      2  C   UNL     1      -0.050  -0.049  -0.040  0.00  0.00    -0.050 A 
ATOM      3  C   UNL     1      -0.172  -0.745  -1.228  0.00  0.00    +0.008 A 
ATOM      4  C   UNL     1      -0.164  -2.125  -1.230  0.00  0.00    -0.029 A 
ATOM      5  C   UNL     1      -0.029  -2.827  -0.035  0.00  0.00    +0.042 A 
ATOM      6  C   UNL     1       0.096  -2.115   1.155  0.00  0.00    +0.004 A 
ATOM      7  C   UNL     1       0.089  -0.738   1.152  0.00  0.00    +0.011 A 
ATOM      8  C   UNL     1       0.224  -3.147   2.239  0.00  0.00    +0.136 C 
ATOM      9  C   UNL     1      -0.891  -3.014   3.282  0.00  0.00    +0.123 C 
ATOM     10  C   UNL     1      -0.240  -2.229   4.455  0.00  0.00    +0.109 C 
ATOM     11  C   UNL     1       1.208  -1.959   3.995  0.00  0.00    +0.096 C 
ATOM     12  N   UNL     1       1.491  -2.998   2.979  0.00  0.00    -0.293 NA
ATOM     13  C   UNL     1      -1.018  -0.932   4.481  0.00  0.00    +0.228 C 
ATOM     14  O   UNL     1      -0.835  -0.021   5.258  0.00  0.00    -0.275 OA
ATOM     15  N   UNL     1      -1.941  -0.948   3.512  0.00  0.00    -0.237 N 
ATOM     16  C   UNL     1      -1.964  -2.079   2.771  0.00  0.00    +0.229 C 
ATOM     17  O   UNL     1      -2.713  -2.312   1.847  0.00  0.00    -0.275 OA
ATOM     18  C   UNL     1       0.156  -4.471   1.529  0.00  0.00    +0.243 C 
ATOM     19  O   UNL     1       0.222  -5.570   2.038  0.00  0.00    -0.273 OA
ATOM     20  N   UNL     1       0.008  -4.200   0.218  0.00  0.00    -0.283 N 
ATOM     21  C   UNL     1      -0.300  -2.875  -2.530  0.00  0.00    +0.045 C 
ATOM     22  H   UNL     1       1.753  -3.864   3.426  0.00  0.00    +0.124 HD
ATOM     23  H   UNL     1      -0.064  -4.879  -0.471  0.00  0.00    +0.155 HD
ENDROOT
BRANCH  11  24
ATOM     24  C   UNL     1       2.172  -2.067   5.178  0.00  0.00    +0.129 C 
ATOM     25  C   UNL     1       3.600  -1.796   4.699  0.00  0.00    +0.039 C 
BRANCH  24  26
ATOM     26  O   UNL     1       1.814  -1.107   6.174  0.00  0.00    -0.390 OA
ATOM     27  H   UNL     1       1.842  -0.191   5.866  0.00  0.00    +0.210 HD
ENDBRANCH  24  26
ENDBRANCH  11  24
BRANCH  15  28
ATOM     28  C   UNL     1      -2.860   0.168   3.274  0.00  0.00    +0.151 C 
BRANCH  28  29
ATOM     29  C   UNL     1      -4.068   0.022   4.163  0.00  0.00    -0.026 A 
ATOM     30  C   UNL     1      -5.125  -0.776   3.765  0.00  0.00    +0.009 A 
ATOM     31  C   UNL     1      -6.235  -0.913   4.577  0.00  0.00    +0.050 A 
ATOM     32  C   UNL     1      -6.291  -0.252   5.793  0.00  0.00    +0.166 A 
ATOM     33  C   UNL     1      -5.226   0.551   6.194  0.00  0.00    +0.167 A 
ATOM     34  C   UNL     1      -4.114   0.680   5.378  0.00  0.00    +0.054 A 
ATOM     35  O   UNL     1      -5.520   1.088   7.415  0.00  0.00    -0.453 OA
ATOM     36  C   UNL     1      -6.943   0.932   7.570  0.00  0.00    +0.466 C 
ATOM     37  O   UNL     1      -7.252  -0.219   6.762  0.00  0.00    -0.453 OA
ENDBRANCH  28  29
ENDBRANCH  15  28
TORSDOF 4
