REMARK  Name = ZINC10942657
REMARK  7 active torsions:
REMARK  status: ('A' for Active; 'I' for Inactive)
REMARK    1  A    between atoms: C_1  and  C_2
REMARK    2  A    between atoms: C_2  and  C_4
REMARK    3  A    between atoms: C_2  and  N_15
REMARK    4  A    between atoms: N_6  and  C_7
REMARK    5  A    between atoms: N_15  and  C_16
REMARK    6  A    between atoms: C_19  and  N_23
REMARK    7  A    between atoms: C_24  and  C_26
REMARK                            x       y       z     vdW  Elec       q    Type
REMARK                         _______ _______ _______ _____ _____    ______ ____
ROOT
ATOM      1  C   UNL     1       0.054   1.508   0.417  0.00  0.00    +0.038 C 
ATOM      2  C   UNL     1       0.124  -0.020   0.371  0.00  0.00    +0.154 C 
ENDROOT
BRANCH   2   3
ATOM      3  C   UNL     1       0.882  -0.524   1.572  0.00  0.00    +0.237 C 
ATOM      4  O   UNL     1       0.342  -1.270   2.361  0.00  0.00    -0.273 OA
ATOM      5  N   UNL     1       2.161  -0.146   1.769  0.00  0.00    -0.283 N 
ATOM      6  H   UNL     1       2.571   0.504   1.177  0.00  0.00    +0.155 HD
BRANCH   5   7
ATOM      7  C   UNL     1       2.897  -0.691   2.828  0.00  0.00    +0.053 A 
ATOM      8  C   UNL     1       2.268  -0.995   4.028  0.00  0.00    +0.025 A 
ATOM      9  C   UNL     1       2.996  -1.533   5.071  0.00  0.00    +0.003 A 
ATOM     10  C   UNL     1       4.351  -1.769   4.922  0.00  0.00    +0.021 A 
ATOM     11  C   UNL     1       4.981  -1.468   3.728  0.00  0.00    +0.061 A 
ATOM     12  C   UNL     1       4.256  -0.934   2.678  0.00  0.00    +0.080 A 
ATOM     13 CL   UNL     1       5.046  -0.561   1.177  0.00  0.00    -0.080 Cl
ATOM     14 CL   UNL     1       6.681  -1.767   3.545  0.00  0.00    -0.082 Cl
ENDBRANCH   5   7
ENDBRANCH   2   3
BRANCH   2  15
ATOM     15  N   UNL     1      -1.234  -0.571   0.385  0.00  0.00    -0.333 N 
ATOM     16  H   UNL     1      -1.638  -0.845   1.223  0.00  0.00    +0.147 HD
BRANCH  15  17
ATOM     17  C   UNL     1      -1.947  -0.702  -0.811  0.00  0.00    +0.029 A 
ATOM     18  C   UNL     1      -3.234  -1.224  -0.799  0.00  0.00    +0.025 A 
ATOM     19  C   UNL     1      -3.938  -1.353  -1.979  0.00  0.00    +0.026 A 
ATOM     20  C   UNL     1      -3.361  -0.961  -3.179  0.00  0.00    +0.052 A 
ATOM     21  C   UNL     1      -2.074  -0.438  -3.192  0.00  0.00    +0.064 A 
ATOM     22  C   UNL     1      -1.371  -0.304  -2.011  0.00  0.00    +0.044 A 
ATOM     23 CL   UNL     1      -1.352   0.054  -4.693  0.00  0.00    -0.082 Cl
BRANCH  20  24
ATOM     24  N   UNL     1      -4.077  -1.091  -4.378  0.00  0.00    -0.285 N 
ATOM     25  C   UNL     1      -5.425  -1.106  -4.359  0.00  0.00    +0.214 C 
ATOM     26  O   UNL     1      -6.019  -0.905  -3.321  0.00  0.00    -0.276 OA
ATOM     27  C   UNL     1      -6.193  -1.371  -5.628  0.00  0.00    +0.109 C 
ATOM     28  H   UNL     1      -3.603  -1.170  -5.220  0.00  0.00    +0.155 HD
ENDBRANCH  20  24
ENDBRANCH  15  17
ENDBRANCH   2  15
TORSDOF 5
