REMARK  Name = ZINC42767952
REMARK  3 active torsions:
REMARK  status: ('A' for Active; 'I' for Inactive)
REMARK    1  A    between atoms: C_3  and  N_4
REMARK    2  A    between atoms: N_4  and  C_5
REMARK    3  A    between atoms: C_5  and  C_6
REMARK                            x       y       z     vdW  Elec       q    Type
REMARK                         _______ _______ _______ _____ _____    ______ ____
ROOT
ATOM      1  N   UNL     1      -0.392  -0.678  -1.238  0.00  0.00    -0.274 N 
ATOM      2  C   UNL     1       0.233  -0.382  -2.394  0.00  0.00    +0.300 C 
ATOM      3  O   UNL     1      -0.152  -0.874  -3.437  0.00  0.00    -0.253 OA
ATOM      4  N   UNL     1       1.285   0.461  -2.395  0.00  0.00    -0.313 N 
ATOM      5  H   UNL     1       1.639   0.796  -1.556  0.00  0.00    +0.146 HD
ATOM      6  H   UNL     1       1.689   0.732  -3.234  0.00  0.00    +0.146 HD
ENDROOT
BRANCH   1   9
ATOM      7  C   UNL     1       0.634  -0.857   1.102  0.00  0.00    +0.024 C 
ATOM      8  C   UNL     1      -0.793  -0.331   1.268  0.00  0.00    +0.024 C 
ATOM      9  C   UNL     1       0.001  -0.003   0.002  0.00  0.00    +0.078 C 
ENDBRANCH   1   9
BRANCH   1  10
ATOM     10  C   UNL     1      -1.464  -1.676  -1.220  0.00  0.00    +0.222 C 
BRANCH  10  11
ATOM     11  C   UNL     1      -2.807  -0.987  -1.471  0.00  0.00    +0.405 C 
ATOM     12  F   UNL     1      -2.779  -0.354  -2.719  0.00  0.00    -0.169 F 
ATOM     13  F   UNL     1      -3.831  -1.940  -1.454  0.00  0.00    -0.169 F 
ATOM     14  F   UNL     1      -3.038  -0.036  -0.471  0.00  0.00    -0.169 F 
ENDBRANCH  10  11
ENDBRANCH   1  10
TORSDOF 3
