REMARK  Name = ZINC65492456
REMARK  7 active torsions:
REMARK  status: ('A' for Active; 'I' for Inactive)
REMARK    1  A    between atoms: C_1  and  C_2
REMARK    2  A    between atoms: C_3  and  C_8
REMARK    3  A    between atoms: C_4  and  C_7
REMARK    4  A    between atoms: N_10  and  C_11
REMARK    5  A    between atoms: C_11  and  C_13
REMARK    6  A    between atoms: C_11  and  C_21
REMARK    7  A    between atoms: N_23  and  C_24
REMARK                            x       y       z     vdW  Elec       q    Type
REMARK                         _______ _______ _______ _____ _____    ______ ____
ROOT
ATOM      1  C   UNL     1      -1.191   0.190  -4.624  0.00  0.00    +0.190 C 
ENDROOT
BRANCH   1   2
ATOM      2  C   UNL     1      -2.476  -0.253  -5.276  0.00  0.00    -0.016 A 
ATOM      3  C   UNL     1      -3.667  -0.173  -4.578  0.00  0.00    +0.009 A 
ATOM      4  C   UNL     1      -4.847  -0.579  -5.174  0.00  0.00    +0.041 A 
ATOM      5  C   UNL     1      -4.837  -1.065  -6.470  0.00  0.00    +0.158 A 
ATOM      6  C   UNL     1      -3.642  -1.144  -7.169  0.00  0.00    +0.159 A 
ATOM      7  C   UNL     1      -2.463  -0.733  -6.572  0.00  0.00    +0.047 A 
ATOM      8  F   UNL     1      -3.630  -1.619  -8.434  0.00  0.00    -0.202 F 
ATOM      9  F   UNL     1      -5.989  -1.462  -7.052  0.00  0.00    -0.202 F 
ENDBRANCH   1   2
BRANCH   1  10
ATOM     10  C   UNL     1      -1.089   1.692  -4.684  0.00  0.00    +0.238 C 
ATOM     11  O   UNL     1      -1.013   2.336  -3.659  0.00  0.00    -0.273 OA
ATOM     12  N   UNL     1      -1.083   2.320  -5.876  0.00  0.00    -0.317 N 
ATOM     13  C   UNL     1      -0.984   3.780  -5.934  0.00  0.00    +0.128 C 
ATOM     14  H   UNL     1      -1.144   1.805  -6.696  0.00  0.00    +0.148 HD
ENDBRANCH   1  10
BRANCH   1  17
ATOM     15  C   UNL     1      -0.005  -0.429  -2.588  0.00  0.00    +0.250 C 
ATOM     16  O   UNL     1       1.043  -0.233  -3.174  0.00  0.00    -0.270 OA
ATOM     17  N   UNL     1      -1.178  -0.246  -3.225  0.00  0.00    -0.296 N 
ATOM     18  H   UNL     1      -2.014  -0.402  -2.758  0.00  0.00    +0.150 HD
BRANCH  15  21
ATOM     19  C   UNL     1      -0.018   1.503   0.010  0.00  0.00    +0.070 C 
ATOM     20  C   UNL     1       0.002  -0.004   0.002  0.00  0.00    +0.093 A 
ATOM     21  C   UNL     1       0.009  -0.867  -1.180  0.00  0.00    +0.101 A 
ATOM     22  C   UNL     1       0.029  -2.155  -0.729  0.00  0.00    +0.147 A 
ATOM     23  O   UNL     1       0.035  -2.126   0.606  0.00  0.00    -0.359 OA
ATOM     24  N   UNL     1       0.023  -0.782   1.044  0.00  0.00    -0.083 NA
ATOM     25  C   UNL     1       0.042  -3.394  -1.587  0.00  0.00    +0.090 C 
ENDBRANCH  15  21
ENDBRANCH   1  17
TORSDOF 4
