REMARK  Name = ZINC16991506
REMARK  3 active torsions:
REMARK  status: ('A' for Active; 'I' for Inactive)
REMARK    1  A    between atoms: C_3  and  C_9
REMARK    2  A    between atoms: C_10  and  C_11
REMARK    3  A    between atoms: C_10  and  C_13
REMARK                            x       y       z     vdW  Elec       q    Type
REMARK                         _______ _______ _______ _____ _____    ______ ____
ROOT
ATOM      1  C   UNL     1       2.405   3.943   0.001  0.00  0.00    +0.034 C 
ATOM      2  C   UNL     1       2.439   5.221   0.512  0.00  0.00    +0.114 C 
ENDROOT
BRANCH   1   5
ATOM      3  C   UNL     1      -1.252   3.168  -0.235  0.00  0.00    +0.016 A 
ATOM      4  C   UNL     1      -0.070   3.875  -0.211  0.00  0.00    +0.012 A 
ATOM      5  C   UNL     1       1.143   3.199  -0.027  0.00  0.00    +0.012 A 
ATOM      6  C   UNL     1       1.142   1.804   0.133  0.00  0.00    +0.132 A 
ATOM      7  C   UNL     1      -0.053   1.112   0.106  0.00  0.00    +0.054 A 
ATOM      8  C   UNL     1      -1.245   1.790  -0.083  0.00  0.00    +0.021 A 
ATOM      9 BR   UNL     1      -2.874   0.832  -0.127  0.00  0.00    -0.050 Br
ATOM     10  F   UNL     1       2.306   1.141   0.312  0.00  0.00    -0.205 F 
ENDBRANCH   1   5
BRANCH   2  11
ATOM     11  C   UNL     1       3.669   6.023   0.405  0.00  0.00    +0.252 C 
ATOM     12  O   UNL     1       4.654   5.557  -0.134  0.00  0.00    -0.270 OA
ATOM     13  N   UNL     1       3.703   7.274   0.905  0.00  0.00    -0.325 N 
ATOM     14  H   UNL     1       2.917   7.646   1.335  0.00  0.00    +0.145 HD
ATOM     15  H   UNL     1       4.513   7.803   0.835  0.00  0.00    +0.145 HD
ENDBRANCH   2  11
BRANCH   2  16
ATOM     16  C   UNL     1       1.279   5.770   1.147  0.00  0.00    +0.104 C 
ATOM     17  N   UNL     1       0.359   6.205   1.651  0.00  0.00    -0.191 NA
ENDBRANCH   2  16
TORSDOF 3
