REMARK  Name = ZINC40328816
REMARK  6 active torsions:
REMARK  status: ('A' for Active; 'I' for Inactive)
REMARK    1  A    between atoms: C_3  and  C_8
REMARK    2  A    between atoms: C_8  and  C_9
REMARK    3  A    between atoms: C_9  and  N_10
REMARK    4  A    between atoms: N_10  and  S_11
REMARK    5  A    between atoms: S_11  and  C_14
REMARK    6  A    between atoms: C_19  and  N_20
REMARK                            x       y       z     vdW  Elec       q    Type
REMARK                         _______ _______ _______ _____ _____    ______ ____
ROOT
ATOM      1  S   UNL     1       5.886   4.067   2.787  0.00  0.00    +0.060 S 
ATOM      2  O   UNL     1       7.062   4.828   2.546  0.00  0.00    -0.153 OA
ATOM      3  O   UNL     1       4.669   4.662   3.215  0.00  0.00    -0.153 OA
ENDROOT
BRANCH   1   4
ATOM      4  C   UNL     1       6.308   2.857   3.996  0.00  0.00    +0.126 A 
ATOM      5  C   UNL     1       5.511   2.687   5.112  0.00  0.00    +0.031 A 
ATOM      6  C   UNL     1       5.840   1.738   6.061  0.00  0.00    +0.017 A 
ATOM      7  C   UNL     1       6.969   0.953   5.896  0.00  0.00    +0.020 A 
ATOM      8  C   UNL     1       7.770   1.118   4.783  0.00  0.00    +0.040 A 
ATOM      9  C   UNL     1       7.438   2.068   3.825  0.00  0.00    +0.052 A 
ATOM     10 BR   UNL     1       7.415  -0.344   7.198  0.00  0.00    -0.050 Br
BRANCH   9  11
ATOM     11  N   UNL     1       8.242   2.233   2.695  0.00  0.00    -0.356 N 
ATOM     12  H   UNL     1       7.965   2.834   1.986  0.00  0.00    +0.142 HD
ATOM     13  H   UNL     1       9.078   1.747   2.620  0.00  0.00    +0.142 HD
ENDBRANCH   9  11
ENDBRANCH   1   4
BRANCH   1  14
ATOM     14  N   UNL     1       5.549   3.259   1.381  0.00  0.00    -0.190 NA
ATOM     15  H   UNL     1       6.114   3.385   0.603  0.00  0.00    +0.148 HD
BRANCH  14  16
ATOM     16  C   UNL     1       4.399   2.355   1.314  0.00  0.00    +0.110 C 
BRANCH  16  17
ATOM     17  C   UNL     1       4.081   2.041  -0.149  0.00  0.00    +0.052 C 
BRANCH  17  20
ATOM     18  C   UNL     1       0.531   0.773  -0.355  0.00  0.00    +0.002 A 
ATOM     19  C   UNL     1       1.617   1.626  -0.292  0.00  0.00    +0.004 A 
ATOM     20  C   UNL     1       2.898   1.111  -0.219  0.00  0.00    -0.045 A 
ATOM     21  C   UNL     1       3.094  -0.258  -0.209  0.00  0.00    +0.023 A 
ATOM     22  C   UNL     1       2.007  -1.112  -0.273  0.00  0.00    +0.041 A 
ATOM     23  C   UNL     1       0.725  -0.596  -0.346  0.00  0.00    +0.020 A 
ATOM     24 CL   UNL     1       2.252  -2.830  -0.262  0.00  0.00    -0.084 Cl
ENDBRANCH  17  20
ENDBRANCH  16  17
ENDBRANCH  14  16
ENDBRANCH   1  14
TORSDOF 6
