REMARK  Name = ZINC44026496
REMARK  5 active torsions:
REMARK  status: ('A' for Active; 'I' for Inactive)
REMARK    1  A    between atoms: C_1  and  N_2
REMARK    2  A    between atoms: N_2  and  C_3
REMARK    3  A    between atoms: C_6  and  C_11
REMARK    4  A    between atoms: C_11  and  C_21
REMARK    5  A    between atoms: C_12  and  C_13
REMARK                            x       y       z     vdW  Elec       q    Type
REMARK                         _______ _______ _______ _____ _____    ______ ____
ROOT
ATOM      1  C   UNL     1       0.015   1.380   0.912  0.00  0.00    +0.132 C 
ATOM      2  N   UNL     1       0.025  -0.060   0.644  0.00  0.00    -0.306 N 
ATOM      3  C   UNL     1       1.295  -0.755   0.419  0.00  0.00    +0.132 C 
ATOM      4  C   UNL     1      -1.163  -0.763   0.603  0.00  0.00    +0.222 A 
ATOM      5  N   UNL     1      -1.153  -2.071   0.365  0.00  0.00    -0.194 NA
ATOM      6  C   UNL     1      -2.298  -2.748   0.325  0.00  0.00    +0.177 A 
ATOM      7  N   UNL     1      -3.453  -2.114   0.524  0.00  0.00    -0.194 NA
ATOM      8  C   UNL     1      -3.460  -0.807   0.762  0.00  0.00    +0.217 A 
ATOM      9  N   UNL     1      -2.315  -0.133   0.806  0.00  0.00    -0.181 NA
ATOM     10  N   UNL     1      -4.656  -0.150   0.968  0.00  0.00    -0.327 N 
ATOM     11  H   UNL     1      -5.491  -0.642   0.940  0.00  0.00    +0.145 HD
ATOM     12  H   UNL     1      -4.662   0.805   1.142  0.00  0.00    +0.145 HD
ENDROOT
BRANCH   6  13
ATOM     13  C   UNL     1      -2.289  -4.202   0.060  0.00  0.00    +0.097 C 
ATOM     14  C   UNL     1      -3.462  -4.896   0.020  0.00  0.00    +0.033 C 
BRANCH  14  15
ATOM     15  C   UNL     1      -3.446  -6.358  -0.093  0.00  0.00    +0.014 A 
ATOM     16  C   UNL     1      -2.413  -7.099   0.493  0.00  0.00    +0.049 A 
ATOM     17  C   UNL     1      -2.406  -8.474   0.382  0.00  0.00    +0.124 A 
ATOM     18  C   UNL     1      -3.419  -9.124  -0.308  0.00  0.00    +0.041 A 
ATOM     19  C   UNL     1      -4.444  -8.401  -0.890  0.00  0.00    +0.042 A 
ATOM     20  C   UNL     1      -4.470  -7.023  -0.784  0.00  0.00    +0.131 A 
ATOM     21  F   UNL     1      -5.474  -6.319  -1.350  0.00  0.00    -0.205 F 
ATOM     22  F   UNL     1      -1.410  -9.191   0.947  0.00  0.00    -0.205 F 
ENDBRANCH  14  15
BRANCH  13  23
ATOM     23  C   UNL     1      -1.048  -4.883  -0.154  0.00  0.00    +0.103 C 
ATOM     24  N   UNL     1      -0.063  -5.423  -0.324  0.00  0.00    -0.191 NA
ENDBRANCH  13  23
ENDBRANCH   6  13
TORSDOF 3
