REMARK  Name = ZINC46130199
REMARK  10 active torsions:
REMARK  status: ('A' for Active; 'I' for Inactive)
REMARK    1  A    between atoms: C_1  and  C_2
REMARK    2  A    between atoms: C_5  and  C_32
REMARK    3  A    between atoms: C_6  and  N_8
REMARK    4  A    between atoms: N_10  and  C_11
REMARK    5  A    between atoms: C_11  and  C_12
REMARK    6  A    between atoms: N_18  and  C_19
REMARK    7  A    between atoms: C_19  and  C_21
REMARK    8  A    between atoms: C_24  and  C_31
REMARK    9  A    between atoms: C_25  and  N_27
REMARK   10  A    between atoms: C_28  and  C_30
REMARK                            x       y       z     vdW  Elec       q    Type
REMARK                         _______ _______ _______ _____ _____    ______ ____
ROOT
ATOM      1  N   UNL     1      -0.186  -2.988   2.481  0.00  0.00    -0.328 N 
ATOM      2  C   UNL     1       0.136  -2.165   3.522  0.00  0.00    +0.194 C 
ATOM      3  N   UNL     1       0.321  -0.831   3.305  0.00  0.00    -0.355 N 
ATOM      4  N   UNL     1       0.270  -2.662   4.742  0.00  0.00    -0.143 NA
ATOM      5  H   UNL     1       0.122  -0.449   2.436  0.00  0.00    +0.162 HD
ATOM      6  H   UNL     1      -0.771  -3.748   2.627  0.00  0.00    +0.169 HD
ENDROOT
BRANCH   1  12
ATOM      7  C   UNL     1       3.041  -0.647  -0.396  0.00  0.00    +0.044 C 
ATOM      8  C   UNL     1       1.890  -1.604  -0.219  0.00  0.00    -0.048 A 
ATOM      9  C   UNL     1       1.340  -2.233  -1.321  0.00  0.00    +0.004 A 
ATOM     10  C   UNL     1       0.284  -3.111  -1.163  0.00  0.00    +0.005 A 
ATOM     11  C   UNL     1      -0.225  -3.364   0.096  0.00  0.00    -0.027 A 
ATOM     12  C   UNL     1       0.326  -2.734   1.204  0.00  0.00    +0.045 A 
ATOM     13  C   UNL     1       1.390  -1.856   1.043  0.00  0.00    +0.029 A 
ATOM     14  C   UNL     1      -1.376  -4.321   0.267  0.00  0.00    +0.046 C 
ENDBRANCH   1  12
BRANCH   4  15
ATOM     15  C   UNL     1       0.267  -3.989   4.929  0.00  0.00    +0.270 C 
ATOM     16  O   UNL     1       0.323  -4.739   3.971  0.00  0.00    -0.268 OA
BRANCH  15  17
ATOM     17  C   UNL     1       0.194  -4.543   6.300  0.00  0.00    +0.041 A 
ATOM     18  C   UNL     1       0.124  -3.686   7.399  0.00  0.00    +0.013 A 
ATOM     19  C   UNL     1       0.056  -4.205   8.676  0.00  0.00    +0.006 A 
ATOM     20  C   UNL     1       0.058  -5.573   8.872  0.00  0.00    -0.029 A 
ATOM     21  C   UNL     1       0.128  -6.435   7.784  0.00  0.00    +0.037 A 
ATOM     22  C   UNL     1       0.191  -5.923   6.497  0.00  0.00    +0.036 A 
ATOM     23  C   UNL     1      -0.016  -6.132  10.269  0.00  0.00    +0.045 C 
BRANCH  21  24
ATOM     24  N   UNL     1       0.130  -7.819   7.987  0.00  0.00    -0.285 N 
ATOM     25  C   UNL     1       0.766  -8.627   7.116  0.00  0.00    +0.214 C 
ATOM     26  O   UNL     1       1.438  -8.151   6.226  0.00  0.00    -0.276 OA
ATOM     27  C   UNL     1       0.644 -10.124   7.249  0.00  0.00    +0.109 C 
ATOM     28  H   UNL     1      -0.327  -8.198   8.755  0.00  0.00    +0.155 HD
ENDBRANCH  21  24
ENDBRANCH  15  17
ENDBRANCH   4  15
BRANCH   3  29
ATOM     29  C   UNL     1       0.819   0.025   4.384  0.00  0.00    +0.147 C 
BRANCH  29  30
ATOM     30  C   UNL     1       0.934   1.465   3.881  0.00  0.00    +0.137 C 
ATOM     31  C   UNL     1       1.494   2.381   4.999  0.00  0.00    +0.035 C 
ATOM     32  C   UNL     1       2.118   3.526   4.155  0.00  0.00    +0.031 C 
ATOM     33  C   UNL     1       2.623   2.775   2.905  0.00  0.00    +0.160 C 
ATOM     34  O   UNL     1       1.892   1.545   2.813  0.00  0.00    -0.375 OA
ENDBRANCH  29  30
ENDBRANCH   3  29
TORSDOF 6
