REMARK  Name = ZINC50208801
REMARK  5 active torsions:
REMARK  status: ('A' for Active; 'I' for Inactive)
REMARK    1  A    between atoms: C_1  and  C_2
REMARK    2  A    between atoms: C_2  and  C_4
REMARK    3  A    between atoms: C_2  and  N_10
REMARK    4  A    between atoms: N_13  and  C_14
REMARK    5  A    between atoms: C_19  and  C_20
REMARK                            x       y       z     vdW  Elec       q    Type
REMARK                         _______ _______ _______ _____ _____    ______ ____
ROOT
ATOM      1  N   UNL     1      -1.369  -0.523   0.012  0.00  0.00    -0.294 N 
ATOM      2  C   UNL     1      -2.030  -0.653   1.180  0.00  0.00    +0.304 C 
ATOM      3  O   UNL     1      -1.488  -0.346   2.223  0.00  0.00    -0.252 OA
ATOM      4  N   UNL     1      -3.293  -1.125   1.190  0.00  0.00    -0.269 N 
ATOM      5  H   UNL     1      -1.802  -0.768  -0.820  0.00  0.00    +0.151 HD
ATOM      6  H   UNL     1      -3.755  -1.292   0.353  0.00  0.00    +0.156 HD
ENDROOT
BRANCH   4   7
ATOM      7  C   UNL     1      -3.934  -1.370   2.400  0.00  0.00    +0.049 A 
ATOM      8  C   UNL     1      -3.191  -1.647   3.540  0.00  0.00    +0.025 A 
ATOM      9  C   UNL     1      -3.829  -1.891   4.739  0.00  0.00    +0.017 A 
ATOM     10  C   UNL     1      -5.213  -1.863   4.818  0.00  0.00    +0.019 A 
ATOM     11  C   UNL     1      -5.968  -1.590   3.698  0.00  0.00    +0.032 A 
ATOM     12  C   UNL     1      -5.336  -1.334   2.476  0.00  0.00    +0.085 A 
ATOM     13 BR   UNL     1      -6.069  -2.200   6.470  0.00  0.00    -0.050 Br
BRANCH  12  14
ATOM     14  C   UNL     1      -6.135  -1.036   1.278  0.00  0.00    +0.388 C 
ATOM     15  O   UNL     1      -7.350  -0.916   1.366  0.00  0.00    -0.241 OA
ATOM     16  O   UNL     1      -5.585  -0.907   0.192  0.00  0.00    -0.241 OA
ENDBRANCH  12  14
ENDBRANCH   4   7
BRANCH   1  18
ATOM     17  C   UNL     1      -0.023   1.519  -0.011  0.00  0.00    +0.030 C 
ATOM     18  C   UNL     1       0.003  -0.011   0.001  0.00  0.00    +0.100 C 
BRANCH  18  19
ATOM     19  C   UNL     1       0.727  -0.519  -1.247  0.00  0.00    +0.138 C 
ATOM     20  C   UNL     1       2.208  -0.085  -1.207  0.00  0.00    +0.035 C 
ATOM     21  C   UNL     1       2.484   0.282  -2.691  0.00  0.00    +0.031 C 
ATOM     22  C   UNL     1       1.109   0.859  -3.112  0.00  0.00    +0.160 C 
ATOM     23  O   UNL     1       0.137   0.056  -2.419  0.00  0.00    -0.375 OA
ENDBRANCH  18  19
ENDBRANCH   1  18
TORSDOF 4
