REMARK  Name = ZINC37035152
REMARK  6 active torsions:
REMARK  status: ('A' for Active; 'I' for Inactive)
REMARK    1  A    between atoms: C_4  and  S_8
REMARK    2  A    between atoms: C_5  and  N_7
REMARK    3  A    between atoms: S_8  and  C_9
REMARK    4  A    between atoms: C_9  and  C_10
REMARK    5  A    between atoms: C_13  and  C_15
REMARK    6  A    between atoms: C_15  and  N_16
REMARK                            x       y       z     vdW  Elec       q    Type
REMARK                         _______ _______ _______ _____ _____    ______ ____
ROOT
ATOM      1  C   UNL     1       6.568  -0.087  -0.065  0.00  0.00    +0.229 C 
ATOM      2  O   UNL     1       6.706  -1.291  -0.072  0.00  0.00    -0.274 OA
ATOM      3  N   UNL     1       7.651   0.716  -0.071  0.00  0.00    -0.254 N 
ATOM      4  C   UNL     1       8.887   0.179  -0.087  0.00  0.00    +0.237 C 
ATOM      5  O   UNL     1       9.025  -1.025  -0.095  0.00  0.00    -0.274 OA
ATOM      6  H   UNL     1       7.540   1.679  -0.065  0.00  0.00    +0.158 HD
ENDROOT
BRANCH   1   7
ATOM      7  C   UNL     1       5.186   0.513  -0.047  0.00  0.00    +0.170 C 
BRANCH   7   8
ATOM      8  S   UNL     1       3.950  -0.815  -0.042  0.00  0.00    -0.114 S 
BRANCH   8  12
ATOM      9  C   UNL     1      -0.017   1.379   0.010  0.00  0.00    +0.002 A 
ATOM     10  C   UNL     1       1.169   2.090   0.002  0.00  0.00    +0.001 A 
ATOM     11  C   UNL     1       2.380   1.424  -0.013  0.00  0.00    +0.016 A 
ATOM     12  C   UNL     1       2.408   0.037  -0.021  0.00  0.00    +0.029 A 
ATOM     13  C   UNL     1       1.212  -0.681  -0.013  0.00  0.00    +0.038 A 
ATOM     14  C   UNL     1       0.002  -0.004   0.002  0.00  0.00    +0.024 A 
BRANCH  13  15
ATOM     15  N   UNL     1       1.233  -2.081  -0.021  0.00  0.00    -0.357 N 
ATOM     16  H   UNL     1       2.080  -2.553  -0.032  0.00  0.00    +0.142 HD
ATOM     17  H   UNL     1       0.401  -2.579  -0.016  0.00  0.00    +0.142 HD
ENDBRANCH  13  15
ENDBRANCH   8  12
ENDBRANCH   7   8
ENDBRANCH   1   7
BRANCH   4  18
ATOM     18  C   UNL     1      10.098   1.077  -0.095  0.00  0.00    +0.203 C 
BRANCH  18  19
ATOM     19  N   UNL     1      11.312   0.258  -0.112  0.00  0.00    -0.293 N 
ATOM     20  C   UNL     1      12.008  -0.216   1.091  0.00  0.00    +0.109 C 
ATOM     21  C   UNL     1      12.929  -1.360   0.610  0.00  0.00    +0.028 C 
ATOM     22  C   UNL     1      13.146  -0.987  -0.875  0.00  0.00    +0.097 C 
ATOM     23  C   UNL     1      11.930  -0.161  -1.230  0.00  0.00    +0.216 C 
ATOM     24  O   UNL     1      11.566   0.090  -2.360  0.00  0.00    -0.276 OA
ENDBRANCH  18  19
ENDBRANCH   4  18
TORSDOF 6
