REMARK  Name = ZINC12889839
REMARK  5 active torsions:
REMARK  status: ('A' for Active; 'I' for Inactive)
REMARK    1  A    between atoms: C_12  and  C_14
REMARK    2  A    between atoms: C_14  and  C_15
REMARK    3  A    between atoms: C_18  and  O_21
REMARK    4  A    between atoms: N_24  and  C_27
REMARK    5  A    between atoms: C_27  and  C_28
REMARK                            x       y       z     vdW  Elec       q    Type
REMARK                         _______ _______ _______ _____ _____    ______ ____
ROOT
ATOM      1  C   UNL     1      -0.726   3.782   0.027  0.00  0.00    +0.000 A 
ATOM      2  C   UNL     1       0.595   4.190   0.016  0.00  0.00    +0.002 A 
ATOM      3  C   UNL     1       1.612   3.258   0.003  0.00  0.00    +0.023 A 
ATOM      4  C   UNL     1       1.315   1.897  -0.000  0.00  0.00    +0.036 A 
ATOM      5  C   UNL     1      -0.018   1.498   0.010  0.00  0.00    -0.028 A 
ATOM      6  C   UNL     1      -1.030   2.432   0.020  0.00  0.00    +0.004 A 
ATOM      7  C   UNL     1       0.002  -0.004   0.002  0.00  0.00    +0.050 C 
ATOM      8  C   UNL     1      -0.738  -0.569  -1.216  0.00  0.00    +0.088 C 
ATOM      9  C   UNL     1      -1.430  -1.858  -0.692  0.00  0.00    +0.073 C 
ATOM     10  C   UNL     1      -1.027  -1.946   0.795  0.00  0.00    -0.053 C 
ATOM     11  C   UNL     1      -0.750  -2.960  -1.473  0.00  0.00    +0.224 C 
ATOM     12  O   UNL     1      -0.995  -4.143  -1.373  0.00  0.00    -0.275 OA
ATOM     13  N   UNL     1       0.166  -2.426  -2.290  0.00  0.00    -0.239 N 
ATOM     14  C   UNL     1       0.258  -1.093  -2.225  0.00  0.00    +0.225 C 
ATOM     15  O   UNL     1       1.022  -0.411  -2.875  0.00  0.00    -0.275 OA
ATOM     16  C   UNL     1       1.460  -0.375  -0.016  0.00  0.00    +0.211 C 
ATOM     17  O   UNL     1       1.921  -1.497  -0.031  0.00  0.00    -0.277 OA
ATOM     18  N   UNL     1       2.153   0.780  -0.014  0.00  0.00    -0.286 N 
ATOM     19  H   UNL     1       3.122   0.830  -0.021  0.00  0.00    +0.155 HD
ATOM     20  N   UNL     1      -0.673  -0.577   1.155  0.00  0.00    +0.394 N 
ATOM     21  H   UNL     1      -1.520  -0.038   1.373  0.00  0.00    -0.083 HD
ATOM     22  H   UNL     1      -0.048  -0.574   1.969  0.00  0.00    -0.083 HD
ENDROOT
BRANCH  10  23
ATOM     23  C   UNL     1      -2.192  -2.476   1.633  0.00  0.00    +0.020 C 
BRANCH  23  24
ATOM     24  C   UNL     1      -1.740  -2.671   3.057  0.00  0.00    -0.049 A 
ATOM     25  C   UNL     1      -1.211  -3.885   3.454  0.00  0.00    +0.007 A 
ATOM     26  C   UNL     1      -0.791  -4.064   4.757  0.00  0.00    +0.045 A 
ATOM     27  C   UNL     1      -0.909  -3.027   5.671  0.00  0.00    +0.117 A 
ATOM     28  C   UNL     1      -1.445  -1.811   5.272  0.00  0.00    +0.045 A 
ATOM     29  C   UNL     1      -1.859  -1.636   3.966  0.00  0.00    +0.007 A 
BRANCH  27  30
ATOM     30  O   UNL     1      -0.501  -3.202   6.956  0.00  0.00    -0.507 OA
ATOM     31  H   UNL     1      -1.191  -3.537   7.545  0.00  0.00    +0.292 HD
ENDBRANCH  27  30
ENDBRANCH  23  24
ENDBRANCH  10  23
BRANCH  13  32
ATOM     32  C   UNL     1       0.999  -3.235  -3.183  0.00  0.00    +0.148 C 
BRANCH  32  33
ATOM     33  C   UNL     1       0.293  -3.397  -4.530  0.00  0.00    +0.136 C 
ATOM     34  C   UNL     1       1.105  -4.348  -5.436  0.00  0.00    +0.035 C 
ATOM     35  C   UNL     1       0.967  -3.672  -6.829  0.00  0.00    +0.031 C 
ATOM     36  C   UNL     1       0.940  -2.175  -6.430  0.00  0.00    +0.160 C 
ATOM     37  O   UNL     1       0.212  -2.130  -5.192  0.00  0.00    -0.375 OA
ENDBRANCH  32  33
ENDBRANCH  13  32
TORSDOF 5
