REMARK  Name = ZINC06224378
REMARK  3 active torsions:
REMARK  status: ('A' for Active; 'I' for Inactive)
REMARK    1  A    between atoms: C_6  and  C_7
REMARK    2  A    between atoms: N_8  and  N_9
REMARK    3  A    between atoms: C_10  and  C_12
REMARK                            x       y       z     vdW  Elec       q    Type
REMARK                         _______ _______ _______ _____ _____    ______ ____
ROOT
ATOM      1  C   UNL     1       2.404   4.748   0.004  0.00  0.00    +0.138 C 
ATOM      2  N   UNL     1       2.382   6.047   0.010  0.00  0.00    -0.187 NA
ENDROOT
BRANCH   1   8
ATOM      3  C   UNL     1      -0.083   4.663   0.027  0.00  0.00    +0.012 A 
ATOM      4  C   UNL     1      -1.262   3.948   0.034  0.00  0.00    +0.040 A 
ATOM      5  C   UNL     1      -1.235   2.563   0.022  0.00  0.00    +0.137 A 
ATOM      6  C   UNL     1      -0.024   1.887   0.012  0.00  0.00    +0.054 A 
ATOM      7  C   UNL     1       1.162   2.591   0.005  0.00  0.00    +0.027 A 
ATOM      8  C   UNL     1       1.141   3.989   0.012  0.00  0.00    -0.004 A 
ATOM      9 BR   UNL     1       0.002  -0.004   0.002  0.00  0.00    -0.047 Br
ATOM     10  F   UNL     1      -2.393   1.868   0.024  0.00  0.00    -0.204 F 
ENDBRANCH   1   8
BRANCH   2  11
ATOM     11  N   UNL     1       3.583   6.768   0.002  0.00  0.00    -0.199 N 
ATOM     12  C   UNL     1       3.559   8.116   0.009  0.00  0.00    +0.318 C 
ATOM     13  O   UNL     1       2.497   8.704   0.023  0.00  0.00    -0.263 OA
ATOM     14  H   UNL     1       4.431   6.298  -0.008  0.00  0.00    +0.178 HD
BRANCH  12  15
ATOM     15  C   UNL     1       4.838   8.884   0.001  0.00  0.00    +0.298 C 
ATOM     16  O   UNL     1       5.899   8.296  -0.013  0.00  0.00    -0.265 OA
ATOM     17  N   UNL     1       4.815  10.232   0.008  0.00  0.00    -0.322 N 
ATOM     18  H   UNL     1       3.966  10.702   0.018  0.00  0.00    +0.145 HD
ATOM     19  H   UNL     1       5.646  10.731   0.002  0.00  0.00    +0.145 HD
ENDBRANCH  12  15
ENDBRANCH   2  11
TORSDOF 3
