REMARK  Name = ZINC63731506
REMARK  8 active torsions:
REMARK  status: ('A' for Active; 'I' for Inactive)
REMARK    1  A    between atoms: C_1  and  C_2
REMARK    2  A    between atoms: N_4  and  C_5
REMARK    3  A    between atoms: C_5  and  C_7
REMARK    4  A    between atoms: C_5  and  C_17
REMARK    5  A    between atoms: C_7  and  C_8
REMARK    6  A    between atoms: C_17  and  O_19
REMARK    7  A    between atoms: O_19  and  C_20
REMARK    8  A    between atoms: C_20  and  C_21
REMARK                            x       y       z     vdW  Elec       q    Type
REMARK                         _______ _______ _______ _____ _____    ______ ____
ROOT
ATOM      1  C   UNL     1      -1.136  -2.159   0.001  0.00  0.00    +0.186 C 
ENDROOT
BRANCH   1   5
ATOM      2  C   UNL     1      -0.018   1.503   0.010  0.00  0.00    +0.109 C 
ATOM      3  C   UNL     1       0.002  -0.004   0.002  0.00  0.00    +0.211 C 
ATOM      4  O   UNL     1       1.060  -0.596  -0.011  0.00  0.00    -0.276 OA
ATOM      5  N   UNL     1      -1.156  -0.694   0.009  0.00  0.00    -0.302 N 
ATOM      6  H   UNL     1      -2.002  -0.220   0.020  0.00  0.00    +0.150 HD
ENDBRANCH   1   5
BRANCH   1   7
ATOM      7  C   UNL     1      -0.431  -2.645  -1.239  0.00  0.00    +0.328 C 
ATOM      8  O   UNL     1       0.312  -1.905  -1.840  0.00  0.00    -0.249 OA
BRANCH   7   9
ATOM      9  O   UNL     1      -0.628  -3.899  -1.675  0.00  0.00    -0.462 OA
BRANCH   9  10
ATOM     10  C   UNL     1       0.073  -4.292  -2.856  0.00  0.00    +0.251 C 
BRANCH  10  11
ATOM     11  C   UNL     1      -0.275  -5.743  -3.197  0.00  0.00    +0.102 C 
ATOM     12  C   UNL     1       0.388  -6.137  -4.524  0.00  0.00    +0.118 C 
ATOM     13  C   UNL     1       0.059  -7.585  -4.786  0.00  0.00    +0.222 C 
ATOM     14  O   UNL     1       0.063  -8.011  -5.922  0.00  0.00    -0.275 OA
ATOM     15  N   UNL     1      -0.241  -8.406  -3.765  0.00  0.00    -0.257 N 
ATOM     16  C   UNL     1      -0.752  -9.674  -4.058  0.00  0.00    +0.095 C 
ATOM     17  C   UNL     1      -1.638 -10.216  -3.208  0.00  0.00    +0.032 C 
ATOM     18  C   UNL     1      -2.027  -9.486  -1.995  0.00  0.00    +0.015 C 
ATOM     19  C   UNL     1      -1.311  -8.438  -1.589  0.00  0.00    +0.012 C 
ATOM     20  C   UNL     1      -0.088  -8.031  -2.368  0.00  0.00    +0.173 C 
ATOM     21  N   UNL     1       0.234  -6.633  -2.148  0.00  0.00    -0.288 NA
ATOM     22 BR   UNL     1      -2.384 -11.915  -3.573  0.00  0.00    -0.049 Br
ATOM     23  H   UNL     1       1.227  -6.507  -2.017  0.00  0.00    +0.124 HD
ENDBRANCH  10  11
ENDBRANCH   9  10
ENDBRANCH   7   9
ENDBRANCH   1   7
BRANCH   1  24
ATOM     24  C   UNL     1      -0.396  -2.665   1.241  0.00  0.00    +0.067 C 
BRANCH  24  25
ATOM     25  C   UNL     1      -1.168  -2.284   2.478  0.00  0.00    -0.039 C 
ATOM     26  C   UNL     1      -2.060  -3.049   3.148  0.00  0.00    -0.001 A 
ATOM     27  C   UNL     1      -2.559  -4.412   2.933  0.00  0.00    +0.010 A 
ATOM     28  C   UNL     1      -3.473  -4.919   3.793  0.00  0.00    +0.001 A 
ATOM     29  C   UNL     1      -3.953  -4.176   4.880  0.00  0.00    +0.002 A 
ATOM     30  C   UNL     1      -3.541  -2.917   5.143  0.00  0.00    +0.026 A 
ATOM     31  C   UNL     1      -2.582  -2.286   4.304  0.00  0.00    +0.043 A 
ATOM     32  N   UNL     1      -2.034  -1.095   4.346  0.00  0.00    -0.380 N 
ATOM     33  C   UNL     1      -1.097  -0.971   3.225  0.00  0.00    +0.144 C 
ATOM     34  H   UNL     1      -2.216  -0.412   5.011  0.00  0.00    +0.160 HD
ENDBRANCH  24  25
ENDBRANCH   1  24
TORSDOF 7
