REMARK  Name = ZINC43265841
REMARK  4 active torsions:
REMARK  status: ('A' for Active; 'I' for Inactive)
REMARK    1  A    between atoms: C_1  and  C_2
REMARK    2  A    between atoms: C_2  and  C_4
REMARK    3  A    between atoms: C_2  and  N_11
REMARK    4  A    between atoms: N_14  and  C_15
REMARK                            x       y       z     vdW  Elec       q    Type
REMARK                         _______ _______ _______ _____ _____    ______ ____
ROOT
ATOM      1  N   UNL     1      -1.626  -0.051  -0.081  0.00  0.00    -0.293 N 
ATOM      2  C   UNL     1      -2.227  -0.261  -1.269  0.00  0.00    +0.304 C 
ATOM      3  O   UNL     1      -1.852   0.344  -2.255  0.00  0.00    -0.252 OA
ATOM      4  N   UNL     1      -3.242  -1.142  -1.364  0.00  0.00    -0.265 N 
ATOM      5  H   UNL     1      -1.925  -0.534   0.706  0.00  0.00    +0.151 HD
ATOM      6  H   UNL     1      -3.574  -1.587  -0.569  0.00  0.00    +0.157 HD
ENDROOT
BRANCH   4   7
ATOM      7  C   UNL     1      -3.819  -1.414  -2.613  0.00  0.00    +0.106 A 
ATOM      8  C   UNL     1      -5.180  -1.681  -2.708  0.00  0.00    +0.147 A 
ATOM      9  C   UNL     1      -5.745  -1.948  -3.942  0.00  0.00    +0.040 A 
ATOM     10  C   UNL     1      -4.959  -1.952  -5.079  0.00  0.00    +0.006 A 
ATOM     11  C   UNL     1      -3.605  -1.687  -4.988  0.00  0.00    +0.040 A 
ATOM     12  C   UNL     1      -3.033  -1.412  -3.759  0.00  0.00    +0.147 A 
ATOM     13  F   UNL     1      -1.711  -1.148  -3.671  0.00  0.00    -0.203 F 
ATOM     14  F   UNL     1      -5.949  -1.679  -1.597  0.00  0.00    -0.203 F 
ENDBRANCH   4   7
BRANCH   1  16
ATOM     15  C   UNL     1      -1.080   2.297   0.332  0.00  0.00    +0.033 C 
ATOM     16  C   UNL     1      -0.522   0.906   0.023  0.00  0.00    +0.103 C 
BRANCH  16  17
ATOM     17  C   UNL     1       0.409   0.481   1.129  0.00  0.00    -0.014 A 
ATOM     18  C   UNL     1      -0.073  -0.259   2.193  0.00  0.00    +0.006 A 
ATOM     19  C   UNL     1       0.781  -0.649   3.207  0.00  0.00    +0.000 A 
ATOM     20  C   UNL     1       2.117  -0.299   3.159  0.00  0.00    +0.001 A 
ATOM     21  C   UNL     1       2.600   0.442   2.097  0.00  0.00    +0.015 A 
ATOM     22  C   UNL     1       1.747   0.828   1.079  0.00  0.00    +0.023 A 
ATOM     23 BR   UNL     1       2.409   1.835  -0.379  0.00  0.00    -0.050 Br
ENDBRANCH  16  17
ENDBRANCH   1  16
TORSDOF 3
