REMARK  Name = ZINC34939042
REMARK  6 active torsions:
REMARK  status: ('A' for Active; 'I' for Inactive)
REMARK    1  A    between atoms: C_1  and  C_2
REMARK    2  A    between atoms: C_4  and  C_8
REMARK    3  A    between atoms: C_5  and  C_7
REMARK    4  A    between atoms: N_10  and  C_11
REMARK    5  A    between atoms: N_10  and  C_12
REMARK    6  A    between atoms: C_15  and  N_18
REMARK                            x       y       z     vdW  Elec       q    Type
REMARK                         _______ _______ _______ _____ _____    ______ ____
ROOT
ATOM      1  C   UNL     1      -1.388  -3.228  -0.148  0.00  0.00    +0.254 C 
ATOM      2  O   UNL     1      -0.655  -4.196  -0.076  0.00  0.00    -0.270 OA
ATOM      3  N   UNL     1      -2.707  -3.361   0.097  0.00  0.00    -0.270 N 
ATOM      4  C   UNL     1      -3.586  -2.192   0.028  0.00  0.00    +0.138 C 
ENDROOT
BRANCH   1   8
ATOM      5  C   UNL     1      -0.959   1.684  -1.459  0.00  0.00    +0.086 C 
ATOM      6  C   UNL     1      -0.665   0.256  -1.079  0.00  0.00    +0.103 A 
ATOM      7  C   UNL     1      -1.585  -0.687  -0.823  0.00  0.00    +0.057 A 
ATOM      8  C   UNL     1      -0.834  -1.909  -0.502  0.00  0.00    +0.078 A 
ATOM      9  C   UNL     1       0.483  -1.567  -0.600  0.00  0.00    +0.114 A 
ATOM     10  O   UNL     1       0.559  -0.279  -0.949  0.00  0.00    -0.464 OA
ATOM     11  C   UNL     1       1.653  -2.486  -0.361  0.00  0.00    +0.087 C 
ENDBRANCH   1   8
BRANCH   3  12
ATOM     12  C   UNL     1      -3.236  -4.618   0.417  0.00  0.00    +0.036 A 
ATOM     13  C   UNL     1      -2.449  -5.756   0.290  0.00  0.00    +0.025 A 
ATOM     14  C   UNL     1      -2.971  -6.994   0.606  0.00  0.00    +0.024 A 
ATOM     15  C   UNL     1      -4.282  -7.103   1.051  0.00  0.00    +0.025 A 
ATOM     16  C   UNL     1      -5.068  -5.965   1.178  0.00  0.00    +0.024 A 
ATOM     17  C   UNL     1      -4.545  -4.726   0.867  0.00  0.00    +0.025 A 
BRANCH  15  18
ATOM     18  N   UNL     1      -4.811  -8.358   1.370  0.00  0.00    -0.358 N 
ATOM     19  H   UNL     1      -4.261  -9.153   1.281  0.00  0.00    +0.142 HD
ATOM     20  H   UNL     1      -5.726  -8.434   1.681  0.00  0.00    +0.142 HD
ENDBRANCH  15  18
ENDBRANCH   3  12
TORSDOF 3
