REMARK  Name = ZINC39034921
REMARK  6 active torsions:
REMARK  status: ('A' for Active; 'I' for Inactive)
REMARK    1  A    between atoms: C_4  and  C_10
REMARK    2  A    between atoms: C_11  and  C_12
REMARK    3  A    between atoms: C_12  and  C_14
REMARK    4  A    between atoms: C_17  and  C_20
REMARK    5  A    between atoms: C_20  and  C_22
REMARK    6  A    between atoms: C_23  and  C_24
REMARK                            x       y       z     vdW  Elec       q    Type
REMARK                         _______ _______ _______ _____ _____    ______ ____
ROOT
ATOM      1  C   UNL     1       7.259   5.404  -0.039  0.00  0.00    +0.022 A 
ATOM      2  C   UNL     1       8.220   4.389  -0.059  0.00  0.00    +0.012 A 
ATOM      3  C   UNL     1       9.559   4.710  -0.070  0.00  0.00    +0.012 A 
ATOM      4  C   UNL     1       9.957   6.049  -0.062  0.00  0.00    +0.022 A 
ATOM      5  C   UNL     1       8.996   7.064  -0.043  0.00  0.00    +0.012 A 
ATOM      6  C   UNL     1       7.657   6.744  -0.036  0.00  0.00    +0.012 A 
ENDROOT
BRANCH   1   7
ATOM      7  C   UNL     1       5.820   5.060  -0.027  0.00  0.00    +0.186 C 
ATOM      8  O   UNL     1       4.984   5.944  -0.015  0.00  0.00    -0.287 OA
BRANCH   7  10
ATOM      9  C   UNL     1       4.079   3.342  -0.019  0.00  0.00    +0.010 C 
ATOM     10  C   UNL     1       5.403   3.658  -0.030  0.00  0.00    +0.052 C 
BRANCH   9  14
ATOM     11  C   UNL     1      -0.017   1.397   0.010  0.00  0.00    +0.001 A 
ATOM     12  C   UNL     1       1.116   2.137   0.003  0.00  0.00    +0.010 A 
ATOM     13  C   UNL     1       2.380   1.506  -0.013  0.00  0.00    +0.003 A 
ATOM     14  C   UNL     1       3.679   1.995  -0.022  0.00  0.00    -0.019 C 
ATOM     15  C   UNL     1       4.573   0.775  -0.037  0.00  0.00    +0.149 C 
ATOM     16  N   UNL     1       3.676  -0.385  -0.035  0.00  0.00    -0.380 N 
ATOM     17  C   UNL     1       2.435   0.027  -0.021  0.00  0.00    +0.043 A 
ATOM     18  C   UNL     1       1.160  -0.703  -0.013  0.00  0.00    +0.026 A 
ATOM     19  C   UNL     1       0.002  -0.004   0.002  0.00  0.00    +0.002 A 
ATOM     20  H   UNL     1       3.959  -1.313  -0.043  0.00  0.00    +0.160 HD
ENDBRANCH   9  14
ENDBRANCH   7  10
ENDBRANCH   1   7
BRANCH   4  21
ATOM     21  C   UNL     1      11.396   6.393  -0.072  0.00  0.00    +0.186 C 
ATOM     22  O   UNL     1      12.232   5.509  -0.089  0.00  0.00    -0.287 OA
BRANCH  21  23
ATOM     23  C   UNL     1      11.812   7.795  -0.064  0.00  0.00    +0.052 C 
ATOM     24  C   UNL     1      13.137   8.111  -0.074  0.00  0.00    +0.010 C 
BRANCH  24  25
ATOM     25  C   UNL     1      13.537   9.458  -0.065  0.00  0.00    -0.019 C 
ATOM     26  C   UNL     1      14.836   9.947  -0.079  0.00  0.00    +0.003 A 
ATOM     27  C   UNL     1      14.781  11.426  -0.064  0.00  0.00    +0.043 A 
ATOM     28  N   UNL     1      13.540  11.838  -0.042  0.00  0.00    -0.380 N 
ATOM     29  C   UNL     1      12.643  10.678  -0.046  0.00  0.00    +0.149 C 
ATOM     30  C   UNL     1      16.056  12.156  -0.075  0.00  0.00    +0.026 A 
ATOM     31  C   UNL     1      17.214  11.457  -0.100  0.00  0.00    +0.002 A 
ATOM     32  C   UNL     1      17.233  10.056  -0.114  0.00  0.00    +0.001 A 
ATOM     33  C   UNL     1      16.100   9.316  -0.104  0.00  0.00    +0.010 A 
ATOM     34  H   UNL     1      13.257  12.766  -0.028  0.00  0.00    +0.160 HD
ENDBRANCH  24  25
ENDBRANCH  21  23
ENDBRANCH   4  21
TORSDOF 6
