REMARK  Name = ZINC40853067
REMARK  7 active torsions:
REMARK  status: ('A' for Active; 'I' for Inactive)
REMARK    1  A    between atoms: C_1  and  C_2
REMARK    2  A    between atoms: C_9  and  N_13
REMARK    3  A    between atoms: C_10  and  C_11
REMARK    4  A    between atoms: C_14  and  C_16
REMARK    5  A    between atoms: C_16  and  N_17
REMARK    6  A    between atoms: C_18  and  C_20
REMARK    7  A    between atoms: C_20  and  N_21
REMARK                            x       y       z     vdW  Elec       q    Type
REMARK                         _______ _______ _______ _____ _____    ______ ____
ROOT
ATOM      1  N   UNL     1       0.696  -5.849   2.431  0.00  0.00    -0.278 N 
ATOM      2  C   UNL     1       1.678  -6.098   3.319  0.00  0.00    +0.235 C 
ATOM      3  O   UNL     1       2.384  -5.194   3.713  0.00  0.00    -0.274 OA
ATOM      4  H   UNL     1       0.132  -6.573   2.116  0.00  0.00    +0.155 HD
ENDROOT
BRANCH   1  12
ATOM      5  C   UNL     1      -0.019   1.526   0.010  0.00  0.00    +0.008 C 
ATOM      6  C   UNL     1       0.002  -0.004   0.002  0.00  0.00    -0.009 C 
ATOM      7  C   UNL     1      -1.434  -0.537   0.019  0.00  0.00    +0.008 C 
ATOM      8  C   UNL     1      -1.433  -2.045  -0.237  0.00  0.00    +0.037 C 
ATOM      9  C   UNL     1      -0.464  -2.704   0.734  0.00  0.00    -0.018 A 
ATOM     10  C   UNL     1       0.485  -1.986   1.374  0.00  0.00    -0.004 A 
ATOM     11  S   UNL     1       1.344  -3.168   2.371  0.00  0.00    -0.077 S 
ATOM     12  C   UNL     1       0.493  -4.558   1.966  0.00  0.00    +0.090 A 
ATOM     13  C   UNL     1      -0.459  -4.119   1.059  0.00  0.00    +0.084 A 
ATOM     14  C   UNL     1       0.739  -0.515   1.248  0.00  0.00    +0.046 C 
BRANCH  13  15
ATOM     15  C   UNL     1      -1.399  -5.024   0.469  0.00  0.00    +0.102 C 
ATOM     16  N   UNL     1      -2.144  -5.741   0.000  0.00  0.00    -0.191 NA
ENDBRANCH  13  15
ENDBRANCH   1  12
BRANCH   2  17
ATOM     17  C   UNL     1       1.900  -7.501   3.824  0.00  0.00    +0.200 C 
BRANCH  17  18
ATOM     18  N   UNL     1       3.016  -7.508   4.772  0.00  0.00    -0.308 N 
ATOM     19  C   UNL     1       3.397  -8.662   5.356  0.00  0.00    +0.196 C 
ATOM     20  O   UNL     1       2.815  -9.694   5.097  0.00  0.00    -0.278 OA
ATOM     21  H   UNL     1       3.482  -6.683   4.980  0.00  0.00    +0.149 HD
BRANCH  19  22
ATOM     22  C   UNL     1       4.546  -8.669   6.332  0.00  0.00    +0.011 C 
BRANCH  22  23
ATOM     23  N   UNL     1       4.762 -10.036   6.824  0.00  0.00    +0.384 N 
ATOM     24  H   UNL     1       3.926 -10.363   7.286  0.00  0.00    -0.089 HD
ATOM     25  H   UNL     1       4.976 -10.643   6.047  0.00  0.00    -0.089 HD
ATOM     26  H   UNL     1       5.531 -10.041   7.477  0.00  0.00    -0.089 HD
ENDBRANCH  22  23
ENDBRANCH  19  22
ENDBRANCH  17  18
ENDBRANCH   2  17
TORSDOF 6
