REMARK  Name = ZINC04429112
REMARK  7 active torsions:
REMARK  status: ('A' for Active; 'I' for Inactive)
REMARK    1  A    between atoms: C_1  and  C_2
REMARK    2  A    between atoms: C_16  and  O_31
REMARK    3  A    between atoms: C_19  and  C_30
REMARK    4  A    between atoms: C_24  and  C_25
REMARK    5  A    between atoms: C_24  and  O_29
REMARK    6  A    between atoms: C_25  and  C_27
REMARK    7  A    between atoms: C_27  and  O_28
REMARK                            x       y       z     vdW  Elec       q    Type
REMARK                         _______ _______ _______ _____ _____    ______ ____
ROOT
ATOM      1  C   UNL     1      -1.047   9.050   1.365  0.00  0.00    +0.012 C 
ATOM      2  C   UNL     1       0.375   8.963   1.913  0.00  0.00    -0.023 C 
ATOM      3  C   UNL     1       0.344   9.143   3.434  0.00  0.00    +0.015 C 
ATOM      4  C   UNL     1      -0.149  10.530   3.846  0.00  0.00    +0.075 C 
ATOM      5  C   UNL     1       0.622  11.593   3.103  0.00  0.00    +0.134 C 
ATOM      6  O   UNL     1       1.133  12.521   3.679  0.00  0.00    -0.297 OA
ATOM      7  C   UNL     1       0.733  11.449   1.601  0.00  0.00    +0.078 C 
ATOM      8  C   UNL     1       1.276  10.050   1.307  0.00  0.00    +0.002 C 
ATOM      9  C   UNL     1       1.469   9.891  -0.197  0.00  0.00    +0.005 C 
ATOM     10  C   UNL     1       2.086   8.516  -0.507  0.00  0.00    +0.004 C 
ATOM     11  C   UNL     1       1.113   7.482   0.034  0.00  0.00    -0.001 C 
ATOM     12  C   UNL     1       1.014   7.621   1.562  0.00  0.00    +0.027 C 
ATOM     13  C   UNL     1       0.365   6.362   2.103  0.00  0.00    +0.119 C 
ATOM     14  C   UNL     1       1.407   5.218   2.033  0.00  0.00    +0.041 C 
ATOM     15  C   UNL     1       2.143   5.268   0.721  0.00  0.00    +0.009 C 
ATOM     16  C   UNL     1       1.361   6.056  -0.347  0.00  0.00    +0.002 C 
ATOM     17  C   UNL     1       2.206   5.819  -1.609  0.00  0.00    +0.008 C 
ATOM     18  C   UNL     1       2.708   4.358  -1.453  0.00  0.00    +0.043 C 
ATOM     19  C   UNL     1       2.372   3.930   0.001  0.00  0.00    +0.131 C 
ATOM     20  C   UNL     1       3.535   5.885   0.943  0.00  0.00    +0.015 C 
ENDROOT
BRANCH  19  21
ATOM     21  C   UNL     1       1.147   3.062   0.008  0.00  0.00    +0.190 C 
ATOM     22  O   UNL     1       0.050   3.567   0.021  0.00  0.00    -0.292 OA
BRANCH  21  23
ATOM     23  C   UNL     1       1.286   1.562  -0.002  0.00  0.00    +0.233 C 
BRANCH  23  24
ATOM     24  O   UNL     1      -0.011   0.963   0.007  0.00  0.00    -0.387 OA
ATOM     25  H   UNL     1       0.002  -0.004   0.002  0.00  0.00    +0.210 HD
ENDBRANCH  23  24
ENDBRANCH  21  23
ENDBRANCH  19  21
BRANCH  19  26
ATOM     26  O   UNL     1       3.482   3.246   0.582  0.00  0.00    -0.380 OA
ATOM     27  H   UNL     1       3.717   2.424   0.131  0.00  0.00    +0.211 HD
ENDBRANCH  19  26
BRANCH  13  28
ATOM     28  O   UNL     1      -0.049   6.493   3.459  0.00  0.00    -0.391 OA
ATOM     29  H   UNL     1      -0.454   5.695   3.825  0.00  0.00    +0.210 HD
ENDBRANCH  13  28
TORSDOF 5
