REMARK  Name = ZINC39936968
REMARK  14 active torsions:
REMARK  status: ('A' for Active; 'I' for Inactive)
REMARK    1  A    between atoms: C_1  and  C_2
REMARK    2  A    between atoms: C_2  and  C_3
REMARK    3  A    between atoms: C_3  and  C_4
REMARK    4  A    between atoms: C_7  and  C_12
REMARK    5  A    between atoms: N_9  and  C_11
REMARK    6  A    between atoms: N_14  and  C_15
REMARK    7  A    between atoms: C_15  and  C_17
REMARK    8  A    between atoms: C_15  and  C_33
REMARK    9  A    between atoms: C_19  and  O_32
REMARK   10  A    between atoms: C_21  and  O_31
REMARK   11  A    between atoms: C_23  and  O_30
REMARK   12  A    between atoms: C_25  and  S_28
REMARK   13  A    between atoms: S_28  and  C_29
REMARK   14  A    between atoms: C_33  and  C_35
REMARK                            x       y       z     vdW  Elec       q    Type
REMARK                         _______ _______ _______ _____ _____    ______ ____
ROOT
ATOM      1  C   UNL     1       0.762  -6.241   2.655  0.00  0.00    +0.122 C 
ENDROOT
BRANCH   1   2
ATOM      2  C   UNL     1       1.958  -5.605   3.365  0.00  0.00    +0.172 C 
ATOM      3  C   UNL     1       2.717  -4.708   2.384  0.00  0.00    +0.176 C 
ATOM      4  C   UNL     1       3.260  -5.564   1.236  0.00  0.00    +0.177 C 
ATOM      5  C   UNL     1       4.145  -6.672   1.814  0.00  0.00    +0.184 C 
ATOM      6  C   UNL     1       3.331  -7.494   2.818  0.00  0.00    +0.207 C 
ATOM      7  O   UNL     1       2.830  -6.632   3.842  0.00  0.00    -0.356 OA
BRANCH   6   8
ATOM      8  S   UNL     1       4.392  -8.764   3.561  0.00  0.00    -0.131 S 
ATOM      9  C   UNL     1       3.220  -9.951   4.275  0.00  0.00    +0.087 C 
ENDBRANCH   6   8
BRANCH   5  10
ATOM     10  O   UNL     1       4.600  -7.521   0.758  0.00  0.00    -0.386 OA
ATOM     11  H   UNL     1       5.167  -8.246   1.053  0.00  0.00    +0.210 HD
ENDBRANCH   5  10
BRANCH   4  12
ATOM     12  O   UNL     1       4.030  -4.747   0.352  0.00  0.00    -0.386 OA
ATOM     13  H   UNL     1       4.405  -5.226  -0.400  0.00  0.00    +0.210 HD
ENDBRANCH   4  12
BRANCH   3  14
ATOM     14  O   UNL     1       1.832  -3.714   1.863  0.00  0.00    -0.387 OA
ATOM     15  H   UNL     1       2.247  -3.109   1.233  0.00  0.00    +0.210 HD
ENDBRANCH   3  14
ENDBRANCH   1   2
BRANCH   1  18
ATOM     16  C   UNL     1      -0.842  -5.475   0.988  0.00  0.00    +0.200 C 
ATOM     17  O   UNL     1      -0.865  -6.600   0.536  0.00  0.00    -0.278 OA
ATOM     18  N   UNL     1      -0.060  -5.191   2.048  0.00  0.00    -0.310 N 
ATOM     19  H   UNL     1      -0.042  -4.291   2.410  0.00  0.00    +0.149 HD
BRANCH  16  22
ATOM     20  C   UNL     1      -1.097  -3.191  -1.687  0.00  0.00    -0.029 C 
ATOM     21  C   UNL     1      -0.787  -3.268  -0.174  0.00  0.00    -0.005 C 
ATOM     22  C   UNL     1      -1.688  -4.395   0.364  0.00  0.00    +0.019 C 
ATOM     23  N   UNL     1      -2.437  -4.939  -0.789  0.00  0.00    +0.386 N 
ATOM     24  C   UNL     1      -2.499  -3.842  -1.791  0.00  0.00    -0.075 C 
ATOM     25  C   UNL     1      -3.793  -5.326  -0.375  0.00  0.00    -0.095 C 
ATOM     26  H   UNL     1      -1.951  -5.734  -1.176  0.00  0.00    -0.081 HD
BRANCH  20  27
ATOM     27  C   UNL     1      -1.139  -1.736  -2.157  0.00  0.00    +0.001 C 
BRANCH  27  29
ATOM     28  C   UNL     1       0.227   0.315  -2.572  0.00  0.00    +0.004 C 
ATOM     29  C   UNL     1       0.269  -1.141  -2.102  0.00  0.00    -0.003 C 
ENDBRANCH  27  29
ENDBRANCH  20  27
ENDBRANCH  16  22
ENDBRANCH   1  18
BRANCH   1  30
ATOM     30  C   UNL     1      -0.076  -7.024   3.668  0.00  0.00    +0.100 C 
ATOM     31  C   UNL     1      -1.347  -7.538   2.990  0.00  0.00    +0.026 C 
ATOM     32 CL   UNL     1       0.881  -8.420   4.288  0.00  0.00    -0.120 Cl
ENDBRANCH   1  30
TORSDOF 10
