REMARK  Name = ZINC09995232
REMARK  3 active torsions:
REMARK  status: ('A' for Active; 'I' for Inactive)
REMARK    1  A    between atoms: N_6  and  C_7
REMARK    2  A    between atoms: C_7  and  C_8
REMARK    3  A    between atoms: N_10  and  C_11
REMARK                            x       y       z     vdW  Elec       q    Type
REMARK                         _______ _______ _______ _____ _____    ______ ____
ROOT
ATOM      1  C   UNL     1       4.144   1.392  -1.446  0.00  0.00    +0.233 C 
ATOM      2  O   UNL     1       3.382   1.150  -2.358  0.00  0.00    -0.274 OA
ATOM      3  N   UNL     1       5.440   1.656  -1.703  0.00  0.00    -0.310 N 
ATOM      4  H   UNL     1       6.049   1.850  -0.973  0.00  0.00    +0.149 HD
ENDROOT
BRANCH   3   5
ATOM      5  C   UNL     1       5.929   1.651  -3.084  0.00  0.00    +0.079 C 
ATOM      6  C   UNL     1       6.292   0.221  -3.491  0.00  0.00    +0.010 C 
ATOM      7  C   UNL     1       6.803   0.216  -4.933  0.00  0.00    +0.009 C 
ATOM      8  C   UNL     1       8.042   1.106  -5.038  0.00  0.00    -0.010 C 
ATOM      9  C   UNL     1       9.134   0.573  -4.109  0.00  0.00    +0.007 C 
ATOM     10  C   UNL     1       8.623   0.578  -2.666  0.00  0.00    -0.010 C 
ATOM     11  C   UNL     1       7.383  -0.312  -2.561  0.00  0.00    +0.009 C 
ATOM     12  C   UNL     1       8.261   2.008  -2.260  0.00  0.00    +0.009 C 
ATOM     13  C   UNL     1       7.169   2.541  -3.189  0.00  0.00    +0.010 C 
ATOM     14  C   UNL     1       7.680   2.536  -4.631  0.00  0.00    +0.009 C 
ENDBRANCH   3   5
BRANCH   1  15
ATOM     15  C   UNL     1       3.640   1.398  -0.026  0.00  0.00    +0.219 C 
BRANCH  15  21
ATOM     16  C   UNL     1       1.277   2.079   0.001  0.00  0.00    +0.096 A 
ATOM     17  C   UNL     1      -0.022   1.781   0.012  0.00  0.00    +0.066 A 
ATOM     18  S   UNL     1       0.002  -0.004   0.002  0.00  0.00    -0.059 S 
ATOM     19  C   UNL     1       1.775  -0.224  -0.016  0.00  0.00    +0.166 A 
ATOM     20  N   UNL     1       2.474  -1.332  -0.028  0.00  0.00    -0.277 NA
ATOM     21  N   UNL     1       2.209   1.084  -0.013  0.00  0.00    -0.318 N 
ATOM     22  H   UNL     1       2.023  -2.190  -0.029  0.00  0.00    +0.189 HD
ENDBRANCH  15  21
ENDBRANCH   1  15
TORSDOF 3
