REMARK  Name = ZINC49096393
REMARK  9 active torsions:
REMARK  status: ('A' for Active; 'I' for Inactive)
REMARK    1  A    between atoms: C_1  and  C_2
REMARK    2  A    between atoms: C_2  and  C_4
REMARK    3  A    between atoms: C_2  and  N_9
REMARK    4  A    between atoms: N_6  and  C_7
REMARK    5  A    between atoms: N_6  and  C_8
REMARK    6  A    between atoms: N_9  and  C_10
REMARK    7  A    between atoms: C_13  and  S_17
REMARK    8  A    between atoms: C_15  and  N_16
REMARK    9  A    between atoms: S_17  and  N_20
REMARK                            x       y       z     vdW  Elec       q    Type
REMARK                         _______ _______ _______ _____ _____    ______ ____
ROOT
ATOM      1  C   UNL     1      -1.738  -0.902   1.555  0.00  0.00    +0.049 A 
ATOM      2  C   UNL     1      -1.007  -0.422   2.632  0.00  0.00    +0.027 A 
ATOM      3  C   UNL     1      -1.480  -0.594   3.920  0.00  0.00    +0.030 A 
ATOM      4  C   UNL     1      -2.680  -1.244   4.139  0.00  0.00    +0.107 A 
ATOM      5  C   UNL     1      -3.415  -1.726   3.071  0.00  0.00    +0.053 A 
ATOM      6  C   UNL     1      -2.951  -1.553   1.776  0.00  0.00    +0.048 A 
ENDROOT
BRANCH   6   7
ATOM      7  N   UNL     1      -3.696  -2.036   0.693  0.00  0.00    -0.356 N 
ATOM      8  H   UNL     1      -3.368  -1.917  -0.212  0.00  0.00    +0.142 HD
ATOM      9  H   UNL     1      -4.539  -2.489   0.848  0.00  0.00    +0.142 HD
ENDBRANCH   6   7
BRANCH   4  10
ATOM     10  S   UNL     1      -3.275  -1.460   5.783  0.00  0.00    +0.056 S 
ATOM     11  O   UNL     1      -4.151  -2.579   5.755  0.00  0.00    -0.153 OA
ATOM     12  O   UNL     1      -2.140  -1.403   6.636  0.00  0.00    -0.153 OA
BRANCH  10  13
ATOM     13  N   UNL     1      -4.206  -0.139   6.144  0.00  0.00    -0.204 NA
ATOM     14  H   UNL     1      -4.328   0.563   5.486  0.00  0.00    +0.144 HD
ATOM     15  H   UNL     1      -4.630  -0.068   7.014  0.00  0.00    +0.144 HD
ENDBRANCH  10  13
ENDBRANCH   4  10
BRANCH   1  16
ATOM     16  N   UNL     1      -1.261  -0.728   0.250  0.00  0.00    -0.332 N 
ATOM     17  H   UNL     1      -1.775  -1.061  -0.502  0.00  0.00    +0.147 HD
BRANCH  16  19
ATOM     18  C   UNL     1      -0.219   1.468  -0.019  0.00  0.00    +0.038 C 
ATOM     19  C   UNL     1       0.014  -0.044   0.021  0.00  0.00    +0.154 C 
BRANCH  19  20
ATOM     20  C   UNL     1       0.599  -0.497  -1.292  0.00  0.00    +0.235 C 
ATOM     21  O   UNL     1      -0.090  -1.101  -2.086  0.00  0.00    -0.274 OA
ATOM     22  N   UNL     1       1.888  -0.232  -1.583  0.00  0.00    -0.306 N 
ATOM     23  C   UNL     1       2.434  -0.602  -2.890  0.00  0.00    +0.131 C 
ATOM     24  C   UNL     1       2.742   0.427  -0.592  0.00  0.00    +0.131 C 
ENDBRANCH  19  20
ENDBRANCH  16  19
ENDBRANCH   1  16
TORSDOF 6
