REMARK  Name = ZINC54978660
REMARK  9 active torsions:
REMARK  status: ('A' for Active; 'I' for Inactive)
REMARK    1  A    between atoms: C_1  and  C_2
REMARK    2  A    between atoms: C_2  and  C_4
REMARK    3  A    between atoms: C_2  and  N_14
REMARK    4  A    between atoms: N_9  and  C_10
REMARK    5  A    between atoms: C_10  and  C_11
REMARK    6  A    between atoms: C_11  and  C_12
REMARK    7  A    between atoms: C_11  and  C_13
REMARK    8  A    between atoms: N_17  and  C_20
REMARK    9  A    between atoms: C_20  and  C_21
REMARK                            x       y       z     vdW  Elec       q    Type
REMARK                         _______ _______ _______ _____ _____    ______ ____
ROOT
ATOM      1  C   UNL     1      -0.206   1.511   0.060  0.00  0.00    +0.034 C 
ATOM      2  C   UNL     1       0.002  -0.004   0.002  0.00  0.00    +0.140 C 
ENDROOT
BRANCH   2   3
ATOM      3  C   UNL     1       0.655  -0.471   1.278  0.00  0.00    +0.237 C 
ATOM      4  O   UNL     1       0.001  -1.058   2.113  0.00  0.00    -0.274 OA
ATOM      5  N   UNL     1       1.965  -0.236   1.489  0.00  0.00    -0.239 N 
ATOM      6  C   UNL     1       2.549  -0.653   2.630  0.00  0.00    +0.306 C 
ATOM      7  O   UNL     1       1.893  -1.242   3.468  0.00  0.00    -0.252 OA
ATOM      8  N   UNL     1       3.859  -0.418   2.842  0.00  0.00    -0.299 N 
ATOM      9  H   UNL     1       2.488   0.234   0.821  0.00  0.00    +0.159 HD
ATOM     10  H   UNL     1       4.381   0.051   2.173  0.00  0.00    +0.150 HD
BRANCH   8  11
ATOM     11  C   UNL     1       4.493  -0.872   4.082  0.00  0.00    +0.108 C 
BRANCH  11  12
ATOM     12  C   UNL     1       5.972  -0.482   4.071  0.00  0.00    -0.000 C 
ATOM     13  C   UNL     1       6.098   1.043   4.086  0.00  0.00    +0.009 C 
ATOM     14  C   UNL     1       6.663  -1.063   5.306  0.00  0.00    +0.009 C 
ENDBRANCH  11  12
ENDBRANCH   8  11
ENDBRANCH   2   3
BRANCH   2  15
ATOM     15  N   UNL     1      -1.297  -0.671  -0.156  0.00  0.00    -0.289 NA
ATOM     16  C   UNL     1      -1.789  -0.547  -1.535  0.00  0.00    +0.100 C 
ATOM     17  C   UNL     1      -3.102  -1.321  -1.677  0.00  0.00    +0.100 C 
ATOM     18  N   UNL     1      -4.085  -0.792  -0.721  0.00  0.00    -0.292 NA
ATOM     19  C   UNL     1      -3.593  -0.916   0.658  0.00  0.00    +0.100 C 
ATOM     20  C   UNL     1      -2.280  -0.143   0.800  0.00  0.00    +0.100 C 
BRANCH  18  21
ATOM     21  C   UNL     1      -5.384  -1.459  -0.879  0.00  0.00    +0.180 C 
BRANCH  21  22
ATOM     22  C   UNL     1      -6.424  -0.733  -0.065  0.00  0.00    +0.225 C 
ATOM     23  O   UNL     1      -6.113   0.243   0.583  0.00  0.00    -0.275 OA
ATOM     24  N   UNL     1      -7.699  -1.170  -0.057  0.00  0.00    -0.328 N 
ATOM     25  H   UNL     1      -7.947  -1.951  -0.575  0.00  0.00    +0.145 HD
ATOM     26  H   UNL     1      -8.368  -0.703   0.468  0.00  0.00    +0.145 HD
ENDBRANCH  21  22
ENDBRANCH  18  21
ENDBRANCH   2  15
TORSDOF 6
