REMARK  Name = ZINC36231845
REMARK  6 active torsions:
REMARK  status: ('A' for Active; 'I' for Inactive)
REMARK    1  A    between atoms: C_1  and  C_2
REMARK    2  A    between atoms: C_2  and  C_19
REMARK    3  A    between atoms: N_4  and  C_8
REMARK    4  A    between atoms: C_8  and  C_9
REMARK    5  A    between atoms: N_11  and  C_12
REMARK    6  A    between atoms: C_17  and  N_18
REMARK                            x       y       z     vdW  Elec       q    Type
REMARK                         _______ _______ _______ _____ _____    ______ ____
ROOT
ATOM      1  C   UNL     1      -4.194   0.080   2.465  0.00  0.00    +0.231 C 
ATOM      2  O   UNL     1      -3.591   0.838   3.194  0.00  0.00    -0.274 OA
ATOM      3  N   UNL     1      -5.498  -0.178   2.691  0.00  0.00    -0.283 N 
ATOM      4  H   UNL     1      -6.001  -0.720   2.063  0.00  0.00    +0.155 HD
ENDROOT
BRANCH   3   5
ATOM      5  C   UNL     1      -6.126   0.337   3.833  0.00  0.00    +0.054 A 
ATOM      6  C   UNL     1      -5.377   0.649   4.958  0.00  0.00    +0.025 A 
ATOM      7  C   UNL     1      -5.999   1.157   6.083  0.00  0.00    +0.002 A 
ATOM      8  C   UNL     1      -7.368   1.355   6.092  0.00  0.00    +0.002 A 
ATOM      9  C   UNL     1      -8.122   1.046   4.976  0.00  0.00    +0.024 A 
ATOM     10  C   UNL     1      -7.506   0.542   3.840  0.00  0.00    +0.046 A 
BRANCH  10  11
ATOM     11  N   UNL     1      -8.266   0.235   2.707  0.00  0.00    -0.357 N 
ATOM     12  H   UNL     1      -7.834  -0.122   1.915  0.00  0.00    +0.142 HD
ATOM     13  H   UNL     1      -9.226   0.378   2.713  0.00  0.00    +0.142 HD
ENDBRANCH  10  11
ENDBRANCH   3   5
BRANCH   1  14
ATOM     14  C   UNL     1      -3.487  -0.574   1.306  0.00  0.00    +0.181 C 
BRANCH  14  18
ATOM     15  C   UNL     1      -0.009   1.501   0.013  0.00  0.00    +0.042 C 
ATOM     16  C   UNL     1       0.010  -0.029   0.017  0.00  0.00    +0.077 C 
ATOM     17  C   UNL     1      -1.427  -0.559   0.033  0.00  0.00    +0.119 C 
ATOM     18  N   UNL     1      -2.086  -0.134   1.276  0.00  0.00    -0.289 NA
ATOM     19  C   UNL     1      -1.353  -0.630   2.450  0.00  0.00    +0.113 C 
ATOM     20  C   UNL     1       0.083  -0.100   2.410  0.00  0.00    +0.176 C 
ATOM     21  O   UNL     1       0.698  -0.496   1.181  0.00  0.00    -0.371 OA
ATOM     22  C   UNL     1       0.727  -0.534  -1.237  0.00  0.00    +0.042 C 
ENDBRANCH  14  18
ENDBRANCH   1  14
TORSDOF 4
