REMARK  Name = ZINC19909590
REMARK  4 active torsions:
REMARK  status: ('A' for Active; 'I' for Inactive)
REMARK    1  A    between atoms: C_1  and  C_2
REMARK    2  A    between atoms: C_2  and  O_3
REMARK    3  A    between atoms: O_3  and  C_4
REMARK    4  A    between atoms: C_10  and  N_16
REMARK                            x       y       z     vdW  Elec       q    Type
REMARK                         _______ _______ _______ _____ _____    ______ ____
ROOT
ATOM      1  C   UNL     1      -1.189  -0.631   0.010  0.00  0.00    +0.421 C 
ATOM      2  O   UNL     1      -2.216   0.016   0.023  0.00  0.00    -0.223 OA
ATOM      3  N   UNL     1      -1.241  -1.978   0.003  0.00  0.00    -0.233 N 
ATOM      4  C   UNL     1      -1.279  -2.660  -1.207  0.00  0.00    +0.068 A 
ATOM      5  C   UNL     1      -1.270  -2.112  -2.501  0.00  0.00    +0.029 A 
ATOM      6  C   UNL     1      -1.313  -2.920  -3.611  0.00  0.00    +0.025 A 
ATOM      7  C   UNL     1      -1.365  -4.304  -3.493  0.00  0.00    +0.026 A 
ATOM      8  C   UNL     1      -1.375  -4.872  -2.223  0.00  0.00    +0.040 A 
ATOM      9  C   UNL     1      -1.333  -4.058  -1.118  0.00  0.00    +0.040 A 
ATOM     10  S   UNL     1      -1.327  -4.353   0.634  0.00  0.00    -0.061 S 
ATOM     11  C   UNL     1      -1.250  -2.652   1.170  0.00  0.00    +0.136 A 
ATOM     12  S   UNL     1      -1.203  -2.032   2.765  0.00  0.00    -0.024 S 
ENDROOT
BRANCH   7  13
ATOM     13  N   UNL     1      -1.408  -5.114  -4.633  0.00  0.00    -0.358 N 
ATOM     14  H   UNL     1      -1.450  -6.208  -4.529  0.00  0.00    +0.142 HD
ATOM     15  H   UNL     1      -1.401  -4.656  -5.633  0.00  0.00    +0.142 HD
ENDBRANCH   7  13
BRANCH   1  16
ATOM     16  O   UNL     1       0.002  -0.004   0.002  0.00  0.00    -0.448 OA
BRANCH  16  18
ATOM     17  C   UNL     1       1.418   1.977  -0.001  0.00  0.00    +0.048 C 
ATOM     18  C   UNL     1      -0.018   1.448   0.010  0.00  0.00    +0.230 C 
ENDBRANCH  16  18
ENDBRANCH   1  16
TORSDOF 3
