REMARK  Name = ZINC64960818
REMARK  6 active torsions:
REMARK  status: ('A' for Active; 'I' for Inactive)
REMARK    1  A    between atoms: C_1  and  C_2
REMARK    2  A    between atoms: C_2  and  C_3
REMARK    3  A    between atoms: C_2  and  O_4
REMARK    4  A    between atoms: O_4  and  C_5
REMARK    5  A    between atoms: C_8  and  C_11
REMARK    6  A    between atoms: C_14  and  C_18
REMARK                            x       y       z     vdW  Elec       q    Type
REMARK                         _______ _______ _______ _____ _____    ______ ____
ROOT
ATOM      1  C   UNL     1      -2.466  -0.977   5.895  0.00  0.00    +0.180 C 
ATOM      2  N   UNL     1      -1.582  -0.655   7.040  0.00  0.00    -0.265 NA
ATOM      3  C   UNL     1      -2.397   0.138   7.982  0.00  0.00    +0.247 C 
ATOM      4  O   UNL     1      -3.713   0.258   7.411  0.00  0.00    -0.274 OA
ATOM      5  N   UNL     1      -3.517   0.074   5.954  0.00  0.00    -0.177 NA
ATOM      6  H   UNL     1      -1.239  -1.496   7.479  0.00  0.00    +0.127 HD
ATOM      7  H   UNL     1      -4.367  -0.239   5.509  0.00  0.00    +0.156 HD
ENDROOT
BRANCH   3   8
ATOM      8  C   UNL     1      -2.474  -0.566   9.312  0.00  0.00    +0.061 A 
ATOM      9  H   UNL     1      -4.509  -2.433  10.995  0.00  0.00    +0.165 HD
ATOM     10  C   UNL     1      -3.572  -1.281   9.634  0.00  0.00    +0.094 A 
ATOM     11  N   UNL     1      -3.697  -1.933  10.815  0.00  0.00    -0.360 N 
ATOM     12  C   UNL     1      -2.700  -1.905  11.764  0.00  0.00    +0.050 A 
ATOM     13  C   UNL     1      -2.839  -2.579  12.974  0.00  0.00    +0.026 A 
ATOM     14  C   UNL     1      -1.822  -2.530  13.902  0.00  0.00    +0.002 A 
ATOM     15  C   UNL     1      -0.661  -1.815  13.645  0.00  0.00    +0.001 A 
ATOM     16  C   UNL     1      -0.504  -1.146  12.463  0.00  0.00    +0.014 A 
ATOM     17  C   UNL     1      -1.521  -1.183  11.509  0.00  0.00    +0.045 A 
ATOM     18  C   UNL     1      -1.393  -0.481  10.220  0.00  0.00    +0.196 A 
ATOM     19  O   UNL     1      -0.388   0.156   9.947  0.00  0.00    -0.287 OA
ENDBRANCH   3   8
BRANCH   1  23
ATOM     20  C   UNL     1      -0.305  -0.736   2.216  0.00  0.00    +0.121 A 
ATOM     21  C   UNL     1      -1.655  -0.415   2.251  0.00  0.00    +0.046 A 
ATOM     22  C   UNL     1      -2.351  -0.494   3.442  0.00  0.00    +0.010 A 
ATOM     23  C   UNL     1      -1.704  -0.892   4.597  0.00  0.00    -0.014 A 
ATOM     24  C   UNL     1      -0.359  -1.212   4.564  0.00  0.00    +0.010 A 
ATOM     25  C   UNL     1       0.340  -1.140   3.375  0.00  0.00    +0.046 A 
BRANCH  20  26
ATOM     26  O   UNL     1       0.382  -0.659   1.046  0.00  0.00    -0.489 OA
BRANCH  26  28
ATOM     27  C   UNL     1      -0.539   1.164  -0.246  0.00  0.00    +0.051 C 
ATOM     28  C   UNL     1      -0.371  -0.352  -0.130  0.00  0.00    +0.167 C 
ATOM     29  C   UNL     1       0.369  -0.879  -1.361  0.00  0.00    +0.051 C 
ENDBRANCH  26  28
ENDBRANCH  20  26
ENDBRANCH   1  23
TORSDOF 4
