REMARK  Name = ZINC04100113
REMARK  6 active torsions:
REMARK  status: ('A' for Active; 'I' for Inactive)
REMARK    1  A    between atoms: C_9  and  O_32
REMARK    2  A    between atoms: C_10  and  C_11
REMARK    3  A    between atoms: N_12  and  N_13
REMARK    4  A    between atoms: C_14  and  S_16
REMARK    5  A    between atoms: S_16  and  C_17
REMARK    6  A    between atoms: N_22  and  C_25
REMARK                            x       y       z     vdW  Elec       q    Type
REMARK                         _______ _______ _______ _____ _____    ______ ____
ROOT
ATOM      1  N   UNL     1       7.272  -0.742   0.322  0.00  0.00    -0.217 N 
ATOM      2  C   UNL     1       8.569  -1.192   0.225  0.00  0.00    +0.146 C 
ATOM      3  N   UNL     1       8.821  -2.471   0.267  0.00  0.00    -0.380 N 
ATOM      4  H   UNL     1       7.085   0.210   0.291  0.00  0.00    +0.176 HD
ATOM      5  H   UNL     1       9.735  -2.789   0.199  0.00  0.00    +0.158 HD
ATOM      6  H   UNL     1       8.093  -3.106   0.367  0.00  0.00    +0.158 HD
ENDROOT
BRANCH   1   8
ATOM      7  C   UNL     1       4.997  -1.232   0.557  0.00  0.00    +0.142 C 
ATOM      8  N   UNL     1       6.222  -1.657   0.466  0.00  0.00    -0.188 NA
BRANCH   7  18
ATOM      9  C   UNL     1      -0.130  -0.923   1.015  0.00  0.00    +0.001 A 
ATOM     10  C   UNL     1       0.888   0.017   0.874  0.00  0.00    +0.001 A 
ATOM     11  C   UNL     1       2.191  -0.371   0.773  0.00  0.00    +0.009 A 
ATOM     12  C   UNL     1       2.512  -1.733   0.812  0.00  0.00    -0.006 A 
ATOM     13  C   UNL     1       1.480  -2.692   0.956  0.00  0.00    -0.017 A 
ATOM     14  C   UNL     1       0.147  -2.256   1.056  0.00  0.00    +0.008 A 
ATOM     15  C   UNL     1       1.804  -4.059   0.995  0.00  0.00    +0.012 A 
ATOM     16  C   UNL     1       3.097  -4.470   0.897  0.00  0.00    +0.046 A 
ATOM     17  C   UNL     1       4.146  -3.564   0.754  0.00  0.00    +0.126 A 
ATOM     18  C   UNL     1       3.895  -2.193   0.708  0.00  0.00    +0.044 A 
BRANCH  17  19
ATOM     19  O   UNL     1       5.422  -4.020   0.660  0.00  0.00    -0.506 OA
ATOM     20  H   UNL     1       5.711  -4.197  -0.245  0.00  0.00    +0.292 HD
ENDBRANCH  17  19
ENDBRANCH   7  18
ENDBRANCH   1   8
BRANCH   2  21
ATOM     21  S   UNL     1       9.890  -0.040   0.045  0.00  0.00    -0.078 S 
BRANCH  21  22
ATOM     22  C   UNL     1      11.373  -1.082  -0.039  0.00  0.00    +0.149 C 
ATOM     23  C   UNL     1      12.643  -0.212  -0.128  0.00  0.00    +0.120 C 
ATOM     24  C   UNL     1      13.249  -0.605  -1.458  0.00  0.00    +0.228 C 
ATOM     25  O   UNL     1      14.273  -0.153  -1.924  0.00  0.00    -0.275 OA
ATOM     26  N   UNL     1      12.476  -1.532  -2.038  0.00  0.00    -0.209 N 
ATOM     27  C   UNL     1      11.392  -1.878  -1.326  0.00  0.00    +0.240 C 
ATOM     28  O   UNL     1      10.561  -2.695  -1.659  0.00  0.00    -0.274 OA
BRANCH  26  29
ATOM     29  C   UNL     1      12.775  -2.097  -3.286  0.00  0.00    +0.044 A 
ATOM     30  C   UNL     1      13.885  -2.919  -3.429  0.00  0.00    +0.025 A 
ATOM     31  C   UNL     1      14.178  -3.474  -4.659  0.00  0.00    +0.017 A 
ATOM     32  C   UNL     1      13.366  -3.212  -5.748  0.00  0.00    +0.018 A 
ATOM     33  C   UNL     1      12.259  -2.394  -5.608  0.00  0.00    +0.017 A 
ATOM     34  C   UNL     1      11.959  -1.841  -4.379  0.00  0.00    +0.025 A 
ATOM     35 BR   UNL     1      13.770  -3.974  -7.431  0.00  0.00    -0.050 Br
ENDBRANCH  26  29
ENDBRANCH  21  22
ENDBRANCH   2  21
TORSDOF 6
