REMARK  Name = ZINC05774159
REMARK  3 active torsions:
REMARK  status: ('A' for Active; 'I' for Inactive)
REMARK    1  A    between atoms: C_4  and  N_7
REMARK    2  A    between atoms: C_8  and  N_24
REMARK    3  A    between atoms: N_12  and  C_14
REMARK                            x       y       z     vdW  Elec       q    Type
REMARK                         _______ _______ _______ _____ _____    ______ ____
ROOT
ATOM      1  N   UNL     1       6.017  -0.383  -0.236  0.00  0.00    -0.205 N 
ATOM      2  C   UNL     1       5.906   0.896   0.285  0.00  0.00    +0.131 C 
ATOM      3  C   UNL     1       4.602   1.227   0.382  0.00  0.00    +0.126 C 
ATOM      4  C   UNL     1       3.816   0.088  -0.109  0.00  0.00    +0.181 C 
ATOM      5  N   UNL     1       2.552   0.392  -0.016  0.00  0.00    -0.143 NA
ATOM      6  N   UNL     1       2.396   1.681   0.502  0.00  0.00    -0.137 N 
ATOM      7  N   UNL     1       3.665   2.220   0.762  0.00  0.00    -0.238 N 
ATOM      8  N   UNL     1       4.736  -0.893  -0.484  0.00  0.00    -0.239 N 
ATOM      9  H   UNL     1       3.862   3.097   1.127  0.00  0.00    +0.172 HD
ATOM     10  H   UNL     1       4.527  -1.767  -0.849  0.00  0.00    +0.172 HD
ENDROOT
BRANCH   6  11
ATOM     11  C   UNL     1       1.179   2.322   0.730  0.00  0.00    +0.109 A 
ATOM     12  C   UNL     1       0.060   1.584   1.102  0.00  0.00    +0.068 A 
ATOM     13  C   UNL     1      -1.144   2.223   1.327  0.00  0.00    +0.042 A 
ATOM     14  C   UNL     1      -1.238   3.596   1.182  0.00  0.00    +0.044 A 
ATOM     15  C   UNL     1      -0.126   4.335   0.817  0.00  0.00    +0.042 A 
ATOM     16  C   UNL     1       1.080   3.703   0.586  0.00  0.00    +0.068 A 
ATOM     17 CL   UNL     1       2.473   4.630   0.123  0.00  0.00    -0.081 Cl
ATOM     18 CL   UNL     1      -2.753   4.395   1.465  0.00  0.00    -0.083 Cl
ATOM     19 CL   UNL     1       0.177  -0.139   1.284  0.00  0.00    -0.081 Cl
ENDBRANCH   6  11
BRANCH   1  23
ATOM     20  C   UNL     1       9.593  -2.393  -0.954  0.00  0.00    +0.000 A 
ATOM     21  C   UNL     1       8.555  -3.041  -0.310  0.00  0.00    +0.002 A 
ATOM     22  C   UNL     1       7.368  -2.377  -0.070  0.00  0.00    +0.025 A 
ATOM     23  C   UNL     1       7.216  -1.057  -0.477  0.00  0.00    +0.055 A 
ATOM     24  C   UNL     1       8.259  -0.411  -1.130  0.00  0.00    +0.025 A 
ATOM     25  C   UNL     1       9.446  -1.079  -1.361  0.00  0.00    +0.002 A 
ENDBRANCH   1  23
BRANCH   2  26
ATOM     26  N   UNL     1       6.971   1.710   0.652  0.00  0.00    -0.343 N 
ATOM     27  H   UNL     1       6.808   2.622   0.937  0.00  0.00    +0.144 HD
ATOM     28  H   UNL     1       7.877   1.365   0.622  0.00  0.00    +0.144 HD
ENDBRANCH   2  26
TORSDOF 3
