REMARK  Name = ZINC63061540
REMARK  6 active torsions:
REMARK  status: ('A' for Active; 'I' for Inactive)
REMARK    1  A    between atoms: C_1  and  C_2
REMARK    2  A    between atoms: C_7  and  O_8
REMARK    3  A    between atoms: O_8  and  C_9
REMARK    4  A    between atoms: C_12  and  S_16
REMARK    5  A    between atoms: C_14  and  N_15
REMARK    6  A    between atoms: S_16  and  C_19
REMARK                            x       y       z     vdW  Elec       q    Type
REMARK                         _______ _______ _______ _____ _____    ______ ____
ROOT
ATOM      1  C   UNL     1       0.054  -0.847   3.470  0.00  0.00    +0.149 A 
ATOM      2  C   UNL     1       0.136  -2.221   3.308  0.00  0.00    +0.050 A 
ATOM      3  C   UNL     1       0.165  -3.047   4.416  0.00  0.00    +0.030 A 
ATOM      4  C   UNL     1       0.112  -2.507   5.688  0.00  0.00    +0.090 A 
ATOM      5  C   UNL     1       0.030  -1.138   5.858  0.00  0.00    +0.053 A 
ATOM      6  C   UNL     1       0.007  -0.302   4.751  0.00  0.00    +0.069 A 
ENDROOT
BRANCH   4   7
ATOM      7  S   UNL     1       0.149  -3.567   7.095  0.00  0.00    -0.006 S 
ATOM      8  O   UNL     1      -0.514  -2.836   8.117  0.00  0.00    -0.170 OA
ATOM      9  O   UNL     1      -0.375  -4.803   6.631  0.00  0.00    -0.170 OA
ATOM     10  C   UNL     1       1.909  -3.746   7.497  0.00  0.00    +0.200 C 
ENDBRANCH   4   7
BRANCH   6  11
ATOM     11  N   UNL     1      -0.070   1.085   4.921  0.00  0.00    -0.355 N 
ATOM     12  H   UNL     1      -0.090   1.668   4.146  0.00  0.00    +0.142 HD
ATOM     13  H   UNL     1      -0.102   1.464   5.813  0.00  0.00    +0.142 HD
ENDBRANCH   6  11
BRANCH   1  14
ATOM     14  O   UNL     1       0.025  -0.033   2.381  0.00  0.00    -0.454 OA
BRANCH  14  21
ATOM     15  C   UNL     1      -0.086   1.822   0.254  0.00  0.00    +0.047 C 
ATOM     16  C   UNL     1       1.209   1.405   0.901  0.00  0.00    -0.007 A 
ATOM     17  C   UNL     1       2.405   1.938   0.461  0.00  0.00    +0.022 A 
ATOM     18  C   UNL     1       3.595   1.554   1.054  0.00  0.00    +0.018 A 
ATOM     19  C   UNL     1       3.589   0.636   2.090  0.00  0.00    +0.019 A 
ATOM     20  C   UNL     1       2.396   0.101   2.533  0.00  0.00    +0.047 A 
ATOM     21  C   UNL     1       1.201   0.488   1.943  0.00  0.00    +0.131 A 
ATOM     22 BR   UNL     1       5.230   2.285   0.450  0.00  0.00    -0.050 Br
ENDBRANCH  14  21
ENDBRANCH   1  14
TORSDOF 4
