REMARK  Name = ZINC50593274
REMARK  4 active torsions:
REMARK  status: ('A' for Active; 'I' for Inactive)
REMARK    1  A    between atoms: C_1  and  C_2
REMARK    2  A    between atoms: C_4  and  C_20
REMARK    3  A    between atoms: C_8  and  C_17
REMARK    4  A    between atoms: C_17  and  N_19
REMARK                            x       y       z     vdW  Elec       q    Type
REMARK                         _______ _______ _______ _____ _____    ______ ____
ROOT
ATOM      1  C   UNL     1       0.537   0.741  -1.371  0.00  0.00    +0.069 C 
ATOM      2  C   UNL     1      -0.113  -0.350  -0.559  0.00  0.00    +0.075 A 
ATOM      3  C   UNL     1      -1.490  -0.513  -0.361  0.00  0.00    +0.062 A 
ATOM      4  C   UNL     1      -1.673  -1.602   0.420  0.00  0.00    +0.058 A 
ATOM      5  N   UNL     1      -0.445  -2.112   0.708  0.00  0.00    -0.217 N 
ATOM      6  N   UNL     1       0.511  -1.308   0.075  0.00  0.00    -0.169 NA
ATOM      7  C   UNL     1      -0.186  -3.237   1.489  0.00  0.00    +0.164 A 
ATOM      8  C   UNL     1       0.158  -3.086   2.841  0.00  0.00    +0.047 A 
ATOM      9  C   UNL     1       0.415  -4.234   3.596  0.00  0.00    +0.019 A 
ATOM     10  C   UNL     1       0.318  -5.476   2.981  0.00  0.00    -0.025 A 
ATOM     11  C   UNL     1      -0.030  -5.547   1.649  0.00  0.00    +0.047 A 
ATOM     12  N   UNL     1      -0.269  -4.440   0.956  0.00  0.00    -0.232 NA
ATOM     13  C   UNL     1      -0.171  -6.862   0.923  0.00  0.00    +0.056 C 
ATOM     14  C   UNL     1       0.534  -7.978   1.691  0.00  0.00    +0.006 C 
ATOM     15  C   UNL     1       0.047  -7.949   3.145  0.00  0.00    +0.005 C 
ATOM     16  C   UNL     1       0.607  -6.695   3.815  0.00  0.00    +0.037 C 
ATOM     17  C   UNL     1      -2.996  -2.150   0.888  0.00  0.00    +0.067 C 
ATOM     18 BR   UNL     1      -2.853   0.594  -1.062  0.00  0.00    -0.047 Br
ENDROOT
BRANCH   8  19
ATOM     19  C   UNL     1       0.247  -1.747   3.451  0.00  0.00    +0.080 C 
ATOM     20  S   UNL     1       0.094  -0.349   2.475  0.00  0.00    -0.035 S 
BRANCH  19  21
ATOM     21  N   UNL     1       0.448  -1.623   4.778  0.00  0.00    -0.352 N 
ATOM     22  H   UNL     1       0.535  -2.415   5.332  0.00  0.00    +0.143 HD
ATOM     23  H   UNL     1       0.506  -0.742   5.180  0.00  0.00    +0.143 HD
ENDBRANCH  19  21
ENDBRANCH   8  19
TORSDOF 2
