REMARK  Name = ZINC08203517
REMARK  13 active torsions:
REMARK  status: ('A' for Active; 'I' for Inactive)
REMARK    1  A    between atoms: C_1  and  C_2
REMARK    2  A    between atoms: C_5  and  O_27
REMARK    3  A    between atoms: C_6  and  N_8
REMARK    4  A    between atoms: C_9  and  C_11
REMARK    5  A    between atoms: C_11  and  N_12
REMARK    6  A    between atoms: N_12  and  C_13
REMARK    7  A    between atoms: N_12  and  C_14
REMARK    8  A    between atoms: C_14  and  C_15
REMARK    9  A    between atoms: N_17  and  C_18
REMARK   10  A    between atoms: C_19  and  C_26
REMARK   11  A    between atoms: C_21  and  C_25
REMARK   12  A    between atoms: C_23  and  C_24
REMARK   13  A    between atoms: O_27  and  C_28
REMARK                            x       y       z     vdW  Elec       q    Type
REMARK                         _______ _______ _______ _____ _____    ______ ____
ROOT
ATOM      1  N   UNL     1      -0.787  -2.700   6.563  0.00  0.00    +0.389 N 
ATOM      2  C   UNL     1      -2.102  -2.675   7.218  0.00  0.00    -0.095 C 
ATOM      3  H   UNL     1      -0.572  -1.782   6.205  0.00  0.00    -0.081 HD
ENDROOT
BRANCH   1   4
ATOM      4  C   UNL     1      -0.809  -3.666   5.456  0.00  0.00    +0.019 C 
BRANCH   4   6
ATOM      5  N   UNL     1      -1.958  -3.925   3.281  0.00  0.00    -0.284 N 
ATOM      6  C   UNL     1      -1.773  -3.193   4.397  0.00  0.00    +0.201 C 
ATOM      7  O   UNL     1      -2.381  -2.155   4.550  0.00  0.00    -0.278 OA
ATOM      8  H   UNL     1      -1.523  -4.787   3.188  0.00  0.00    +0.155 HD
BRANCH   5  14
ATOM      9  C   UNL     1      -4.226  -0.145   1.102  0.00  0.00    +0.044 C 
ATOM     10  C   UNL     1      -3.896  -1.614   1.174  0.00  0.00    -0.048 A 
ATOM     11  C   UNL     1      -4.407  -2.483   0.227  0.00  0.00    +0.007 A 
ATOM     12  C   UNL     1      -4.108  -3.831   0.288  0.00  0.00    +0.048 A 
ATOM     13  C   UNL     1      -3.295  -4.316   1.301  0.00  0.00    +0.141 A 
ATOM     14  C   UNL     1      -2.781  -3.441   2.255  0.00  0.00    +0.076 A 
ATOM     15  C   UNL     1      -3.080  -2.088   2.183  0.00  0.00    +0.030 A 
BRANCH  13  16
ATOM     16  O   UNL     1      -3.001  -5.642   1.363  0.00  0.00    -0.493 OA
ATOM     17  C   UNL     1      -3.564  -6.479   0.351  0.00  0.00    +0.277 C 
ENDBRANCH  13  16
ENDBRANCH   5  14
ENDBRANCH   4   6
ENDBRANCH   1   4
BRANCH   1  18
ATOM     18  C   UNL     1       0.238  -3.097   7.538  0.00  0.00    +0.019 C 
BRANCH  18  19
ATOM     19  C   UNL     1       0.346  -2.043   8.610  0.00  0.00    +0.201 C 
ATOM     20  O   UNL     1      -0.361  -1.059   8.566  0.00  0.00    -0.278 OA
ATOM     21  N   UNL     1       1.228  -2.195   9.618  0.00  0.00    -0.287 N 
ATOM     22  H   UNL     1       1.851  -2.939   9.609  0.00  0.00    +0.155 HD
BRANCH  21  23
ATOM     23  C   UNL     1       1.247  -1.280  10.675  0.00  0.00    +0.039 A 
ATOM     24  C   UNL     1       1.079  -1.721  11.981  0.00  0.00    -0.029 A 
ATOM     25  C   UNL     1       1.097  -0.815  13.023  0.00  0.00    +0.008 A 
ATOM     26  C   UNL     1       1.283   0.531  12.767  0.00  0.00    -0.050 A 
ATOM     27  C   UNL     1       1.450   0.974  11.468  0.00  0.00    +0.008 A 
ATOM     28  C   UNL     1       1.439   0.072  10.422  0.00  0.00    -0.029 A 
ATOM     29  C   UNL     1       1.628   0.555   9.008  0.00  0.00    +0.045 C 
ATOM     30  C   UNL     1       1.303   1.517  13.907  0.00  0.00    +0.044 C 
ATOM     31  C   UNL     1       0.875  -3.188  12.261  0.00  0.00    +0.045 C 
ENDBRANCH  21  23
ENDBRANCH  18  19
ENDBRANCH   1  18
TORSDOF 7
