REMARK  Name = ZINC66708827
REMARK  4 active torsions:
REMARK  status: ('A' for Active; 'I' for Inactive)
REMARK    1  A    between atoms: C_1  and  C_2
REMARK    2  A    between atoms: C_6  and  C_22
REMARK    3  A    between atoms: C_10  and  C_12
REMARK    4  A    between atoms: C_14  and  C_18
REMARK                            x       y       z     vdW  Elec       q    Type
REMARK                         _______ _______ _______ _____ _____    ______ ____
ROOT
ATOM      1  C   UNL     1      -0.070   1.504   0.052  0.00  0.00    +0.030 C 
ATOM      2  C   UNL     1      -0.011  -0.024   0.005  0.00  0.00    +0.099 C 
ATOM      3  C   UNL     1      -1.433  -0.596  -0.004  0.00  0.00    +0.183 C 
ATOM      4  O   UNL     1      -2.056  -0.329   1.255  0.00  0.00    -0.369 OA
ATOM      5  C   UNL     1      -1.410  -0.948   2.370  0.00  0.00    +0.166 C 
ATOM      6  C   UNL     1       0.013  -0.394   2.501  0.00  0.00    +0.145 C 
ATOM      7  N   UNL     1       0.686  -0.530   1.198  0.00  0.00    -0.288 N 
ATOM      8  C   UNL     1       1.903  -1.101   1.101  0.00  0.00    +0.266 C 
ATOM      9  O   UNL     1       2.397  -1.297   0.007  0.00  0.00    -0.268 OA
ENDROOT
BRANCH   8  10
ATOM     10  C   UNL     1       2.634  -1.486   2.317  0.00  0.00    +0.135 A 
ATOM     11  C   UNL     1       3.229  -0.635   3.235  0.00  0.00    +0.071 A 
ATOM     12  C   UNL     1       3.791  -1.472   4.204  0.00  0.00    +0.081 A 
ATOM     13  N   UNL     1       3.534  -2.709   3.864  0.00  0.00    -0.177 NA
ATOM     14  N   UNL     1       2.857  -2.755   2.774  0.00  0.00    -0.271 N 
ATOM     15  H   UNL     1       2.553  -3.567   2.339  0.00  0.00    +0.189 HD
ATOM     16 BR   UNL     1       3.273   1.254   3.186  0.00  0.00    -0.046 Br
BRANCH  12  17
ATOM     17  C   UNL     1       4.556  -1.027   5.424  0.00  0.00    +0.041 C 
ATOM     18  C   UNL     1       5.258  -2.107   6.249  0.00  0.00    +0.010 C 
ATOM     19  C   UNL     1       3.999  -1.428   6.791  0.00  0.00    +0.010 C 
ENDBRANCH  12  17
ENDBRANCH   8  10
BRANCH   5  20
ATOM     20  C   UNL     1      -2.184  -0.651   3.628  0.00  0.00    -0.017 A 
ATOM     21  C   UNL     1      -2.817   0.568   3.779  0.00  0.00    +0.006 A 
ATOM     22  C   UNL     1      -3.527   0.841   4.933  0.00  0.00    +0.000 A 
ATOM     23  C   UNL     1      -3.605  -0.107   5.937  0.00  0.00    +0.000 A 
ATOM     24  C   UNL     1      -2.973  -1.327   5.786  0.00  0.00    +0.000 A 
ATOM     25  C   UNL     1      -2.267  -1.601   4.630  0.00  0.00    +0.006 A 
ENDBRANCH   5  20
TORSDOF 3
