REMARK  Name = ZINC35545910
REMARK  5 active torsions:
REMARK  status: ('A' for Active; 'I' for Inactive)
REMARK    1  A    between atoms: C_1  and  C_2
REMARK    2  A    between atoms: C_2  and  N_3
REMARK    3  A    between atoms: N_3  and  C_4
REMARK    4  A    between atoms: C_4  and  C_6
REMARK    5  A    between atoms: C_4  and  C_13
REMARK                            x       y       z     vdW  Elec       q    Type
REMARK                         _______ _______ _______ _____ _____    ______ ____
ROOT
ATOM      1  C   UNL     1      -1.356  -1.981   0.004  0.00  0.00    -0.010 C 
ENDROOT
BRANCH   1   2
ATOM      2  C   UNL     1      -2.766  -2.502  -0.109  0.00  0.00    -0.055 A 
ATOM      3  C   UNL     1      -3.789  -1.879   0.585  0.00  0.00    +0.004 A 
ATOM      4  C   UNL     1      -5.084  -2.349   0.488  0.00  0.00    +0.028 A 
ATOM      5  C   UNL     1      -5.360  -3.450  -0.308  0.00  0.00    +0.067 A 
ATOM      6  C   UNL     1      -4.329  -4.078  -1.009  0.00  0.00    +0.067 A 
ATOM      7  C   UNL     1      -3.033  -3.596  -0.909  0.00  0.00    +0.030 A 
ATOM      8  N   UNL     1      -4.904  -5.135  -1.710  0.00  0.00    -0.306 N 
ATOM      9  H   UNL     1      -4.433  -5.756  -2.288  0.00  0.00    +0.170 HD
ATOM     10  C   UNL     1      -6.224  -5.149  -1.449  0.00  0.00    +0.325 A 
ATOM     11  O   UNL     1      -7.021  -5.948  -1.905  0.00  0.00    -0.247 OA
ATOM     12  N   UNL     1      -6.530  -4.144  -0.607  0.00  0.00    -0.306 N 
ATOM     13  H   UNL     1      -7.415  -3.939  -0.265  0.00  0.00    +0.170 HD
ENDBRANCH   1   2
BRANCH   1  14
ATOM     14  C   UNL     1      -0.737  -2.482   1.284  0.00  0.00    -0.057 A 
ATOM     15  C   UNL     1      -1.031  -1.862   2.483  0.00  0.00    +0.003 A 
ATOM     16  C   UNL     1      -0.464  -2.321   3.657  0.00  0.00    +0.015 A 
ATOM     17  C   UNL     1       0.399  -3.402   3.631  0.00  0.00    +0.018 A 
ATOM     18  C   UNL     1       0.694  -4.023   2.430  0.00  0.00    +0.015 A 
ATOM     19  C   UNL     1       0.122  -3.566   1.258  0.00  0.00    +0.003 A 
ATOM     20 BR   UNL     1       1.177  -4.031   5.236  0.00  0.00    -0.050 Br
ENDBRANCH   1  14
BRANCH   1  21
ATOM     21  N   UNL     1      -1.376  -0.512   0.012  0.00  0.00    +0.386 N 
ATOM     22  H   UNL     1      -1.848  -0.187   0.843  0.00  0.00    -0.085 HD
ATOM     23  H   UNL     1      -1.864  -0.178  -0.805  0.00  0.00    -0.085 HD
BRANCH  21  25
ATOM     24  C   UNL     1      -0.019   1.526   0.010  0.00  0.00    -0.017 C 
ATOM     25  C   UNL     1       0.002  -0.004   0.002  0.00  0.00    -0.085 C 
ENDBRANCH  21  25
ENDBRANCH   1  21
TORSDOF 4
