REMARK  Name = ZINC43221628
REMARK  11 active torsions:
REMARK  status: ('A' for Active; 'I' for Inactive)
REMARK    1  A    between atoms: C_1  and  C_2
REMARK    2  A    between atoms: C_2  and  C_3
REMARK    3  A    between atoms: C_3  and  C_5
REMARK    4  A    between atoms: C_3  and  C_6
REMARK    5  A    between atoms: C_6  and  C_36
REMARK    6  A    between atoms: C_11  and  C_14
REMARK    7  A    between atoms: C_18  and  O_21
REMARK    8  A    between atoms: C_19  and  O_20
REMARK    9  A    between atoms: O_21  and  C_22
REMARK   10  A    between atoms: N_25  and  C_28
REMARK   11  A    between atoms: C_31  and  C_35
REMARK                            x       y       z     vdW  Elec       q    Type
REMARK                         _______ _______ _______ _____ _____    ______ ____
ROOT
ATOM      1  C   UNL     1      -0.936  -1.980  -0.043  0.00  0.00    +0.051 C 
ATOM      2  C   UNL     1      -2.082  -2.916  -0.392  0.00  0.00    +0.086 C 
ATOM      3  C   UNL     1      -2.003  -2.805  -1.962  0.00  0.00    +0.077 C 
ATOM      4  C   UNL     1      -0.566  -3.009  -2.212  0.00  0.00    -0.023 C 
ATOM      5  N   UNL     1       0.062  -2.141  -1.143  0.00  0.00    +0.396 N 
ATOM      6  C   UNL     1      -3.281  -3.343  -2.358  0.00  0.00    +0.229 C 
ATOM      7  O   UNL     1      -3.533  -3.990  -3.351  0.00  0.00    -0.275 OA
ATOM      8  N   UNL     1      -4.151  -2.963  -1.365  0.00  0.00    -0.210 N 
ATOM      9  C   UNL     1      -3.510  -2.494  -0.240  0.00  0.00    +0.229 C 
ATOM     10  O   UNL     1      -3.992  -1.867   0.678  0.00  0.00    -0.275 OA
ATOM     11  H   UNL     1       0.300  -1.237  -1.524  0.00  0.00    -0.083 HD
ATOM     12  H   UNL     1       0.892  -2.592  -0.788  0.00  0.00    -0.083 HD
ENDROOT
BRANCH   8  13
ATOM     13  C   UNL     1      -5.545  -3.052  -1.478  0.00  0.00    +0.045 A 
ATOM     14  C   UNL     1      -6.356  -2.640  -0.429  0.00  0.00    +0.024 A 
ATOM     15  C   UNL     1      -7.729  -2.728  -0.542  0.00  0.00    +0.006 A 
ATOM     16  C   UNL     1      -8.298  -3.226  -1.700  0.00  0.00    -0.032 A 
ATOM     17  C   UNL     1      -7.494  -3.637  -2.748  0.00  0.00    +0.046 A 
ATOM     18  C   UNL     1      -6.118  -3.546  -2.642  0.00  0.00    +0.044 A 
ATOM     19 CL   UNL     1      -8.212  -4.262  -4.200  0.00  0.00    -0.083 Cl
ATOM     20  C   UNL     1      -9.797  -3.321  -1.821  0.00  0.00    +0.045 C 
ENDBRANCH   8  13
BRANCH   4  21
ATOM     21  C   UNL     1      -0.193  -4.459  -2.043  0.00  0.00    -0.015 A 
ATOM     22  C   UNL     1       0.299  -4.910  -0.832  0.00  0.00    +0.006 A 
ATOM     23  C   UNL     1       0.642  -6.240  -0.674  0.00  0.00    +0.004 A 
ATOM     24  C   UNL     1       0.494  -7.125  -1.727  0.00  0.00    +0.049 A 
ATOM     25  C   UNL     1       0.002  -6.679  -2.942  0.00  0.00    +0.161 A 
ATOM     26  C   UNL     1      -0.349  -5.341  -3.099  0.00  0.00    +0.160 A 
BRANCH  26  27
ATOM     27  O   UNL     1      -0.839  -4.900  -4.289  0.00  0.00    -0.503 OA
ATOM     28  H   UNL     1      -0.159  -4.593  -4.905  0.00  0.00    +0.292 HD
ENDBRANCH  26  27
BRANCH  25  29
ATOM     29  O   UNL     1      -0.144  -7.548  -3.978  0.00  0.00    -0.491 OA
ATOM     30  C   UNL     1       0.231  -8.907  -3.743  0.00  0.00    +0.277 C 
ENDBRANCH  25  29
ENDBRANCH   4  21
BRANCH   1  31
ATOM     31  C   UNL     1      -0.325  -2.371   1.278  0.00  0.00    +0.347 C 
ATOM     32  O   UNL     1      -1.001  -2.352   2.292  0.00  0.00    -0.248 OA
ATOM     33  O   UNL     1       0.846  -2.707   1.331  0.00  0.00    -0.248 OA
ENDBRANCH   1  31
BRANCH   1  34
ATOM     34  C   UNL     1      -1.433  -0.534   0.013  0.00  0.00    -0.014 C 
ATOM     35  C   UNL     1      -1.932  -0.112  -1.371  0.00  0.00    +0.006 C 
BRANCH  34  37
ATOM     36  C   UNL     1      -0.813   1.809   0.620  0.00  0.00    +0.004 C 
ATOM     37  C   UNL     1      -0.287   0.383   0.443  0.00  0.00    -0.001 C 
ENDBRANCH  34  37
ENDBRANCH   1  34
TORSDOF 7
