REMARK  Name = ZINC40591631
REMARK  8 active torsions:
REMARK  status: ('A' for Active; 'I' for Inactive)
REMARK    1  A    between atoms: C_1  and  C_2
REMARK    2  A    between atoms: C_2  and  C_3
REMARK    3  A    between atoms: C_3  and  C_4
REMARK    4  A    between atoms: C_4  and  C_5
REMARK    5  A    between atoms: C_4  and  C_6
REMARK    6  A    between atoms: C_4  and  N_9
REMARK    7  A    between atoms: N_12  and  C_13
REMARK    8  A    between atoms: C_18  and  C_19
REMARK                            x       y       z     vdW  Elec       q    Type
REMARK                         _______ _______ _______ _____ _____    ______ ____
ROOT
ATOM      1  N   UNL     1      -2.788  -2.570  -0.002  0.00  0.00    -0.283 N 
ATOM      2  C   UNL     1      -3.015  -3.898   0.006  0.00  0.00    +0.305 C 
ATOM      3  O   UNL     1      -2.080  -4.676   0.001  0.00  0.00    -0.252 OA
ATOM      4  N   UNL     1      -4.280  -4.365   0.019  0.00  0.00    -0.269 N 
ATOM      5  H   UNL     1      -3.534  -1.950   0.003  0.00  0.00    +0.151 HD
ATOM      6  H   UNL     1      -5.024  -3.749   0.106  0.00  0.00    +0.156 HD
ENDROOT
BRANCH   4   7
ATOM      7  C   UNL     1      -4.519  -5.740  -0.091  0.00  0.00    +0.039 A 
ATOM      8  C   UNL     1      -3.586  -6.561  -0.711  0.00  0.00    +0.039 A 
ATOM      9  C   UNL     1      -3.826  -7.918  -0.818  0.00  0.00    +0.020 A 
ATOM     10  C   UNL     1      -4.994  -8.457  -0.309  0.00  0.00    +0.015 A 
ATOM     11  C   UNL     1      -5.924  -7.642   0.308  0.00  0.00    +0.006 A 
ATOM     12  C   UNL     1      -5.688  -6.286   0.423  0.00  0.00    -0.029 A 
ATOM     13  C   UNL     1      -6.700  -5.399   1.101  0.00  0.00    +0.045 C 
ATOM     14 BR   UNL     1      -2.556  -9.037  -1.661  0.00  0.00    -0.050 Br
ENDBRANCH   4   7
BRANCH   1  15
ATOM     15  C   UNL     1      -1.413  -2.063  -0.016  0.00  0.00    +0.134 C 
ATOM     16  C   UNL     1      -0.674  -2.557   1.229  0.00  0.00    +0.044 C 
BRANCH  15  17
ATOM     17  C   UNL     1      -0.707  -2.560  -1.251  0.00  0.00    +0.379 C 
ATOM     18  O   UNL     1       0.454  -2.251  -1.456  0.00  0.00    -0.244 OA
ATOM     19  O   UNL     1      -1.297  -3.273  -2.045  0.00  0.00    -0.244 OA
ENDBRANCH  15  17
BRANCH  15  20
ATOM     20  C   UNL     1      -1.435  -0.533  -0.022  0.00  0.00    +0.037 C 
BRANCH  20  22
ATOM     21  C   UNL     1      -0.021   1.527  -0.044  0.00  0.00    +0.004 C 
ATOM     22  C   UNL     1       0.001  -0.003  -0.037  0.00  0.00    -0.001 C 
ENDBRANCH  20  22
ENDBRANCH  15  20
ENDBRANCH   1  15
TORSDOF 5
