REMARK  Name = ZINC11690523
REMARK  6 active torsions:
REMARK  status: ('A' for Active; 'I' for Inactive)
REMARK    1  A    between atoms: C_1  and  C_2
REMARK    2  A    between atoms: C_5  and  N_8
REMARK    3  A    between atoms: C_9  and  N_23
REMARK    4  A    between atoms: C_10  and  C_13
REMARK    5  A    between atoms: N_15  and  C_16
REMARK    6  A    between atoms: N_15  and  C_17
REMARK                            x       y       z     vdW  Elec       q    Type
REMARK                         _______ _______ _______ _____ _____    ______ ____
ROOT
ATOM      1  N   UNL     1       3.476   1.292   3.206  0.00  0.00    -0.198 N 
ATOM      2  C   UNL     1       2.208   1.592   3.603  0.00  0.00    +0.152 A 
ATOM      3  C   UNL     1       1.402   1.437   2.482  0.00  0.00    +0.189 A 
ATOM      4  N   UNL     1       2.185   1.064   1.453  0.00  0.00    -0.122 NA
ATOM      5  N   UNL     1       3.407   0.969   1.844  0.00  0.00    -0.058 NA
ENDROOT
BRANCH   1  10
ATOM      6  C   UNL     1       8.142   1.357   6.438  0.00  0.00    +0.044 C 
ATOM      7  C   UNL     1       6.903   1.340   5.580  0.00  0.00    -0.050 A 
ATOM      8  C   UNL     1       6.773   0.399   4.574  0.00  0.00    +0.005 A 
ATOM      9  C   UNL     1       5.639   0.381   3.787  0.00  0.00    +0.028 A 
ATOM     10  C   UNL     1       4.629   1.308   4.004  0.00  0.00    +0.069 A 
ATOM     11  C   UNL     1       4.765   2.255   5.010  0.00  0.00    +0.028 A 
ATOM     12  C   UNL     1       5.899   2.265   5.799  0.00  0.00    +0.005 A 
ENDBRANCH   1  10
BRANCH   3  13
ATOM     13  C   UNL     1      -0.049   1.651   2.428  0.00  0.00    +0.274 C 
ATOM     14  O   UNL     1      -0.667   1.892   3.448  0.00  0.00    -0.268 OA
ATOM     15  N   UNL     1      -0.697   1.579   1.248  0.00  0.00    -0.269 N 
ATOM     16  C   UNL     1       0.022   1.165   0.042  0.00  0.00    +0.138 C 
BRANCH  15  17
ATOM     17  C   UNL     1      -2.056   1.901   1.177  0.00  0.00    +0.036 A 
ATOM     18  C   UNL     1      -2.702   2.445   2.280  0.00  0.00    +0.023 A 
ATOM     19  C   UNL     1      -4.043   2.766   2.204  0.00  0.00    +0.002 A 
ATOM     20  C   UNL     1      -4.745   2.537   1.035  0.00  0.00    +0.000 A 
ATOM     21  C   UNL     1      -4.107   1.990  -0.063  0.00  0.00    +0.002 A 
ATOM     22  C   UNL     1      -2.765   1.672   0.004  0.00  0.00    +0.023 A 
ENDBRANCH  15  17
ENDBRANCH   3  13
BRANCH   2  23
ATOM     23  N   UNL     1       1.805   1.971   4.867  0.00  0.00    -0.341 N 
ATOM     24  H   UNL     1       0.870   2.159   5.042  0.00  0.00    +0.144 HD
ATOM     25  H   UNL     1       2.457   2.048   5.582  0.00  0.00    +0.144 HD
ENDBRANCH   2  23
TORSDOF 4
