REMARK  Name = ZINC04246360
REMARK  7 active torsions:
REMARK  status: ('A' for Active; 'I' for Inactive)
REMARK    1  A    between atoms: C_5  and  C_7
REMARK    2  A    between atoms: C_7  and  N_8
REMARK    3  A    between atoms: C_9  and  C_11
REMARK    4  A    between atoms: C_11  and  O_12
REMARK    5  A    between atoms: O_12  and  C_13
REMARK    6  A    between atoms: C_13  and  C_15
REMARK    7  A    between atoms: C_20  and  N_21
REMARK                            x       y       z     vdW  Elec       q    Type
REMARK                         _______ _______ _______ _____ _____    ______ ____
ROOT
ATOM      1  C   UNL     1       3.782   5.859   0.105  0.00  0.00    +0.328 C 
ENDROOT
BRANCH   1   3
ATOM      2  N   UNL     1       4.683   8.158   0.252  0.00  0.00    -0.308 N 
ATOM      3  C   UNL     1       3.604   7.350   0.239  0.00  0.00    +0.251 C 
ATOM      4  O   UNL     1       2.491   7.822   0.335  0.00  0.00    -0.272 OA
ATOM      5  H   UNL     1       5.573   7.781   0.175  0.00  0.00    +0.149 HD
BRANCH   2   6
ATOM      6  C   UNL     1       4.510   9.607   0.382  0.00  0.00    +0.141 C 
BRANCH   6  11
ATOM      7  C   UNL     1       7.685  11.287   1.546  0.00  0.00    +0.000 A 
ATOM      8  C   UNL     1       8.338  11.506   0.347  0.00  0.00    +0.001 A 
ATOM      9  C   UNL     1       7.752  11.112  -0.841  0.00  0.00    +0.020 A 
ATOM     10  C   UNL     1       6.513  10.497  -0.831  0.00  0.00    +0.046 A 
ATOM     11  C   UNL     1       5.861  10.277   0.369  0.00  0.00    -0.012 A 
ATOM     12  C   UNL     1       6.445  10.677   1.557  0.00  0.00    +0.006 A 
ATOM     13 CL   UNL     1       5.777  10.001  -2.323  0.00  0.00    -0.083 Cl
ENDBRANCH   6  11
ENDBRANCH   2   6
ENDBRANCH   1   3
BRANCH   1  14
ATOM     14  O   UNL     1       2.481   5.214   0.117  0.00  0.00    -0.452 OA
BRANCH  14  15
ATOM     15  C   UNL     1       2.463   3.871   0.006  0.00  0.00    +0.341 C 
ATOM     16  O   UNL     1       3.506   3.256  -0.098  0.00  0.00    -0.245 OA
BRANCH  15  17
ATOM     17  C   UNL     1       1.179   3.149   0.011  0.00  0.00    +0.081 A 
ATOM     18  C   UNL     1      -0.026   3.857   0.005  0.00  0.00    +0.032 A 
ATOM     19  C   UNL     1      -1.224   3.175   0.010  0.00  0.00    +0.019 A 
ATOM     20  C   UNL     1      -1.240   1.788   0.015  0.00  0.00    +0.017 A 
ATOM     21  C   UNL     1      -0.059   1.076   0.025  0.00  0.00    +0.024 A 
ATOM     22  C   UNL     1       1.158   1.745   0.020  0.00  0.00    +0.039 A 
ATOM     23 BR   UNL     1      -2.853   4.135   0.003  0.00  0.00    -0.050 Br
BRANCH  22  24
ATOM     24  N   UNL     1       2.348   1.030   0.025  0.00  0.00    -0.357 N 
ATOM     25  H   UNL     1       2.371   0.124  -0.322  0.00  0.00    +0.142 HD
ATOM     26  H   UNL     1       3.157   1.436   0.374  0.00  0.00    +0.142 HD
ENDBRANCH  22  24
ENDBRANCH  15  17
ENDBRANCH  14  15
ENDBRANCH   1  14
TORSDOF 7
