REMARK  Name = ZINC19689214
REMARK  4 active torsions:
REMARK  status: ('A' for Active; 'I' for Inactive)
REMARK    1  A    between atoms: C_1  and  C_2
REMARK    2  A    between atoms: C_2  and  C_4
REMARK    3  A    between atoms: C_2  and  N_11
REMARK    4  A    between atoms: C_12  and  N_16
REMARK                            x       y       z     vdW  Elec       q    Type
REMARK                         _______ _______ _______ _____ _____    ______ ____
ROOT
ATOM      1  C   UNL     1      -0.753   1.593  -1.232  0.00  0.00    +0.038 C 
ATOM      2  C   UNL     1      -0.013   1.086   0.008  0.00  0.00    +0.137 C 
ENDROOT
BRANCH   2   3
ATOM      3  C   UNL     1      -0.718   1.572   1.248  0.00  0.00    -0.009 A 
ATOM      4  C   UNL     1      -0.856   2.928   1.478  0.00  0.00    +0.007 A 
ATOM      5  C   UNL     1      -1.506   3.374   2.613  0.00  0.00    +0.000 A 
ATOM      6  C   UNL     1      -2.012   2.464   3.523  0.00  0.00    +0.001 A 
ATOM      7  C   UNL     1      -1.870   1.108   3.297  0.00  0.00    +0.015 A 
ATOM      8  C   UNL     1      -1.223   0.661   2.158  0.00  0.00    +0.023 A 
ATOM      9 BR   UNL     1      -1.028  -1.194   1.848  0.00  0.00    -0.050 Br
ENDBRANCH   2   3
BRANCH   2  10
ATOM     10  N   UNL     1       1.362   1.593  -0.002  0.00  0.00    -0.244 N 
ATOM     11  C   UNL     1       2.487   0.842  -0.017  0.00  0.00    +0.115 A 
ATOM     12  C   UNL     1       3.549   1.694  -0.023  0.00  0.00    +0.064 A 
ATOM     13  C   UNL     1       3.050   3.000  -0.011  0.00  0.00    +0.136 A 
ATOM     14  N   UNL     1       1.743   2.941  -0.005  0.00  0.00    -0.177 NA
BRANCH  11  15
ATOM     15  N   UNL     1       2.548  -0.548  -0.025  0.00  0.00    -0.343 N 
ATOM     16  H   UNL     1       3.523  -1.056  -0.037  0.00  0.00    +0.144 HD
ATOM     17  H   UNL     1       1.620  -1.140  -0.019  0.00  0.00    +0.144 HD
ENDBRANCH  11  15
ENDBRANCH   2  10
TORSDOF 3
