REMARK  Name = ZINC09836636
REMARK  6 active torsions:
REMARK  status: ('A' for Active; 'I' for Inactive)
REMARK    1  A    between atoms: C_3  and  C_6
REMARK    2  A    between atoms: C_6  and  N_7
REMARK    3  A    between atoms: C_8  and  C_10
REMARK    4  A    between atoms: C_11  and  C_12
REMARK    5  A    between atoms: C_15  and  S_18
REMARK    6  A    between atoms: S_18  and  N_21
REMARK                            x       y       z     vdW  Elec       q    Type
REMARK                         _______ _______ _______ _____ _____    ______ ____
ROOT
ATOM      1  C   UNL     1      -2.915   4.279   5.429  0.00  0.00    +0.068 C 
ATOM      2  C   UNL     1      -3.116   3.064   4.882  0.00  0.00    +0.013 C 
ENDROOT
BRANCH   2   3
ATOM      3  C   UNL     1      -2.356   2.660   3.687  0.00  0.00    -0.025 A 
ATOM      4  C   UNL     1      -2.562   1.400   3.116  0.00  0.00    +0.010 A 
ATOM      5  C   UNL     1      -1.846   1.029   1.998  0.00  0.00    +0.029 A 
ATOM      6  C   UNL     1      -0.927   1.900   1.439  0.00  0.00    +0.105 A 
ATOM      7  C   UNL     1      -0.714   3.147   2.002  0.00  0.00    +0.029 A 
ATOM      8  C   UNL     1      -1.425   3.534   3.118  0.00  0.00    +0.010 A 
BRANCH   6   9
ATOM      9  S   UNL     1      -0.017   1.417   0.010  0.00  0.00    +0.056 S 
ATOM     10  O   UNL     1       0.002  -0.004   0.002  0.00  0.00    -0.153 OA
ATOM     11  O   UNL     1       1.172   2.195   0.003  0.00  0.00    -0.153 OA
BRANCH   9  12
ATOM     12  N   UNL     1      -0.897   1.885  -1.312  0.00  0.00    -0.204 NA
ATOM     13  H   UNL     1      -1.201   1.223  -1.952  0.00  0.00    +0.144 HD
ATOM     14  H   UNL     1      -1.110   2.822  -1.446  0.00  0.00    +0.144 HD
ENDBRANCH   9  12
ENDBRANCH   6   9
ENDBRANCH   2   3
BRANCH   1  16
ATOM     15  N   UNL     1      -3.470   5.896   7.165  0.00  0.00    -0.305 N 
ATOM     16  C   UNL     1      -3.671   4.681   6.617  0.00  0.00    +0.237 C 
ATOM     17  O   UNL     1      -4.480   3.917   7.111  0.00  0.00    -0.271 OA
ATOM     18  H   UNL     1      -2.825   6.505   6.771  0.00  0.00    +0.149 HD
BRANCH  15  19
ATOM     19  C   UNL     1      -4.226   6.298   8.354  0.00  0.00    +0.179 C 
BRANCH  19  22
ATOM     20  C   UNL     1      -3.695   9.893   8.968  0.00  0.00    +0.041 A 
ATOM     21  C   UNL     1      -4.386   8.833   8.337  0.00  0.00    +0.046 A 
ATOM     22  C   UNL     1      -3.818   7.690   8.762  0.00  0.00    +0.122 A 
ATOM     23  O   UNL     1      -2.828   8.000   9.616  0.00  0.00    -0.466 OA
ATOM     24  C   UNL     1      -2.745   9.334   9.740  0.00  0.00    +0.195 A 
ENDBRANCH  19  22
ENDBRANCH  15  19
ENDBRANCH   1  16
TORSDOF 6
