REMARK  Name = ZINC37425361
REMARK  6 active torsions:
REMARK  status: ('A' for Active; 'I' for Inactive)
REMARK    1  A    between atoms: C_1  and  C_2
REMARK    2  A    between atoms: C_4  and  C_21
REMARK    3  A    between atoms: C_5  and  S_11
REMARK    4  A    between atoms: C_7  and  C_8
REMARK    5  A    between atoms: S_11  and  N_14
REMARK    6  A    between atoms: N_14  and  C_15
REMARK                            x       y       z     vdW  Elec       q    Type
REMARK                         _______ _______ _______ _____ _____    ______ ____
ROOT
ATOM      1  C   UNL     1      -0.579   1.439   0.097  0.00  0.00    +0.044 C 
ATOM      2  C   UNL     1      -0.267  -0.035   0.044  0.00  0.00    -0.036 A 
ATOM      3  C   UNL     1      -0.366  -0.720  -1.150  0.00  0.00    +0.009 A 
ATOM      4  C   UNL     1      -0.080  -2.072  -1.201  0.00  0.00    -0.023 A 
ATOM      5  C   UNL     1       0.307  -2.748  -0.056  0.00  0.00    +0.114 A 
ATOM      6  C   UNL     1       0.410  -2.077   1.144  0.00  0.00    +0.044 A 
ATOM      7  C   UNL     1       0.128  -0.709   1.201  0.00  0.00    +0.068 A 
ATOM      8  C   UNL     1      -0.191  -2.814  -2.508  0.00  0.00    +0.046 C 
ENDROOT
BRANCH   7   9
ATOM      9  C   UNL     1       0.243   0.018   2.480  0.00  0.00    +0.387 C 
ATOM     10  O   UNL     1       0.923   1.031   2.548  0.00  0.00    -0.241 OA
ATOM     11  O   UNL     1      -0.343  -0.393   3.472  0.00  0.00    -0.241 OA
ENDBRANCH   7   9
BRANCH   5  12
ATOM     12  S   UNL     1       0.668  -4.471  -0.133  0.00  0.00    +0.094 S 
ATOM     13  O   UNL     1       1.550  -4.652  -1.233  0.00  0.00    -0.148 OA
ATOM     14  O   UNL     1       1.004  -4.875   1.187  0.00  0.00    -0.148 OA
BRANCH  12  15
ATOM     15  N   UNL     1      -0.740  -5.250  -0.523  0.00  0.00    -0.070 NA
BRANCH  15  16
ATOM     16  C   UNL     1      -0.756  -6.630  -0.653  0.00  0.00    +0.202 A 
ATOM     17  N   UNL     1       0.240  -7.477  -0.500  0.00  0.00    -0.229 NA
ATOM     18  C   UNL     1       0.060  -8.777  -0.661  0.00  0.00    +0.136 A 
ATOM     19  C   UNL     1      -1.188  -9.191  -0.989  0.00  0.00    +0.076 A 
ATOM     20  S   UNL     1      -2.054  -7.630  -1.038  0.00  0.00    -0.042 S 
ATOM     21 BR   UNL     1      -1.837 -10.939  -1.299  0.00  0.00    -0.041 Br
ENDBRANCH  15  16
ENDBRANCH  12  15
ENDBRANCH   5  12
TORSDOF 4
