REMARK  Name = ZINC66906816
REMARK  4 active torsions:
REMARK  status: ('A' for Active; 'I' for Inactive)
REMARK    1  A    between atoms: C_10  and  C_11
REMARK    2  A    between atoms: C_10  and  O_23
REMARK    3  A    between atoms: C_11  and  N_12
REMARK    4  A    between atoms: N_15  and  C_16
REMARK                            x       y       z     vdW  Elec       q    Type
REMARK                         _______ _______ _______ _____ _____    ______ ____
ROOT
ATOM      1  C   UNL     1       4.676   0.070  -0.969  0.00  0.00    +0.145 C 
ENDROOT
BRANCH   1  11
ATOM      2  C   UNL     1      -0.004   1.397   0.044  0.00  0.00    +0.000 A 
ATOM      3  C   UNL     1       1.187   2.099   0.025  0.00  0.00    +0.000 A 
ATOM      4  C   UNL     1       2.385   1.415   0.011  0.00  0.00    +0.007 A 
ATOM      5  C   UNL     1       2.405   0.026   0.014  0.00  0.00    -0.011 A 
ATOM      6  C   UNL     1       1.219  -0.673   0.029  0.00  0.00    -0.041 A 
ATOM      7  C   UNL     1       0.014   0.018   0.047  0.00  0.00    +0.004 A 
ATOM      8  C   UNL     1       1.165  -2.178   0.017  0.00  0.00    +0.035 C 
ATOM      9  C   UNL     1       2.513  -2.768   0.427  0.00  0.00    +0.008 C 
ATOM     10  C   UNL     1       3.606  -2.115  -0.426  0.00  0.00    +0.041 C 
ATOM     11  C   UNL     1       3.748  -0.656   0.005  0.00  0.00    +0.107 C 
BRANCH  11  12
ATOM     12  O   UNL     1       4.311  -0.606   1.318  0.00  0.00    -0.382 OA
ATOM     13  H   UNL     1       4.446   0.291   1.653  0.00  0.00    +0.211 HD
ENDBRANCH  11  12
ENDBRANCH   1  11
BRANCH   1  14
ATOM     14  N   UNL     1       5.984  -0.591  -0.983  0.00  0.00    -0.296 N 
ATOM     15  C   UNL     1       6.998  -0.063  -1.696  0.00  0.00    +0.304 C 
ATOM     16  O   UNL     1       6.829   0.962  -2.328  0.00  0.00    -0.253 OA
ATOM     17  N   UNL     1       8.201  -0.671  -1.709  0.00  0.00    -0.268 N 
ATOM     18  H   UNL     1       6.119  -1.408  -0.479  0.00  0.00    +0.150 HD
ATOM     19  H   UNL     1       8.315  -1.530  -1.272  0.00  0.00    +0.156 HD
BRANCH  17  20
ATOM     20  C   UNL     1       9.286  -0.063  -2.351  0.00  0.00    +0.053 A 
ATOM     21  C   UNL     1       9.312   1.315  -2.519  0.00  0.00    +0.025 A 
ATOM     22  C   UNL     1      10.384   1.912  -3.153  0.00  0.00    +0.002 A 
ATOM     23  C   UNL     1      11.431   1.139  -3.621  0.00  0.00    +0.002 A 
ATOM     24  C   UNL     1      11.409  -0.233  -3.457  0.00  0.00    +0.022 A 
ATOM     25  C   UNL     1      10.342  -0.836  -2.817  0.00  0.00    +0.062 A 
ATOM     26 CL   UNL     1      10.318  -2.559  -2.604  0.00  0.00    -0.082 Cl
ENDBRANCH  17  20
ENDBRANCH   1  14
TORSDOF 4
