REMARK  Name = ZINC43735978
REMARK  6 active torsions:
REMARK  status: ('A' for Active; 'I' for Inactive)
REMARK    1  A    between atoms: C_1  and  C_2
REMARK    2  A    between atoms: C_13  and  O_31
REMARK    3  A    between atoms: C_17  and  C_30
REMARK    4  A    between atoms: C_22  and  C_29
REMARK    5  A    between atoms: C_23  and  N_25
REMARK    6  A    between atoms: C_26  and  C_28
REMARK                            x       y       z     vdW  Elec       q    Type
REMARK                         _______ _______ _______ _____ _____    ______ ____
ROOT
ATOM      1  C   UNL     1      -0.019   1.526   0.010  0.00  0.00    +0.009 C 
ATOM      2  C   UNL     1       0.002  -0.004   0.002  0.00  0.00    +0.007 C 
ATOM      3  C   UNL     1      -1.438  -0.555   0.067  0.00  0.00    +0.009 C 
ATOM      4  C   UNL     1      -1.306  -1.860   0.904  0.00  0.00    +0.001 C 
ATOM      5  C   UNL     1      -0.725  -2.931  -0.013  0.00  0.00    +0.000 C 
ATOM      6  C   UNL     1      -1.686  -3.282  -1.143  0.00  0.00    +0.031 C 
ATOM      7  C   UNL     1      -2.826  -4.105  -0.624  0.00  0.00    -0.027 C 
ATOM      8  C   UNL     1      -2.742  -4.859   0.428  0.00  0.00    -0.065 C 
ATOM      9  C   UNL     1      -3.946  -5.709   0.801  0.00  0.00    +0.062 C 
ATOM     10  C   UNL     1      -3.490  -7.170   0.853  0.00  0.00    +0.119 C 
ATOM     11  C   UNL     1      -2.310  -7.312   1.814  0.00  0.00    +0.032 C 
ATOM     12  C   UNL     1      -1.127  -6.464   1.357  0.00  0.00    +0.014 C 
ATOM     13  C   UNL     1      -1.513  -4.977   1.288  0.00  0.00    -0.008 C 
ATOM     14  C   UNL     1      -0.342  -4.179   0.763  0.00  0.00    +0.003 C 
ATOM     15  C   UNL     1       0.706  -3.848   1.812  0.00  0.00    +0.005 C 
ATOM     16  C   UNL     1       0.421  -2.620   2.644  0.00  0.00    +0.009 C 
ATOM     17  C   UNL     1      -0.268  -1.466   1.967  0.00  0.00    -0.010 C 
ATOM     18  C   UNL     1       0.725  -0.534   1.254  0.00  0.00    +0.082 C 
ATOM     19  C   UNL     1      -0.986  -0.646   3.053  0.00  0.00    +0.013 C 
ATOM     20  C   UNL     1      -1.888  -4.530   2.699  0.00  0.00    +0.016 C 
ENDROOT
BRANCH  18  21
ATOM     21  N   UNL     1       1.086   0.580   2.137  0.00  0.00    -0.312 N 
ATOM     22  C   UNL     1       2.245   1.240   1.948  0.00  0.00    +0.210 C 
ATOM     23  O   UNL     1       2.990   0.913   1.049  0.00  0.00    -0.276 OA
ATOM     24  C   UNL     1       2.616   2.385   2.855  0.00  0.00    +0.109 C 
ATOM     25  H   UNL     1       0.490   0.841   2.856  0.00  0.00    +0.149 HD
ENDBRANCH  18  21
BRANCH  10  26
ATOM     26  O   UNL     1      -4.572  -7.988   1.305  0.00  0.00    -0.391 OA
ATOM     27  H   UNL     1      -5.355  -7.952   0.738  0.00  0.00    +0.210 HD
ENDBRANCH  10  26
TORSDOF 2
