REMARK  Name = ZINC43756893
REMARK  4 active torsions:
REMARK  status: ('A' for Active; 'I' for Inactive)
REMARK    1  A    between atoms: C_1  and  C_2
REMARK    2  A    between atoms: C_14  and  O_26
REMARK    3  A    between atoms: C_17  and  C_25
REMARK    4  A    between atoms: C_22  and  O_24
REMARK                            x       y       z     vdW  Elec       q    Type
REMARK                         _______ _______ _______ _____ _____    ______ ____
ROOT
ATOM      1  C   UNL     1       0.230   0.886   0.553  0.00  0.00    +0.014 C 
ATOM      2  C   UNL     1       0.211  -0.622   0.298  0.00  0.00    +0.001 C 
ATOM      3  C   UNL     1      -1.236  -1.121   0.276  0.00  0.00    +0.017 C 
ATOM      4  C   UNL     1      -1.919  -0.771   1.601  0.00  0.00    +0.075 C 
ATOM      5  C   UNL     1      -1.090  -1.341   2.732  0.00  0.00    +0.134 C 
ATOM      6  O   UNL     1      -1.595  -2.031   3.584  0.00  0.00    -0.297 OA
ATOM      7  C   UNL     1       0.389  -1.023   2.764  0.00  0.00    +0.078 C 
ATOM      8  C   UNL     1       0.989  -1.339   1.403  0.00  0.00    +0.005 C 
ATOM      9  C   UNL     1       0.944  -2.848   1.160  0.00  0.00    +0.005 C 
ATOM     10  C   UNL     1       1.586  -3.163  -0.194  0.00  0.00    +0.007 C 
ATOM     11  C   UNL     1       0.823  -2.438  -1.303  0.00  0.00    +0.025 C 
ATOM     12  C   UNL     1       0.874  -0.923  -1.050  0.00  0.00    +0.075 C 
ATOM     13  C   UNL     1       0.174  -0.146  -2.159  0.00  0.00    +0.036 C 
ATOM     14  C   UNL     1       0.748  -0.502  -3.541  0.00  0.00    +0.012 C 
ATOM     15  C   UNL     1       0.595  -2.000  -3.721  0.00  0.00    -0.003 C 
ATOM     16  C   UNL     1       1.466  -2.709  -2.651  0.00  0.00    +0.003 C 
ATOM     17  C   UNL     1       1.442  -4.166  -3.123  0.00  0.00    +0.007 C 
ATOM     18  C   UNL     1       1.591  -4.034  -4.664  0.00  0.00    +0.032 C 
ATOM     19  C   UNL     1       1.114  -2.584  -5.031  0.00  0.00    +0.121 C 
ATOM     20  C   UNL     1      -0.868  -2.398  -3.520  0.00  0.00    +0.014 C 
ENDROOT
BRANCH  19  21
ATOM     21  O   UNL     1       2.177  -1.781  -5.546  0.00  0.00    -0.391 OA
ATOM     22  H   UNL     1       2.547  -2.104  -6.378  0.00  0.00    +0.210 HD
ENDBRANCH  19  21
BRANCH  12  23
ATOM     23  O   UNL     1       2.240  -0.507  -0.998  0.00  0.00    -0.388 OA
ATOM     24  H   UNL     1       2.731  -0.665  -1.816  0.00  0.00    +0.210 HD
ENDBRANCH  12  23
TORSDOF 2
