REMARK  Name = ZINC54742889
REMARK  1 active torsions:
REMARK  status: ('A' for Active; 'I' for Inactive)
REMARK    1  A    between atoms: C_11  and  O_13
REMARK                            x       y       z     vdW  Elec       q    Type
REMARK                         _______ _______ _______ _____ _____    ______ ____
ROOT
ATOM      1  C   UNL     1      -0.017   1.377   0.010  0.00  0.00    +0.069 A 
ATOM      2  C   UNL     1       1.179   2.075   0.002  0.00  0.00    +0.164 A 
ATOM      3  C   UNL     1       2.381   1.385  -0.016  0.00  0.00    +0.168 A 
ATOM      4  C   UNL     1       2.397  -0.005  -0.024  0.00  0.00    +0.031 A 
ATOM      5  C   UNL     1       1.207  -0.698  -0.013  0.00  0.00    -0.020 A 
ATOM      6  C   UNL     1       0.002  -0.004   0.002  0.00  0.00    +0.048 A 
ATOM      7 CL   UNL     1      -1.495  -0.883   0.012  0.00  0.00    -0.083 Cl
ATOM      8  C   UNL     1       1.147  -2.204  -0.009  0.00  0.00    +0.037 C 
ATOM      9  C   UNL     1       2.481  -2.795  -0.461  0.00  0.00    +0.008 C 
ATOM     10  C   UNL     1       3.599  -2.155   0.370  0.00  0.00    +0.036 C 
ATOM     11  C   UNL     1       3.737  -0.694  -0.051  0.00  0.00    +0.148 C 
ATOM     12  O   UNL     1       3.556   2.079  -0.026  0.00  0.00    -0.488 OA
ATOM     13  C   UNL     1       3.837   2.812  -1.220  0.00  0.00    +0.232 C 
ATOM     14  C   UNL     1       3.163   4.174  -1.189  0.00  0.00    +0.082 C 
ATOM     15  C   UNL     1       1.646   4.068  -1.187  0.00  0.00    +0.232 C 
ATOM     16  O   UNL     1       1.183   3.439   0.010  0.00  0.00    -0.488 OA
ENDROOT
BRANCH  11  17
ATOM     17  O   UNL     1       4.271  -0.633  -1.374  0.00  0.00    -0.387 OA
ATOM     18  H   UNL     1       5.135  -1.057  -1.470  0.00  0.00    +0.210 HD
ENDBRANCH  11  17
TORSDOF 1
