REMARK  Name = ZINC58479020
REMARK  8 active torsions:
REMARK  status: ('A' for Active; 'I' for Inactive)
REMARK    1  A    between atoms: C_3  and  C_19
REMARK    2  A    between atoms: C_5  and  N_7
REMARK    3  A    between atoms: C_8  and  C_10
REMARK    4  A    between atoms: C_13  and  S_15
REMARK    5  A    between atoms: S_15  and  N_18
REMARK    6  A    between atoms: C_19  and  O_20
REMARK    7  A    between atoms: O_20  and  C_21
REMARK    8  A    between atoms: C_21  and  C_22
REMARK                            x       y       z     vdW  Elec       q    Type
REMARK                         _______ _______ _______ _____ _____    ______ ____
ROOT
ATOM      1  N   UNL     1       1.238  -2.079  -0.022  0.00  0.00    -0.279 N 
ATOM      2  C   UNL     1       2.311  -2.738   0.457  0.00  0.00    +0.284 C 
ATOM      3  O   UNL     1       3.221  -2.122   0.979  0.00  0.00    -0.266 OA
ATOM      4  H   UNL     1       0.479  -2.574  -0.368  0.00  0.00    +0.155 HD
ENDROOT
BRANCH   1   9
ATOM      5  C   UNL     1       0.004   1.379   0.173  0.00  0.00    +0.002 A 
ATOM      6  C   UNL     1       1.178   2.086  -0.014  0.00  0.00    +0.006 A 
ATOM      7  C   UNL     1       2.371   1.414  -0.203  0.00  0.00    -0.020 A 
ATOM      8  C   UNL     1       2.394   0.033  -0.206  0.00  0.00    +0.029 A 
ATOM      9  C   UNL     1       1.218  -0.681  -0.019  0.00  0.00    +0.034 A 
ATOM     10  C   UNL     1       0.021  -0.002   0.171  0.00  0.00    +0.023 A 
BRANCH   7  11
ATOM     11  C   UNL     1       3.647   2.189  -0.406  0.00  0.00    +0.195 C 
BRANCH  11  12
ATOM     12  O   UNL     1       4.263   2.434   0.860  0.00  0.00    -0.368 OA
BRANCH  12  13
ATOM     13  C   UNL     1       5.487   3.167   0.779  0.00  0.00    +0.234 C 
BRANCH  13  14
ATOM     14  C   UNL     1       6.045   3.367   2.164  0.00  0.00    +0.130 A 
ATOM     15  C   UNL     1       6.894   2.539   2.798  0.00  0.00    +0.047 A 
ATOM     16  C   UNL     1       7.154   3.110   4.065  0.00  0.00    +0.041 A 
ATOM     17  C   UNL     1       6.448   4.253   4.130  0.00  0.00    +0.195 A 
ATOM     18  O   UNL     1       5.782   4.407   2.974  0.00  0.00    -0.465 OA
ENDBRANCH  13  14
ENDBRANCH  12  13
ENDBRANCH  11  12
ENDBRANCH   7  11
ENDBRANCH   1   9
BRANCH   2  19
ATOM     19  C   UNL     1       2.383  -4.199   0.348  0.00  0.00    +0.192 A 
ATOM     20  C   UNL     1       3.405  -4.987   0.794  0.00  0.00    +0.057 A 
ATOM     21  C   UNL     1       3.057  -6.312   0.485  0.00  0.00    +0.072 A 
ATOM     22  C   UNL     1       1.853  -6.274  -0.128  0.00  0.00    +0.258 A 
ATOM     23  O   UNL     1       1.448  -4.999  -0.204  0.00  0.00    -0.432 OA
BRANCH  22  24
ATOM     24  S   UNL     1       0.961  -7.671  -0.724  0.00  0.00    +0.089 S 
ATOM     25  O   UNL     1       0.093  -7.195  -1.743  0.00  0.00    -0.150 OA
ATOM     26  O   UNL     1       1.918  -8.695  -0.956  0.00  0.00    -0.150 OA
BRANCH  24  27
ATOM     27  N   UNL     1      -0.006  -8.199   0.513  0.00  0.00    -0.201 NA
ATOM     28  H   UNL     1       0.004  -7.739   1.367  0.00  0.00    +0.144 HD
ATOM     29  H   UNL     1      -0.583  -8.968   0.384  0.00  0.00    +0.144 HD
ENDBRANCH  24  27
ENDBRANCH  22  24
ENDBRANCH   2  19
TORSDOF 8
