REMARK  Name = ZINC52569965
REMARK  7 active torsions:
REMARK  status: ('A' for Active; 'I' for Inactive)
REMARK    1  A    between atoms: C_1  and  C_2
REMARK    2  A    between atoms: C_2  and  C_4
REMARK    3  A    between atoms: C_2  and  C_20
REMARK    4  A    between atoms: C_4  and  N_5
REMARK    5  A    between atoms: C_8  and  C_11
REMARK    6  A    between atoms: C_28  and  O_29
REMARK    7  A    between atoms: O_29  and  C_30
REMARK                            x       y       z     vdW  Elec       q    Type
REMARK                         _______ _______ _______ _____ _____    ______ ____
ROOT
ATOM      1  N   UNL     1       0.056  -0.124   2.487  0.00  0.00    +0.383 N 
ATOM      2  C   UNL     1       0.711  -0.744   3.650  0.00  0.00    -0.074 C 
ATOM      3  C   UNL     1       0.119  -0.138   4.925  0.00  0.00    +0.016 C 
ATOM      4  C   UNL     1      -1.383  -0.189   4.856  0.00  0.00    -0.049 C 
ATOM      5  C   UNL     1      -2.033  -0.399   3.713  0.00  0.00    -0.042 C 
ATOM      6  C   UNL     1      -1.327  -0.606   2.403  0.00  0.00    -0.051 C 
ATOM      7  H   UNL     1       0.059   0.879   2.591  0.00  0.00    -0.081 HD
ENDROOT
BRANCH   4   8
ATOM      8  C   UNL     1      -2.126  -0.009   6.041  0.00  0.00    -0.017 C 
ATOM      9  C   UNL     1      -1.636   0.328   7.296  0.00  0.00    +0.003 A 
ATOM     10  C   UNL     1      -0.331   0.585   7.775  0.00  0.00    +0.010 A 
ATOM     11  C   UNL     1      -0.143   0.899   9.080  0.00  0.00    +0.001 A 
ATOM     12  C   UNL     1      -1.214   0.976   9.977  0.00  0.00    +0.002 A 
ATOM     13  C   UNL     1      -2.490   0.743   9.590  0.00  0.00    +0.026 A 
ATOM     14  C   UNL     1      -2.768   0.408   8.237  0.00  0.00    +0.043 A 
ATOM     15  N   UNL     1      -3.899   0.140   7.621  0.00  0.00    -0.380 N 
ATOM     16  C   UNL     1      -3.624  -0.138   6.208  0.00  0.00    +0.149 C 
ATOM     17  H   UNL     1      -4.776   0.132   8.035  0.00  0.00    +0.160 HD
ENDBRANCH   4   8
BRANCH   1  18
ATOM     18  C   UNL     1       0.779  -0.492   1.262  0.00  0.00    -0.070 C 
BRANCH  18  20
ATOM     19  C   UNL     1       0.385   1.749   0.230  0.00  0.00    +0.010 C 
ATOM     20  C   UNL     1       0.167   0.243   0.068  0.00  0.00    +0.003 C 
BRANCH  20  21
ATOM     21  C   UNL     1       0.827  -0.226  -1.203  0.00  0.00    -0.001 A 
ATOM     22  C   UNL     1       2.128  -0.146  -1.511  0.00  0.00    +0.200 A 
ATOM     23  O   UNL     1       2.348  -0.667  -2.731  0.00  0.00    -0.459 OA
ATOM     24  C   UNL     1       1.198  -1.113  -3.277  0.00  0.00    +0.176 A 
ATOM     25  C   UNL     1       0.174  -0.869  -2.350  0.00  0.00    +0.027 A 
ATOM     26  C   UNL     1      -1.140  -1.235  -2.644  0.00  0.00    +0.012 A 
ATOM     27  C   UNL     1      -1.427  -1.840  -3.848  0.00  0.00    +0.004 A 
ATOM     28  C   UNL     1      -0.417  -2.086  -4.766  0.00  0.00    +0.049 A 
ATOM     29  C   UNL     1       0.888  -1.722  -4.492  0.00  0.00    +0.163 A 
BRANCH  29  30
ATOM     30  O   UNL     1       1.870  -1.970  -5.399  0.00  0.00    -0.491 OA
ATOM     31  C   UNL     1       1.479  -2.596  -6.622  0.00  0.00    +0.277 C 
ENDBRANCH  29  30
ENDBRANCH  20  21
ENDBRANCH  18  20
ENDBRANCH   1  18
TORSDOF 5
