REMARK  Name = ZINC51927103
REMARK  5 active torsions:
REMARK  status: ('A' for Active; 'I' for Inactive)
REMARK    1  A    between atoms: C_1  and  C_2
REMARK    2  A    between atoms: C_3  and  C_21
REMARK    3  A    between atoms: N_4  and  C_7
REMARK    4  A    between atoms: C_16  and  C_17
REMARK    5  A    between atoms: N_18  and  O_19
REMARK                            x       y       z     vdW  Elec       q    Type
REMARK                         _______ _______ _______ _____ _____    ______ ____
ROOT
ATOM      1  C   UNL     1       0.039  -3.230  -1.446  0.00  0.00    +0.069 A 
ATOM      2  C   UNL     1       1.255  -3.816  -1.863  0.00  0.00    +0.025 A 
ATOM      3  C   UNL     1       2.492  -3.267  -1.493  0.00  0.00    +0.012 A 
ATOM      4  C   UNL     1       3.645  -3.859  -1.913  0.00  0.00    +0.001 A 
ATOM      5  C   UNL     1       3.611  -5.003  -2.707  0.00  0.00    +0.002 A 
ATOM      6  C   UNL     1       2.427  -5.561  -3.084  0.00  0.00    +0.028 A 
ATOM      7  C   UNL     1       1.217  -4.979  -2.670  0.00  0.00    +0.073 A 
ATOM      8  N   UNL     1       0.042  -5.512  -3.028  0.00  0.00    -0.254 NA
ATOM      9  C   UNL     1      -1.098  -4.988  -2.654  0.00  0.00    +0.125 A 
ATOM     10  C   UNL     1      -1.151  -3.839  -1.851  0.00  0.00    +0.060 A 
ENDROOT
BRANCH   1  14
ATOM     11  C   UNL     1      -0.018   1.503   0.010  0.00  0.00    +0.067 C 
ATOM     12  C   UNL     1       0.002  -0.004   0.002  0.00  0.00    +0.059 A 
ATOM     13  C   UNL     1       0.008  -0.787  -1.093  0.00  0.00    +0.043 A 
ATOM     14  N   UNL     1       0.028  -2.086  -0.652  0.00  0.00    -0.301 N 
ATOM     15  C   UNL     1       0.034  -2.045   0.708  0.00  0.00    +0.204 A 
ATOM     16  N   UNL     1       0.024  -0.796   1.085  0.00  0.00    -0.240 NA
ATOM     17  C   UNL     1      -0.006  -0.325  -2.527  0.00  0.00    +0.066 C 
ENDBRANCH   1  14
BRANCH  10  18
ATOM     18  C   UNL     1      -2.454  -3.275  -1.440  0.00  0.00    +0.166 C 
ATOM     19  N   UNL     1      -2.497  -2.207  -0.698  0.00  0.00    -0.071 NA
ATOM     20  N   UNL     1      -3.630  -3.884  -1.845  0.00  0.00    -0.340 N 
ATOM     21  H   UNL     1      -3.599  -4.681  -2.398  0.00  0.00    +0.144 HD
ATOM     22  H   UNL     1      -4.486  -3.514  -1.576  0.00  0.00    +0.144 HD
BRANCH  19  23
ATOM     23  O   UNL     1      -3.745  -1.667  -0.305  0.00  0.00    -0.408 OA
ATOM     24  H   UNL     1      -3.676  -0.874   0.244  0.00  0.00    +0.328 HD
ENDBRANCH  19  23
ENDBRANCH  10  18
TORSDOF 3
