REMARK  Name = ZINC09075354
REMARK  5 active torsions:
REMARK  status: ('A' for Active; 'I' for Inactive)
REMARK    1  A    between atoms: C_4  and  C_7
REMARK    2  A    between atoms: N_8  and  N_9
REMARK    3  A    between atoms: C_14  and  C_17
REMARK    4  A    between atoms: C_17  and  C_18
REMARK    5  A    between atoms: N_20  and  C_21
REMARK                            x       y       z     vdW  Elec       q    Type
REMARK                         _______ _______ _______ _____ _____    ______ ____
ROOT
ATOM      1  N   UNL     1      -3.023   8.243  -2.639  0.00  0.00    -0.127 NA
ATOM      2  C   UNL     1      -2.928   7.439  -1.601  0.00  0.00    +0.183 C 
ATOM      3  N   UNL     1      -3.827   7.270  -0.570  0.00  0.00    -0.263 N 
ATOM      4  C   UNL     1      -3.614   6.424   0.423  0.00  0.00    +0.233 C 
ATOM      5  O   UNL     1      -4.408   6.279   1.328  0.00  0.00    -0.274 OA
ATOM      6  C   UNL     1      -2.311   5.644   0.360  0.00  0.00    +0.149 C 
ATOM      7  S   UNL     1      -1.602   6.311  -1.197  0.00  0.00    -0.075 S 
ATOM      8  H   UNL     1      -4.645   7.790  -0.574  0.00  0.00    +0.157 HD
ENDROOT
BRANCH   1  10
ATOM      9  C   UNL     1      -2.174   9.074  -4.548  0.00  0.00    +0.143 C 
ATOM     10  N   UNL     1      -2.079   8.276  -3.519  0.00  0.00    -0.155 NA
BRANCH   9  14
ATOM     11  C   UNL     1       0.929   9.183  -7.438  0.00  0.00    +0.000 A 
ATOM     12  C   UNL     1      -0.182   9.994  -7.590  0.00  0.00    +0.001 A 
ATOM     13  C   UNL     1      -1.195   9.964  -6.655  0.00  0.00    +0.009 A 
ATOM     14  C   UNL     1      -1.097   9.111  -5.551  0.00  0.00    -0.005 A 
ATOM     15  C   UNL     1       0.031   8.299  -5.401  0.00  0.00    +0.009 A 
ATOM     16  C   UNL     1       1.033   8.336  -6.348  0.00  0.00    +0.001 A 
ENDBRANCH   9  14
ENDBRANCH   1  10
BRANCH   6  17
ATOM     17  C   UNL     1      -2.569   4.140   0.252  0.00  0.00    +0.120 C 
BRANCH  17  18
ATOM     18  C   UNL     1      -1.256   3.412   0.128  0.00  0.00    +0.219 C 
ATOM     19  O   UNL     1      -0.215   4.035   0.127  0.00  0.00    -0.275 OA
ATOM     20  N   UNL     1      -1.237   2.069   0.019  0.00  0.00    -0.285 N 
ATOM     21  H   UNL     1      -2.070   1.577  -0.057  0.00  0.00    +0.155 HD
BRANCH  20  22
ATOM     22  C   UNL     1      -0.017   1.384   0.015  0.00  0.00    +0.034 A 
ATOM     23  C   UNL     1       0.127   0.222  -0.732  0.00  0.00    +0.023 A 
ATOM     24  C   UNL     1       1.330  -0.455  -0.730  0.00  0.00    +0.003 A 
ATOM     25  C   UNL     1       2.392   0.022   0.016  0.00  0.00    +0.015 A 
ATOM     26  C   UNL     1       2.253   1.179   0.762  0.00  0.00    +0.020 A 
ATOM     27  C   UNL     1       1.051   1.861   0.763  0.00  0.00    +0.038 A 
ATOM     28 BR   UNL     1       3.708   1.827   1.781  0.00  0.00    -0.050 Br
ENDBRANCH  20  22
ENDBRANCH  17  18
ENDBRANCH   6  17
TORSDOF 5
