REMARK  Name = ZINC02396009
REMARK  9 active torsions:
REMARK  status: ('A' for Active; 'I' for Inactive)
REMARK    1  A    between atoms: C_1  and  C_2
REMARK    2  A    between atoms: C_7  and  C_13
REMARK    3  A    between atoms: N_14  and  N_15
REMARK    4  A    between atoms: C_16  and  C_18
REMARK    5  A    between atoms: C_18  and  C_20
REMARK    6  A    between atoms: C_18  and  N_44
REMARK    7  A    between atoms: C_20  and  C_21
REMARK    8  A    between atoms: C_21  and  C_22
REMARK    9  A    between atoms: C_21  and  C_23
REMARK                            x       y       z     vdW  Elec       q    Type
REMARK                         _______ _______ _______ _____ _____    ______ ____
ROOT
ATOM      1  C   UNL     1      -3.600   4.240   6.934  0.00  0.00    +0.141 C 
ATOM      2  N   UNL     1      -2.693   4.346   7.857  0.00  0.00    -0.188 NA
ENDROOT
BRANCH   1   9
ATOM      3  C   UNL     1      -2.376   2.846  -0.749  0.00  0.00    +0.044 C 
ATOM      4  C   UNL     1      -2.842   3.116   0.658  0.00  0.00    -0.048 A 
ATOM      5  C   UNL     1      -4.206   3.244   0.915  0.00  0.00    +0.004 A 
ATOM      6  C   UNL     1      -4.659   3.482   2.177  0.00  0.00    +0.010 A 
ATOM      7  C   UNL     1      -3.739   3.611   3.232  0.00  0.00    +0.001 A 
ATOM      8  C   UNL     1      -4.170   3.862   4.546  0.00  0.00    +0.022 A 
ATOM      9  C   UNL     1      -3.204   3.977   5.539  0.00  0.00    +0.032 A 
ATOM     10  C   UNL     1      -1.843   3.841   5.200  0.00  0.00    +0.139 A 
ATOM     11  N   UNL     1      -1.466   3.607   3.968  0.00  0.00    -0.235 NA
ATOM     12  C   UNL     1      -2.351   3.486   2.972  0.00  0.00    +0.073 A 
ATOM     13  C   UNL     1      -1.925   3.235   1.657  0.00  0.00    +0.031 A 
ATOM     14 CL   UNL     1      -0.640   3.985   6.443  0.00  0.00    -0.061 Cl
ENDBRANCH   1   9
BRANCH   2  15
ATOM     15  N   UNL     1      -3.069   4.595   9.183  0.00  0.00    -0.208 N 
ATOM     16  C   UNL     1      -2.127   4.705  10.141  0.00  0.00    +0.218 C 
ATOM     17  O   UNL     1      -0.954   4.588   9.855  0.00  0.00    -0.276 OA
ATOM     18  H   UNL     1      -4.007   4.689   9.412  0.00  0.00    +0.177 HD
BRANCH  16  19
ATOM     19  C   UNL     1      -2.531   4.974  11.568  0.00  0.00    +0.015 C 
BRANCH  19  22
ATOM     20  H   UNL     1      -1.656   5.801  13.238  0.00  0.00    -0.089 HD
ATOM     21  H   UNL     1      -0.627   4.850  12.341  0.00  0.00    -0.089 HD
ATOM     22  N   UNL     1      -1.379   5.536  12.294  0.00  0.00    +0.386 N 
ATOM     23  H   UNL     1      -1.041   6.369  11.797  0.00  0.00    -0.089 HD
ENDBRANCH  19  22
BRANCH  19  24
ATOM     24  C   UNL     1      -2.990   3.669  12.222  0.00  0.00    -0.004 C 
BRANCH  24  25
ATOM     25  C   UNL     1      -3.528   3.963  13.624  0.00  0.00    -0.018 C 
ATOM     26  C   UNL     1      -4.797   4.811  13.516  0.00  0.00    +0.007 C 
ATOM     27  C   UNL     1      -3.854   2.646  14.332  0.00  0.00    +0.007 C 
ENDBRANCH  24  25
ENDBRANCH  19  24
ENDBRANCH  16  19
ENDBRANCH   2  15
TORSDOF 6
