REMARK  Name = ZINC58001512
REMARK  8 active torsions:
REMARK  status: ('A' for Active; 'I' for Inactive)
REMARK    1  A    between atoms: C_1  and  O_2
REMARK    2  A    between atoms: O_2  and  C_3
REMARK    3  A    between atoms: C_5  and  C_11
REMARK    4  A    between atoms: C_7  and  N_10
REMARK    5  A    between atoms: C_8  and  O_9
REMARK    6  A    between atoms: C_11  and  C_12
REMARK    7  A    between atoms: C_12  and  C_13
REMARK    8  A    between atoms: C_13  and  N_14
REMARK                            x       y       z     vdW  Elec       q    Type
REMARK                         _______ _______ _______ _____ _____    ______ ____
ROOT
ATOM      1  C   UNL     1       0.626  -0.619   1.042  0.00  0.00    +0.163 A 
ATOM      2  C   UNL     1       1.202   0.138   2.052  0.00  0.00    +0.053 A 
ATOM      3  C   UNL     1       1.837  -0.484   3.110  0.00  0.00    -0.042 A 
ATOM      4  C   UNL     1       1.901  -1.864   3.168  0.00  0.00    +0.030 A 
ATOM      5  C   UNL     1       1.327  -2.630   2.162  0.00  0.00    +0.071 A 
ATOM      6  C   UNL     1       0.682  -2.006   1.098  0.00  0.00    +0.180 A 
ENDROOT
BRANCH   5   7
ATOM      7  N   UNL     1       1.392  -4.027   2.220  0.00  0.00    -0.355 N 
ATOM      8  H   UNL     1       1.838  -4.461   2.964  0.00  0.00    +0.142 HD
ATOM      9  H   UNL     1       0.990  -4.561   1.517  0.00  0.00    +0.142 HD
ENDBRANCH   5   7
BRANCH   1  11
ATOM     10  C   UNL     1      -0.017   1.425   0.010  0.00  0.00    +0.277 C 
ATOM     11  O   UNL     1       0.002  -0.004   0.002  0.00  0.00    -0.491 OA
ENDBRANCH   1  11
BRANCH   6  12
ATOM     12  O   UNL     1       0.114  -2.752   0.112  0.00  0.00    -0.502 OA
ATOM     13  H   UNL     1       0.710  -2.955  -0.622  0.00  0.00    +0.292 HD
ENDBRANCH   6  12
BRANCH   3  14
ATOM     14  C   UNL     1       2.462   0.343   4.203  0.00  0.00    +0.036 C 
BRANCH  14  15
ATOM     15  C   UNL     1       1.431   0.597   5.304  0.00  0.00    +0.020 C 
BRANCH  15  16
ATOM     16  C   UNL     1       2.065   1.437   6.414  0.00  0.00    +0.084 C 
BRANCH  16  17
ATOM     17  N   UNL     1       1.075   1.681   7.471  0.00  0.00    -0.306 NA
ATOM     18  C   UNL     1       0.711   0.429   8.151  0.00  0.00    +0.065 C 
ATOM     19  C   UNL     1      -0.364   0.717   9.201  0.00  0.00    -0.067 C 
ATOM     20  N   UNL     1       0.149   1.691  10.173  0.00  0.00    +0.381 N 
ATOM     21  C   UNL     1       0.485   2.944   9.483  0.00  0.00    -0.067 C 
ATOM     22  C   UNL     1       1.567   2.675   8.435  0.00  0.00    +0.065 C 
ATOM     23  H   UNL     1      -0.555   1.871  10.873  0.00  0.00    -0.086 HD
ATOM     24  H   UNL     1       0.976   1.320  10.617  0.00  0.00    -0.086 HD
ENDBRANCH  16  17
ENDBRANCH  15  16
ENDBRANCH  14  15
ENDBRANCH   3  14
TORSDOF 7
