REMARK  Name = ZINC42425812
REMARK  6 active torsions:
REMARK  status: ('A' for Active; 'I' for Inactive)
REMARK    1  A    between atoms: C_1  and  N_2
REMARK    2  A    between atoms: C_3  and  C_5
REMARK    3  A    between atoms: N_14  and  C_15
REMARK    4  A    between atoms: N_14  and  C_19
REMARK    5  A    between atoms: C_15  and  C_16
REMARK    6  A    between atoms: C_19  and  C_20
REMARK                            x       y       z     vdW  Elec       q    Type
REMARK                         _______ _______ _______ _____ _____    ______ ____
ROOT
ATOM      1  C   UNL     1      -1.157  -1.784   0.756  0.00  0.00    +0.163 C 
ATOM      2  C   UNL     1      -0.113  -2.640   0.032  0.00  0.00    +0.032 C 
ATOM      3  C   UNL     1      -0.079  -4.035   0.659  0.00  0.00    +0.004 C 
ATOM      4  C   UNL     1      -1.447  -4.702   0.497  0.00  0.00    +0.019 C 
ATOM      5  C   UNL     1      -2.506  -3.869   1.227  0.00  0.00    +0.110 C 
ATOM      6  N   UNL     1      -2.447  -2.486   0.733  0.00  0.00    -0.274 N 
ATOM      7  C   UNL     1      -3.553  -1.875   0.266  0.00  0.00    +0.306 C 
ATOM      8  O   UNL     1      -3.452  -0.884  -0.431  0.00  0.00    -0.252 OA
ATOM      9  N   UNL     1      -4.772  -2.364   0.569  0.00  0.00    -0.274 N 
ENDROOT
BRANCH   1  12
ATOM     10  C   UNL     1      -1.384   1.980   0.092  0.00  0.00    +0.128 C 
ATOM     11  N   UNL     1      -1.252   0.688   0.771  0.00  0.00    -0.317 N 
ATOM     12  C   UNL     1      -1.292  -0.455   0.058  0.00  0.00    +0.233 C 
ATOM     13  O   UNL     1      -1.438  -0.414  -1.145  0.00  0.00    -0.274 OA
ATOM     14  H   UNL     1      -1.135   0.656   1.733  0.00  0.00    +0.148 HD
ENDBRANCH   1  12
BRANCH   9  15
ATOM     15  C   UNL     1      -5.889  -1.447   0.813  0.00  0.00    +0.113 C 
BRANCH  15  16
ATOM     16  C   UNL     1      -6.613  -1.164  -0.505  0.00  0.00    +0.006 C 
ATOM     17  C   UNL     1      -6.599   0.275  -1.024  0.00  0.00    +0.005 C 
ATOM     18  C   UNL     1      -7.885  -0.317  -0.444  0.00  0.00    +0.005 C 
ENDBRANCH  15  16
ENDBRANCH   9  15
BRANCH   9  19
ATOM     19  C   UNL     1      -4.980  -3.811   0.656  0.00  0.00    +0.234 C 
BRANCH  19  20
ATOM     20  C   UNL     1      -4.712  -4.274   2.065  0.00  0.00    +0.373 C 
ATOM     21  O   UNL     1      -4.378  -3.469   2.918  0.00  0.00    -0.245 OA
ATOM     22  O   UNL     1      -4.829  -5.453   2.353  0.00  0.00    -0.245 OA
ENDBRANCH  19  20
ENDBRANCH   9  19
TORSDOF 5
