REMARK  Name = ZINC40701485
REMARK  5 active torsions:
REMARK  status: ('A' for Active; 'I' for Inactive)
REMARK    1  A    between atoms: C_1  and  C_2
REMARK    2  A    between atoms: C_3  and  N_9
REMARK    3  A    between atoms: C_11  and  N_18
REMARK    4  A    between atoms: C_12  and  N_16
REMARK    5  A    between atoms: N_16  and  C_17
REMARK                            x       y       z     vdW  Elec       q    Type
REMARK                         _______ _______ _______ _____ _____    ______ ____
ROOT
ATOM      1  N   UNL     1      -0.010   0.010  -2.412  0.00  0.00    -0.298 N 
ATOM      2  C   UNL     1       0.099  -0.676  -3.617  0.00  0.00    +0.149 A 
ATOM      3  C   UNL     1       0.195   0.021  -4.823  0.00  0.00    +0.105 A 
ATOM      4  C   UNL     1       0.302  -0.716  -6.003  0.00  0.00    +0.144 A 
ATOM      5  N   UNL     1       0.308  -2.045  -5.935  0.00  0.00    -0.219 NA
ATOM      6  C   UNL     1       0.215  -2.664  -4.775  0.00  0.00    +0.225 A 
ATOM      7  N   UNL     1       0.118  -2.006  -3.638  0.00  0.00    -0.219 NA
ATOM      8  H   UNL     1      -0.107   0.975  -2.410  0.00  0.00    +0.154 HD
ENDROOT
BRANCH   1  11
ATOM      9  C   UNL     1      -1.259   1.189  -0.143  0.00  0.00    +0.047 C 
ATOM     10  C   UNL     1      -0.577  -0.153  -0.071  0.00  0.00    -0.011 A 
ATOM     11  C   UNL     1       0.021  -0.692  -1.204  0.00  0.00    +0.037 A 
ATOM     12  C   UNL     1       0.648  -1.929  -1.133  0.00  0.00    +0.023 A 
ATOM     13  C   UNL     1       0.676  -2.620   0.062  0.00  0.00    +0.003 A 
ATOM     14  C   UNL     1       0.081  -2.083   1.188  0.00  0.00    +0.020 A 
ATOM     15  C   UNL     1      -0.540  -0.847   1.123  0.00  0.00    +0.046 A 
ATOM     16 CL   UNL     1      -1.280  -0.173   2.541  0.00  0.00    -0.083 Cl
ENDBRANCH   1  11
BRANCH   4  17
ATOM     17  N   UNL     1       0.400  -0.072  -7.231  0.00  0.00    -0.331 N 
ATOM     18  C   UNL     1       0.511  -0.857  -8.463  0.00  0.00    +0.127 C 
ATOM     19  H   UNL     1       0.394   0.897  -7.272  0.00  0.00    +0.147 HD
ENDBRANCH   4  17
BRANCH   3  20
ATOM     20  N   UNL     1       0.183   1.425  -4.848  0.00  0.00    -0.353 N 
ATOM     21  H   UNL     1       0.108   1.924  -4.019  0.00  0.00    +0.143 HD
ATOM     22  H   UNL     1       0.251   1.896  -5.693  0.00  0.00    +0.143 HD
ENDBRANCH   3  20
TORSDOF 3
