REMARK  Name = ZINC12346797
REMARK  3 active torsions:
REMARK  status: ('A' for Active; 'I' for Inactive)
REMARK    1  A    between atoms: C_3  and  C_6
REMARK    2  A    between atoms: N_11  and  C_14
REMARK    3  A    between atoms: C_14  and  C_15
REMARK                            x       y       z     vdW  Elec       q    Type
REMARK                         _______ _______ _______ _____ _____    ______ ____
ROOT
ATOM      1  C   UNL     1      -0.747   2.974   6.556  0.00  0.00    +0.148 C 
ATOM      2  C   UNL     1      -1.220   3.400   5.181  0.00  0.00    +0.058 C 
ATOM      3  C   UNL     1      -1.189   4.716   4.886  0.00  0.00    +0.039 C 
ATOM      4  C   UNL     1      -1.708   4.848   3.472  0.00  0.00    +0.159 C 
ATOM      5  N   UNL     1      -2.015   3.472   3.052  0.00  0.00    -0.290 N 
ATOM      6  C   UNL     1      -1.719   2.664   4.086  0.00  0.00    +0.247 C 
ATOM      7  O   UNL     1      -1.859   1.455   4.077  0.00  0.00    -0.270 OA
ATOM      8  N   UNL     1      -0.746   5.634   5.795  0.00  0.00    -0.271 N 
ATOM      9  C   UNL     1      -0.318   5.314   7.023  0.00  0.00    +0.304 C 
ATOM     10  O   UNL     1       0.059   6.201   7.764  0.00  0.00    -0.252 OA
ATOM     11  N   UNL     1      -0.289   4.040   7.463  0.00  0.00    -0.288 N 
ATOM     12  H   UNL     1      -0.743   6.569   5.537  0.00  0.00    +0.156 HD
ATOM     13  H   UNL     1       0.026   3.831   8.356  0.00  0.00    +0.151 HD
ENDROOT
BRANCH   1  16
ATOM     14  C   UNL     1       1.545  -0.053   6.243  0.00  0.00    +0.008 A 
ATOM     15  C   UNL     1       0.370   0.646   6.450  0.00  0.00    +0.013 A 
ATOM     16  C   UNL     1       0.388   1.999   6.375  0.00  0.00    +0.015 A 
ATOM     17  S   UNL     1       2.106   2.326   6.016  0.00  0.00    -0.099 S 
ATOM     18  C   UNL     1       2.682   0.637   5.982  0.00  0.00    +0.045 A 
ENDBRANCH   1  16
BRANCH   5  19
ATOM     19  C   UNL     1      -2.550   3.059   1.752  0.00  0.00    +0.140 C 
BRANCH  19  20
ATOM     20  C   UNL     1      -1.394   2.771   0.793  0.00  0.00    +0.136 C 
ATOM     21  C   UNL     1      -1.928   2.453  -0.626  0.00  0.00    +0.035 C 
ATOM     22  C   UNL     1      -0.778   1.606  -1.224  0.00  0.00    +0.031 C 
ATOM     23  C   UNL     1      -0.013   1.086   0.008  0.00  0.00    +0.160 C 
ATOM     24  O   UNL     1      -0.705   1.559   1.176  0.00  0.00    -0.375 OA
ENDBRANCH  19  20
ENDBRANCH   5  19
TORSDOF 3
