REMARK  Name = ZINC36732458
REMARK  3 active torsions:
REMARK  status: ('A' for Active; 'I' for Inactive)
REMARK    1  A    between atoms: C_3  and  O_9
REMARK    2  A    between atoms: O_9  and  C_10
REMARK    3  A    between atoms: C_10  and  C_11
REMARK                            x       y       z     vdW  Elec       q    Type
REMARK                         _______ _______ _______ _____ _____    ______ ____
ROOT
ATOM      1  O   UNL     1       3.548   2.106  -0.021  0.00  0.00    -0.485 OA
ENDROOT
BRANCH   1   4
ATOM      2  C   UNL     1      -0.017   1.379   0.010  0.00  0.00    +0.023 A 
ATOM      3  C   UNL     1       1.170   2.087   0.002  0.00  0.00    +0.048 A 
ATOM      4  C   UNL     1       2.380   1.411  -0.013  0.00  0.00    +0.135 A 
ATOM      5  C   UNL     1       2.397   0.023  -0.021  0.00  0.00    +0.061 A 
ATOM      6  C   UNL     1       1.209  -0.681  -0.013  0.00  0.00    +0.039 A 
ATOM      7  C   UNL     1       0.002  -0.004   0.002  0.00  0.00    +0.042 A 
ATOM      8 CL   UNL     1      -1.490  -0.891   0.011  0.00  0.00    -0.084 Cl
ATOM      9 BR   UNL     1       4.046  -0.903  -0.042  0.00  0.00    -0.046 Br
ENDBRANCH   1   4
BRANCH   1  10
ATOM     10  C   UNL     1       3.455   3.532  -0.013  0.00  0.00    +0.285 C 
BRANCH  10  11
ATOM     11  C   UNL     1       4.840   4.127  -0.023  0.00  0.00    +0.088 A 
ATOM     12  C   UNL     1       5.945   3.344  -0.043  0.00  0.00    +0.075 A 
ATOM     13  S   UNL     1       7.231   4.583  -0.047  0.00  0.00    -0.061 S 
ATOM     14  C   UNL     1       6.242   5.945  -0.024  0.00  0.00    +0.156 A 
ATOM     15  N   UNL     1       5.029   5.434  -0.019  0.00  0.00    -0.227 NA
ATOM     16  N   UNL     1       6.615   7.280  -0.016  0.00  0.00    -0.338 N 
ATOM     17  H   UNL     1       7.554   7.521  -0.025  0.00  0.00    +0.144 HD
ATOM     18  H   UNL     1       5.936   7.973  -0.002  0.00  0.00    +0.144 HD
ENDBRANCH  10  11
ENDBRANCH   1  10
TORSDOF 3
