REMARK  Name = ZINC37581040
REMARK  10 active torsions:
REMARK  status: ('A' for Active; 'I' for Inactive)
REMARK    1  A    between atoms: C_1  and  C_2
REMARK    2  A    between atoms: C_2  and  C_3
REMARK    3  A    between atoms: C_3  and  C_4
REMARK    4  A    between atoms: C_4  and  C_6
REMARK    5  A    between atoms: C_4  and  N_7
REMARK    6  A    between atoms: N_7  and  S_8
REMARK    7  A    between atoms: S_8  and  C_11
REMARK    8  A    between atoms: C_14  and  C_18
REMARK    9  A    between atoms: C_19  and  C_20
REMARK   10  A    between atoms: C_20  and  N_21
REMARK                            x       y       z     vdW  Elec       q    Type
REMARK                         _______ _______ _______ _____ _____    ______ ____
ROOT
ATOM      1  C   UNL     1      -0.955  -5.255  -0.839  0.00  0.00    +0.142 A 
ATOM      2  C   UNL     1      -1.098  -5.612   0.491  0.00  0.00    +0.070 A 
ATOM      3  C   UNL     1      -1.919  -6.666   0.841  0.00  0.00    +0.039 A 
ATOM      4  C   UNL     1      -2.604  -7.371  -0.150  0.00  0.00    +0.028 A 
ATOM      5  C   UNL     1      -2.456  -7.006  -1.488  0.00  0.00    +0.039 A 
ATOM      6  C   UNL     1      -1.636  -5.947  -1.825  0.00  0.00    +0.070 A 
ATOM      7 CL   UNL     1      -1.455  -5.487  -3.489  0.00  0.00    -0.081 Cl
ATOM      8 CL   UNL     1      -0.245  -4.734   1.722  0.00  0.00    -0.081 Cl
ENDROOT
BRANCH   1   9
ATOM      9  S   UNL     1       0.094  -3.908  -1.277  0.00  0.00    +0.061 S 
ATOM     10  O   UNL     1       0.480  -4.117  -2.628  0.00  0.00    -0.153 OA
ATOM     11  O   UNL     1       1.042  -3.773  -0.226  0.00  0.00    -0.153 OA
BRANCH   9  12
ATOM     12  N   UNL     1      -0.834  -2.537  -1.256  0.00  0.00    -0.187 NA
ATOM     13  H   UNL     1      -0.995  -2.048  -2.077  0.00  0.00    +0.148 HD
BRANCH  12  14
ATOM     14  C   UNL     1      -1.413  -2.063   0.004  0.00  0.00    +0.073 C 
ATOM     15  C   UNL     1      -2.841  -2.594   0.141  0.00  0.00    +0.025 C 
BRANCH  14  16
ATOM     16  C   UNL     1      -1.433  -0.534   0.013  0.00  0.00    +0.020 C 
BRANCH  16  18
ATOM     17  C   UNL     1      -0.019   1.526   0.010  0.00  0.00    +0.004 C 
ATOM     18  C   UNL     1       0.002  -0.004   0.002  0.00  0.00    -0.002 C 
ENDBRANCH  16  18
ENDBRANCH  14  16
ENDBRANCH  12  14
ENDBRANCH   9  12
ENDBRANCH   1   9
BRANCH   4  19
ATOM     19  C   UNL     1      -3.456  -8.466   0.206  0.00  0.00    -0.068 C 
ATOM     20  C   UNL     1      -4.155  -9.363   0.498  0.00  0.00    -0.117 C 
BRANCH  20  21
ATOM     21  C   UNL     1      -5.031 -10.488   0.864  0.00  0.00    +0.005 C 
BRANCH  21  22
ATOM     22  N   UNL     1      -5.630 -11.057  -0.350  0.00  0.00    +0.385 N 
ATOM     23  H   UNL     1      -6.230 -11.828  -0.099  0.00  0.00    -0.089 HD
ATOM     24  H   UNL     1      -6.172 -10.349  -0.821  0.00  0.00    -0.089 HD
ATOM     25  H   UNL     1      -4.899 -11.386  -0.964  0.00  0.00    -0.089 HD
ENDBRANCH  21  22
ENDBRANCH  20  21
ENDBRANCH   4  19
TORSDOF 8
