REMARK  Name = ZINC15831087
REMARK  6 active torsions:
REMARK  status: ('A' for Active; 'I' for Inactive)
REMARK    1  A    between atoms: C_1  and  C_2
REMARK    2  A    between atoms: C_3  and  S_9
REMARK    3  A    between atoms: C_5  and  O_8
REMARK    4  A    between atoms: S_9  and  C_10
REMARK    5  A    between atoms: C_10  and  C_11
REMARK    6  A    between atoms: N_13  and  C_14
REMARK                            x       y       z     vdW  Elec       q    Type
REMARK                         _______ _______ _______ _____ _____    ______ ____
ROOT
ATOM      1  C   UNL     1      -4.694   1.946   0.379  0.00  0.00    +0.172 C 
ENDROOT
BRANCH   1   2
ATOM      2  C   UNL     1      -5.695   1.789  -0.736  0.00  0.00    +0.227 C 
ATOM      3  O   UNL     1      -5.331   1.407  -1.828  0.00  0.00    -0.275 OA
ATOM      4  N   UNL     1      -6.994   2.074  -0.520  0.00  0.00    -0.284 N 
ATOM      5  H   UNL     1      -7.296   2.316   0.369  0.00  0.00    +0.155 HD
BRANCH   4   6
ATOM      6  C   UNL     1      -7.908   2.019  -1.579  0.00  0.00    +0.052 A 
ATOM      7  C   UNL     1      -7.756   1.070  -2.581  0.00  0.00    +0.025 A 
ATOM      8  C   UNL     1      -8.662   1.015  -3.622  0.00  0.00    +0.002 A 
ATOM      9  C   UNL     1      -9.715   1.911  -3.673  0.00  0.00    +0.002 A 
ATOM     10  C   UNL     1      -9.867   2.861  -2.680  0.00  0.00    +0.022 A 
ATOM     11  C   UNL     1      -8.966   2.918  -1.633  0.00  0.00    +0.062 A 
ATOM     12 CL   UNL     1      -9.157   4.111  -0.387  0.00  0.00    -0.082 Cl
ENDBRANCH   4   6
ENDBRANCH   1   2
BRANCH   1  13
ATOM     13  S   UNL     1      -3.047   1.490  -0.219  0.00  0.00    -0.095 S 
BRANCH  13  16
ATOM     14  C   UNL     1      -0.019   1.044   0.018  0.00  0.00    +0.070 C 
ATOM     15  C   UNL     1      -0.725   1.527   1.258  0.00  0.00    +0.092 A 
ATOM     16  C   UNL     1      -2.104   1.758   1.245  0.00  0.00    +0.125 A 
ATOM     17  N   UNL     1      -2.691   2.180   2.363  0.00  0.00    -0.186 NA
ATOM     18  C   UNL     1      -1.954   2.379   3.447  0.00  0.00    +0.335 A 
ATOM     19  N   UNL     1      -0.648   2.157   3.431  0.00  0.00    -0.092 NA
ATOM     20  N   UNL     1      -0.049   1.743   2.369  0.00  0.00    -0.147 NA
BRANCH  18  21
ATOM     21  O   UNL     1      -2.545   2.814   4.586  0.00  0.00    -0.477 OA
ATOM     22  H   UNL     1      -2.577   3.776   4.669  0.00  0.00    +0.295 HD
ENDBRANCH  18  21
ENDBRANCH  13  16
ENDBRANCH   1  13
TORSDOF 5
