REMARK  Name = ZINC51676170
REMARK  4 active torsions:
REMARK  status: ('A' for Active; 'I' for Inactive)
REMARK    1  A    between atoms: C_1  and  C_2
REMARK    2  A    between atoms: C_2  and  C_4
REMARK    3  A    between atoms: C_2  and  N_12
REMARK    4  A    between atoms: C_19  and  C_22
REMARK                            x       y       z     vdW  Elec       q    Type
REMARK                         _______ _______ _______ _____ _____    ______ ____
ROOT
ATOM      1  N   UNL     1       0.711  -0.489   1.189  0.00  0.00    -0.293 N 
ATOM      2  C   UNL     1       2.054  -0.600   1.174  0.00  0.00    +0.303 C 
ATOM      3  O   UNL     1       2.670  -0.384   0.148  0.00  0.00    -0.253 OA
ATOM      4  N   UNL     1       2.714  -0.949   2.296  0.00  0.00    -0.280 N 
ATOM      5  C   UNL     1       1.985  -1.327   3.517  0.00  0.00    +0.137 C 
ATOM      6  C   UNL     1       2.551  -0.516   4.688  0.00  0.00    +0.180 C 
ATOM      7  O   UNL     1       3.972  -0.670   4.723  0.00  0.00    -0.364 OA
ATOM      8  C   UNL     1       4.644  -0.172   3.564  0.00  0.00    +0.221 C 
ATOM      9  C   UNL     1       4.185  -0.971   2.333  0.00  0.00    +0.150 C 
ATOM     10  H   UNL     1       0.213  -0.733   1.985  0.00  0.00    +0.151 HD
ENDROOT
BRANCH   8  11
ATOM     11  C   UNL     1       6.133  -0.329   3.738  0.00  0.00    +0.241 C 
ATOM     12  O   UNL     1       6.572  -0.900   4.713  0.00  0.00    -0.273 OA
ATOM     13  N   UNL     1       6.976   0.166   2.810  0.00  0.00    -0.327 N 
ATOM     14  H   UNL     1       6.624   0.623   2.030  0.00  0.00    +0.145 HD
ATOM     15  H   UNL     1       7.934   0.065   2.922  0.00  0.00    +0.145 HD
ENDBRANCH   8  11
BRANCH   1  17
ATOM     16  C   UNL     1      -0.019   1.528   0.013  0.00  0.00    +0.033 C 
ATOM     17  C   UNL     1       0.002  -0.002   0.003  0.00  0.00    +0.103 C 
BRANCH  17  18
ATOM     18  C   UNL     1      -1.412  -0.524   0.012  0.00  0.00    -0.009 A 
ATOM     19  C   UNL     1      -2.014  -0.864   1.209  0.00  0.00    +0.008 A 
ATOM     20  C   UNL     1      -3.311  -1.342   1.219  0.00  0.00    +0.020 A 
ATOM     21  C   UNL     1      -4.007  -1.481   0.030  0.00  0.00    +0.042 A 
ATOM     22  C   UNL     1      -3.404  -1.141  -1.167  0.00  0.00    +0.040 A 
ATOM     23  C   UNL     1      -2.108  -0.657  -1.176  0.00  0.00    +0.047 A 
ATOM     24 CL   UNL     1      -1.353  -0.224  -2.678  0.00  0.00    -0.083 Cl
ATOM     25 CL   UNL     1      -5.635  -2.083   0.043  0.00  0.00    -0.083 Cl
ENDBRANCH  17  18
ENDBRANCH   1  17
TORSDOF 3
