REMARK  Name = ZINC63788869
REMARK  7 active torsions:
REMARK  status: ('A' for Active; 'I' for Inactive)
REMARK    1  A    between atoms: C_1  and  C_2
REMARK    2  A    between atoms: C_2  and  C_26
REMARK    3  A    between atoms: C_5  and  N_12
REMARK    4  A    between atoms: N_15  and  C_16
REMARK    5  A    between atoms: C_16  and  C_17
REMARK    6  A    between atoms: N_19  and  C_20
REMARK    7  A    between atoms: C_20  and  C_21
REMARK                            x       y       z     vdW  Elec       q    Type
REMARK                         _______ _______ _______ _____ _____    ______ ____
ROOT
ATOM      1  N   UNL     1      -0.732  -3.756   1.804  0.00  0.00    -0.293 N 
ATOM      2  C   UNL     1      -0.843  -4.321   3.023  0.00  0.00    +0.300 C 
ATOM      3  O   UNL     1      -1.143  -3.639   3.984  0.00  0.00    -0.253 OA
ATOM      4  N   UNL     1      -0.622  -5.641   3.177  0.00  0.00    -0.291 N 
ATOM      5  H   UNL     1      -0.493  -4.300   1.038  0.00  0.00    +0.151 HD
ATOM      6  H   UNL     1      -0.383  -6.186   2.410  0.00  0.00    +0.151 HD
ENDROOT
BRANCH   1  11
ATOM      7  C   UNL     1      -0.019   1.526   0.010  0.00  0.00    +0.016 C 
ATOM      8  C   UNL     1       0.002  -0.004   0.002  0.00  0.00    -0.009 C 
ATOM      9  C   UNL     1      -1.433  -0.527  -0.015  0.00  0.00    +0.013 C 
ATOM     10  C   UNL     1      -1.397  -2.045   0.197  0.00  0.00    +0.028 C 
ATOM     11  C   UNL     1      -0.972  -2.321   1.638  0.00  0.00    +0.105 C 
ATOM     12  C   UNL     1       0.286  -1.564   1.973  0.00  0.00    -0.023 A 
ATOM     13  C   UNL     1       0.732  -0.498   1.224  0.00  0.00    -0.037 A 
ATOM     14  C   UNL     1       1.897   0.162   1.592  0.00  0.00    +0.004 A 
ATOM     15  C   UNL     1       2.614  -0.245   2.698  0.00  0.00    +0.000 A 
ATOM     16  C   UNL     1       2.169  -1.318   3.448  0.00  0.00    +0.000 A 
ATOM     17  C   UNL     1       1.010  -1.973   3.085  0.00  0.00    +0.006 A 
ATOM     18  C   UNL     1       0.731  -0.492  -1.252  0.00  0.00    +0.016 C 
ENDBRANCH   1  11
BRANCH   4  19
ATOM     19  C   UNL     1      -0.743  -6.255   4.501  0.00  0.00    +0.201 C 
BRANCH  19  20
ATOM     20  C   UNL     1      -0.447  -7.730   4.401  0.00  0.00    +0.231 C 
ATOM     21  O   UNL     1      -0.163  -8.219   3.328  0.00  0.00    -0.274 OA
ATOM     22  N   UNL     1      -0.498  -8.504   5.503  0.00  0.00    -0.307 N 
ATOM     23  H   UNL     1      -0.725  -8.112   6.361  0.00  0.00    +0.149 HD
BRANCH  22  24
ATOM     24  C   UNL     1      -0.210  -9.937   5.405  0.00  0.00    +0.178 C 
BRANCH  24  25
ATOM     25  C   UNL     1      -0.335 -10.569   6.768  0.00  0.00    +0.122 A 
ATOM     26  C   UNL     1      -1.454 -11.102   7.288  0.00  0.00    +0.046 A 
ATOM     27  C   UNL     1      -1.121 -11.576   8.578  0.00  0.00    +0.041 A 
ATOM     28  C   UNL     1       0.183 -11.305   8.768  0.00  0.00    +0.195 A 
ATOM     29  O   UNL     1       0.655 -10.700   7.666  0.00  0.00    -0.466 OA
ENDBRANCH  24  25
ENDBRANCH  22  24
ENDBRANCH  19  20
ENDBRANCH   4  19
TORSDOF 5
