REMARK  Name = ZINC59155370
REMARK  8 active torsions:
REMARK  status: ('A' for Active; 'I' for Inactive)
REMARK    1  A    between atoms: C_1  and  O_2
REMARK    2  A    between atoms: O_2  and  C_3
REMARK    3  A    between atoms: C_12  and  C_13
REMARK    4  A    between atoms: N_15  and  N_16
REMARK    5  A    between atoms: C_17  and  C_18
REMARK    6  A    between atoms: C_19  and  O_26
REMARK    7  A    between atoms: C_21  and  O_25
REMARK    8  A    between atoms: C_23  and  O_24
REMARK                            x       y       z     vdW  Elec       q    Type
REMARK                         _______ _______ _______ _____ _____    ______ ____
ROOT
ATOM      1  C   UNL     1       0.055  -2.821  -0.039  0.00  0.00    +0.267 C 
ATOM      2  O   UNL     1      -0.482  -2.270   0.903  0.00  0.00    -0.268 OA
ATOM      3  N   UNL     1       0.102  -4.166  -0.096  0.00  0.00    -0.203 N 
ATOM      4  H   UNL     1       0.530  -4.605  -0.848  0.00  0.00    +0.178 HD
ENDROOT
BRANCH   1  14
ATOM      5  C   UNL     1       0.605  -0.606  -1.054  0.00  0.00    +0.133 A 
ATOM      6  C   UNL     1       1.160   0.156  -2.039  0.00  0.00    +0.055 A 
ATOM      7  C   UNL     1       1.786  -0.460  -3.136  0.00  0.00    -0.014 A 
ATOM      8  C   UNL     1       2.365   0.306  -4.163  0.00  0.00    +0.008 A 
ATOM      9  C   UNL     1       2.965  -0.317  -5.213  0.00  0.00    +0.001 A 
ATOM     10  C   UNL     1       3.015  -1.708  -5.290  0.00  0.00    +0.001 A 
ATOM     11  C   UNL     1       2.466  -2.483  -4.316  0.00  0.00    +0.008 A 
ATOM     12  C   UNL     1       1.837  -1.875  -3.213  0.00  0.00    -0.017 A 
ATOM     13  C   UNL     1       1.262  -2.647  -2.193  0.00  0.00    +0.025 A 
ATOM     14  C   UNL     1       0.656  -2.015  -1.119  0.00  0.00    +0.080 A 
BRANCH   5  16
ATOM     15  C   UNL     1      -0.017   1.425   0.010  0.00  0.00    +0.277 C 
ATOM     16  O   UNL     1       0.002  -0.004   0.002  0.00  0.00    -0.494 OA
ENDBRANCH   5  16
ENDBRANCH   1  14
BRANCH   3  17
ATOM     17  N   UNL     1      -0.469  -4.931   0.929  0.00  0.00    -0.187 NA
ATOM     18  C   UNL     1      -0.424  -6.228   0.874  0.00  0.00    +0.145 C 
BRANCH  18  19
ATOM     19  C   UNL     1      -1.024  -7.032   1.951  0.00  0.00    +0.078 A 
ATOM     20  C   UNL     1      -1.649  -6.401   3.036  0.00  0.00    +0.132 A 
ATOM     21  C   UNL     1      -2.210  -7.164   4.045  0.00  0.00    +0.091 A 
ATOM     22  C   UNL     1      -2.155  -8.550   3.986  0.00  0.00    +0.124 A 
ATOM     23  C   UNL     1      -1.537  -9.181   2.915  0.00  0.00    +0.091 A 
ATOM     24  C   UNL     1      -0.977  -8.432   1.895  0.00  0.00    +0.132 A 
BRANCH  24  25
ATOM     25  O   UNL     1      -0.379  -9.052   0.845  0.00  0.00    -0.506 OA
ATOM     26  H   UNL     1       0.564  -9.224   0.975  0.00  0.00    +0.292 HD
ENDBRANCH  24  25
BRANCH  22  27
ATOM     27  O   UNL     1      -2.708  -9.291   4.980  0.00  0.00    -0.507 OA
ATOM     28  H   UNL     1      -3.636  -9.518   4.832  0.00  0.00    +0.292 HD
ENDBRANCH  22  27
BRANCH  20  29
ATOM     29  O   UNL     1      -1.703  -5.046   3.097  0.00  0.00    -0.506 OA
ATOM     30  H   UNL     1      -2.487  -4.665   2.678  0.00  0.00    +0.292 HD
ENDBRANCH  20  29
ENDBRANCH  18  19
ENDBRANCH   3  17
TORSDOF 7
