REMARK  Name = ZINC29321860
REMARK  8 active torsions:
REMARK  status: ('A' for Active; 'I' for Inactive)
REMARK    1  A    between atoms: C_1  and  C_2
REMARK    2  A    between atoms: C_5  and  N_8
REMARK    3  A    between atoms: C_9  and  C_32
REMARK    4  A    between atoms: C_10  and  C_13
REMARK    5  A    between atoms: C_13  and  C_15
REMARK    6  A    between atoms: C_13  and  N_16
REMARK    7  A    between atoms: N_19  and  C_20
REMARK    8  A    between atoms: C_20  and  C_21
REMARK                            x       y       z     vdW  Elec       q    Type
REMARK                         _______ _______ _______ _____ _____    ______ ____
ROOT
ATOM      1  N   UNL     1       2.196   1.042  -0.553  0.00  0.00    -0.293 N 
ATOM      2  C   UNL     1       1.042   1.715  -0.735  0.00  0.00    +0.300 C 
ATOM      3  O   UNL     1       1.041   2.930  -0.735  0.00  0.00    -0.253 OA
ATOM      4  N   UNL     1      -0.110   1.039  -0.915  0.00  0.00    -0.296 N 
ATOM      5  H   UNL     1       2.198  -0.058  -0.553  0.00  0.00    +0.151 HD
ATOM      6  H   UNL     1      -0.109  -0.061  -0.911  0.00  0.00    +0.150 HD
ENDROOT
BRANCH   1   7
ATOM      7  C   UNL     1       3.449   1.776  -0.357  0.00  0.00    +0.105 C 
ATOM      8  C   UNL     1       3.600   2.141   1.121  0.00  0.00    +0.033 C 
BRANCH   7  11
ATOM      9  N   UNL     1       6.593   0.269  -1.430  0.00  0.00    -0.237 N 
ATOM     10  C   UNL     1       5.849   1.350  -1.106  0.00  0.00    +0.047 A 
ATOM     11  C   UNL     1       4.609   0.914  -0.783  0.00  0.00    +0.013 A 
ATOM     12  C   UNL     1       4.596  -0.480  -0.908  0.00  0.00    +0.140 A 
ATOM     13  N   UNL     1       5.783  -0.867  -1.301  0.00  0.00    -0.174 NA
ATOM     14  C   UNL     1       6.315   2.783  -1.105  0.00  0.00    +0.066 C 
BRANCH   9  19
ATOM     15  C   UNL     1      12.038   0.322  -3.032  0.00  0.00    +0.044 C 
ATOM     16  C   UNL     1      10.592   0.308  -2.607  0.00  0.00    -0.050 A 
ATOM     17  C   UNL     1      10.172   1.113  -1.564  0.00  0.00    +0.005 A 
ATOM     18  C   UNL     1       8.848   1.102  -1.172  0.00  0.00    +0.028 A 
ATOM     19  C   UNL     1       7.938   0.282  -1.826  0.00  0.00    +0.066 A 
ATOM     20  C   UNL     1       8.364  -0.529  -2.869  0.00  0.00    +0.028 A 
ATOM     21  C   UNL     1       9.689  -0.510  -3.260  0.00  0.00    +0.005 A 
ENDBRANCH   9  19
ENDBRANCH   7  11
ENDBRANCH   1   7
BRANCH   4  22
ATOM     22  C   UNL     1      -1.363   1.770  -1.118  0.00  0.00    +0.153 C 
BRANCH  22  23
ATOM     23  C   UNL     1      -2.510   0.774  -1.304  0.00  0.00    +0.228 C 
ATOM     24  C   UNL     1      -3.808   1.532  -1.611  0.00  0.00    +0.275 C 
ATOM     25  O   UNL     1      -4.861   0.573  -1.765  0.00  0.00    -0.485 OA
ATOM     26  C   UNL     1      -4.938  -0.407  -0.824  0.00  0.00    +0.162 A 
ATOM     27  C   UNL     1      -6.109  -1.139  -0.698  0.00  0.00    +0.049 A 
ATOM     28  C   UNL     1      -6.201  -2.139   0.251  0.00  0.00    +0.004 A 
ATOM     29  C   UNL     1      -5.127  -2.414   1.076  0.00  0.00    +0.004 A 
ATOM     30  C   UNL     1      -3.957  -1.688   0.956  0.00  0.00    +0.049 A 
ATOM     31  C   UNL     1      -3.858  -0.682   0.007  0.00  0.00    +0.163 A 
ATOM     32  O   UNL     1      -2.701   0.027  -0.097  0.00  0.00    -0.480 OA
ENDBRANCH  22  23
ENDBRANCH   4  22
TORSDOF 5
