REMARK  Name = ZINC51067260
REMARK  10 active torsions:
REMARK  status: ('A' for Active; 'I' for Inactive)
REMARK    1  A    between atoms: C_1  and  C_2
REMARK    2  A    between atoms: C_2  and  C_4
REMARK    3  A    between atoms: C_2  and  O_22
REMARK    4  A    between atoms: C_6  and  C_7
REMARK    5  A    between atoms: C_6  and  C_9
REMARK    6  A    between atoms: C_9  and  C_11
REMARK    7  A    between atoms: C_12  and  N_21
REMARK    8  A    between atoms: N_13  and  C_20
REMARK    9  A    between atoms: N_16  and  C_19
REMARK   10  A    between atoms: O_22  and  C_23
REMARK                            x       y       z     vdW  Elec       q    Type
REMARK                         _______ _______ _______ _____ _____    ______ ____
ROOT
ATOM      1  C   UNL     1       0.936  -2.049  -3.224  0.00  0.00    +0.215 C 
ATOM      2  O   UNL     1       2.153  -2.011  -3.278  0.00  0.00    -0.285 OA
ENDROOT
BRANCH   1   3
ATOM      3  C   UNL     1       0.184  -2.853  -4.192  0.00  0.00    +0.125 A 
ATOM      4  C   UNL     1       0.158  -2.502  -5.547  0.00  0.00    +0.116 A 
ATOM      5  N   UNL     1      -0.555  -3.278  -6.420  0.00  0.00    -0.284 N 
ATOM      6  C   UNL     1      -1.222  -4.361  -5.986  0.00  0.00    +0.333 A 
ATOM      7  O   UNL     1      -1.847  -5.031  -6.785  0.00  0.00    -0.246 OA
ATOM      8  N   UNL     1      -1.215  -4.724  -4.692  0.00  0.00    -0.263 N 
ATOM      9  C   UNL     1      -0.530  -4.010  -3.777  0.00  0.00    +0.269 A 
ATOM     10  O   UNL     1      -0.527  -4.349  -2.608  0.00  0.00    -0.267 OA
ATOM     11  C   UNL     1      -1.959  -5.914  -4.271  0.00  0.00    +0.157 C 
ATOM     12  C   UNL     1      -0.592  -2.924  -7.841  0.00  0.00    +0.155 C 
BRANCH   4  13
ATOM     13  N   UNL     1       0.832  -1.404  -5.991  0.00  0.00    -0.344 N 
ATOM     14  H   UNL     1       1.262  -0.810  -5.356  0.00  0.00    +0.144 HD
ATOM     15  H   UNL     1       0.881  -1.216  -6.941  0.00  0.00    +0.144 HD
ENDBRANCH   4  13
ENDBRANCH   1   3
BRANCH   1  18
ATOM     16  C   UNL     1       0.918  -0.507  -1.313  0.00  0.00    +0.217 C 
ATOM     17  O   UNL     1       2.258  -0.434  -1.397  0.00  0.00    -0.287 OA
ATOM     18  C   UNL     1       0.222  -1.287  -2.187  0.00  0.00    +0.145 C 
BRANCH  16  20
ATOM     19  C   UNL     1       0.363   1.772  -0.507  0.00  0.00    +0.061 C 
ATOM     20  C   UNL     1       0.186   0.274  -0.252  0.00  0.00    +0.242 C 
BRANCH  20  21
ATOM     21  O   UNL     1       0.718  -0.056   1.033  0.00  0.00    -0.481 OA
BRANCH  21  22
ATOM     22  C   UNL     1      -0.087   0.157   2.107  0.00  0.00    +0.122 A 
ATOM     23  C   UNL     1      -1.383   0.619   1.924  0.00  0.00    +0.045 A 
ATOM     24  C   UNL     1      -2.199   0.834   3.017  0.00  0.00    +0.004 A 
ATOM     25  C   UNL     1      -1.726   0.590   4.293  0.00  0.00    +0.000 A 
ATOM     26  C   UNL     1      -0.436   0.130   4.479  0.00  0.00    +0.004 A 
ATOM     27  C   UNL     1       0.383  -0.092   3.388  0.00  0.00    +0.045 A 
ENDBRANCH  21  22
ENDBRANCH  20  21
ENDBRANCH  16  20
BRANCH  18  28
ATOM     28  C   UNL     1      -1.206  -1.364  -2.097  0.00  0.00    +0.107 C 
ATOM     29  N   UNL     1      -2.337  -1.426  -2.026  0.00  0.00    -0.191 NA
ENDBRANCH  18  28
ENDBRANCH   1  18
TORSDOF 7
