REMARK  Name = ZINC37376768
REMARK  6 active torsions:
REMARK  status: ('A' for Active; 'I' for Inactive)
REMARK    1  A    between atoms: C_1  and  C_2
REMARK    2  A    between atoms: C_2  and  C_3
REMARK    3  A    between atoms: C_2  and  N_4
REMARK    4  A    between atoms: C_7  and  C_16
REMARK    5  A    between atoms: C_9  and  N_15
REMARK    6  A    between atoms: N_10  and  C_14
REMARK                            x       y       z     vdW  Elec       q    Type
REMARK                         _______ _______ _______ _____ _____    ______ ____
ROOT
ATOM      1  N   UNL     1      -1.071  -1.257   1.029  0.00  0.00    -0.311 N 
ATOM      2  C   UNL     1      -1.440  -2.279   0.173  0.00  0.00    +0.218 A 
ATOM      3  N   UNL     1      -2.671  -2.771   0.276  0.00  0.00    -0.214 NA
ATOM      4  C   UNL     1      -3.107  -3.751  -0.505  0.00  0.00    +0.089 A 
ATOM      5  C   UNL     1      -2.224  -4.278  -1.474  0.00  0.00    +0.086 A 
ATOM      6  C   UNL     1      -2.289  -5.269  -2.446  0.00  0.00    +0.126 A 
ATOM      7  N   UNL     1      -1.097  -5.306  -3.067  0.00  0.00    -0.251 N 
ATOM      8  N   UNL     1      -0.241  -4.347  -2.514  0.00  0.00    -0.149 NA
ATOM      9  C   UNL     1      -0.869  -3.704  -1.554  0.00  0.00    +0.188 A 
ATOM     10  N   UNL     1      -0.555  -2.707  -0.704  0.00  0.00    -0.193 NA
ATOM     11  C   UNL     1      -0.746  -6.215  -4.160  0.00  0.00    +0.174 C 
ATOM     12  H   UNL     1      -1.702  -0.922   1.685  0.00  0.00    +0.149 HD
ENDROOT
BRANCH   4  13
ATOM     13  C   UNL     1      -4.483  -4.278  -0.365  0.00  0.00    +0.003 A 
ATOM     14  C   UNL     1      -4.707  -5.655  -0.354  0.00  0.00    +0.013 A 
ATOM     15  C   UNL     1      -5.991  -6.142  -0.223  0.00  0.00    +0.040 A 
ATOM     16  C   UNL     1      -7.058  -5.266  -0.103  0.00  0.00    +0.142 A 
ATOM     17  C   UNL     1      -6.841  -3.896  -0.114  0.00  0.00    +0.077 A 
ATOM     18  C   UNL     1      -5.560  -3.399  -0.239  0.00  0.00    +0.033 A 
ATOM     19 CL   UNL     1      -8.183  -2.804   0.035  0.00  0.00    -0.081 Cl
ATOM     20  F   UNL     1      -8.314  -5.747   0.024  0.00  0.00    -0.204 F 
ENDBRANCH   4  13
BRANCH   1  22
ATOM     21  C   UNL     1       0.252   0.748   1.491  0.00  0.00    +0.027 C 
ATOM     22  C   UNL     1       0.274  -0.682   0.946  0.00  0.00    +0.067 C 
ATOM     23  C   UNL     1       1.243  -1.528   1.773  0.00  0.00    +0.027 C 
ENDBRANCH   1  22
BRANCH   6  24
ATOM     24  N   UNL     1      -3.381  -6.070  -2.725  0.00  0.00    -0.343 N 
ATOM     25  H   UNL     1      -4.265  -5.807  -2.425  0.00  0.00    +0.144 HD
ATOM     26  H   UNL     1      -3.262  -6.896  -3.219  0.00  0.00    +0.144 HD
ENDBRANCH   6  24
TORSDOF 3
