REMARK  Name = ZINC41074881
REMARK  6 active torsions:
REMARK  status: ('A' for Active; 'I' for Inactive)
REMARK    1  A    between atoms: C_1  and  C_2
REMARK    2  A    between atoms: N_8  and  C_9
REMARK    3  A    between atoms: C_9  and  C_10
REMARK    4  A    between atoms: C_10  and  C_12
REMARK    5  A    between atoms: C_10  and  O_19
REMARK    6  A    between atoms: C_15  and  N_18
REMARK                            x       y       z     vdW  Elec       q    Type
REMARK                         _______ _______ _______ _____ _____    ______ ____
ROOT
ATOM      1  C   UNL     1       0.084  -6.379  -0.654  0.00  0.00    +0.161 C 
ENDROOT
BRANCH   1   2
ATOM      2  C   UNL     1       0.213  -7.216  -1.901  0.00  0.00    -0.018 A 
ATOM      3  C   UNL     1      -0.899  -7.463  -2.684  0.00  0.00    +0.008 A 
ATOM      4  C   UNL     1      -0.785  -8.230  -3.827  0.00  0.00    +0.023 A 
ATOM      5  C   UNL     1       0.450  -8.754  -4.189  0.00  0.00    +0.025 A 
ATOM      6  C   UNL     1       1.565  -8.504  -3.400  0.00  0.00    +0.023 A 
ATOM      7  C   UNL     1       1.445  -7.731  -2.261  0.00  0.00    +0.008 A 
BRANCH   5   8
ATOM      8  N   UNL     1       0.569  -9.530  -5.344  0.00  0.00    -0.358 N 
ATOM      9  H   UNL     1      -0.211  -9.704  -5.894  0.00  0.00    +0.142 HD
ATOM     10  H   UNL     1       1.432  -9.896  -5.596  0.00  0.00    +0.142 HD
ENDBRANCH   5   8
ENDBRANCH   1   2
BRANCH   1  11
ATOM     11  O   UNL     1      -1.129  -6.715   0.022  0.00  0.00    -0.386 OA
ATOM     12  H   UNL     1      -1.927  -6.567  -0.505  0.00  0.00    +0.210 HD
ENDBRANCH   1  11
BRANCH   1  13
ATOM     13  C   UNL     1       0.063  -4.897  -1.035  0.00  0.00    +0.139 C 
BRANCH  13  21
ATOM     14  C   UNL     1      -0.018   1.503   0.010  0.00  0.00    +0.067 C 
ATOM     15  C   UNL     1       0.002  -0.004   0.002  0.00  0.00    +0.061 A 
ATOM     16  C   UNL     1       0.006  -0.691  -1.204  0.00  0.00    +0.028 A 
ATOM     17  C   UNL     1       0.025  -2.076  -1.164  0.00  0.00    +0.047 A 
ATOM     18  C   UNL     1       0.039  -2.693   0.086  0.00  0.00    +0.141 A 
ATOM     19  N   UNL     1       0.034  -1.952   1.184  0.00  0.00    -0.134 NA
ATOM     20  N   UNL     1       0.022  -0.669   1.140  0.00  0.00    -0.153 NA
ATOM     21  N   UNL     1       0.058  -4.081   0.181  0.00  0.00    -0.325 N 
ATOM     22  H   UNL     1       0.068  -4.507   1.052  0.00  0.00    +0.148 HD
ENDBRANCH  13  21
ENDBRANCH   1  13
TORSDOF 5
