REMARK  Name = ZINC62255739
REMARK  4 active torsions:
REMARK  status: ('A' for Active; 'I' for Inactive)
REMARK    1  A    between atoms: C_3  and  S_10
REMARK    2  A    between atoms: C_6  and  C_7
REMARK    3  A    between atoms: C_7  and  N_9
REMARK    4  A    between atoms: S_10  and  N_13
REMARK                            x       y       z     vdW  Elec       q    Type
REMARK                         _______ _______ _______ _____ _____    ______ ____
ROOT
ATOM      1  S   UNL     1       3.889   2.325  -0.023  0.00  0.00    +0.061 S 
ATOM      2  O   UNL     1       4.872   1.469  -0.587  0.00  0.00    -0.153 OA
ATOM      3  O   UNL     1       3.592   3.605  -0.564  0.00  0.00    -0.153 OA
ENDROOT
BRANCH   1   4
ATOM      4  N   UNL     1       4.324   2.568   1.557  0.00  0.00    -0.168 NA
ATOM      5  C   UNL     1       3.870   3.758   2.292  0.00  0.00    +0.131 C 
ATOM      6  C   UNL     1       2.975   3.318   3.456  0.00  0.00    +0.140 C 
ATOM      7  N   UNL     1       3.608   2.198   4.155  0.00  0.00    -0.332 N 
ATOM      8  C   UNL     1       3.341   1.746   5.414  0.00  0.00    +0.107 A 
ATOM      9  C   UNL     1       4.157   0.695   5.631  0.00  0.00    +0.130 A 
ATOM     10  N   UNL     1       4.905   0.514   4.530  0.00  0.00    -0.239 NA
ATOM     11  C   UNL     1       4.586   1.412   3.645  0.00  0.00    +0.126 A 
ATOM     12  C   UNL     1       5.173   1.595   2.268  0.00  0.00    +0.183 C 
ENDBRANCH   1   4
BRANCH   1  15
ATOM     13  C   UNL     1      -0.017   1.392   0.010  0.00  0.00    +0.012 A 
ATOM     14  C   UNL     1       1.170   2.095   0.002  0.00  0.00    +0.029 A 
ATOM     15  C   UNL     1       2.378   1.419  -0.013  0.00  0.00    +0.106 A 
ATOM     16  C   UNL     1       2.404   0.036  -0.021  0.00  0.00    +0.029 A 
ATOM     17  C   UNL     1       1.224  -0.679  -0.014  0.00  0.00    +0.012 A 
ATOM     18  C   UNL     1       0.002  -0.004   0.002  0.00  0.00    +0.003 A 
BRANCH  18  19
ATOM     19  C   UNL     1      -1.264  -0.763   0.011  0.00  0.00    +0.077 C 
ATOM     20  S   UNL     1      -2.631  -0.157  -0.823  0.00  0.00    -0.035 S 
BRANCH  19  21
ATOM     21  N   UNL     1      -1.344  -1.933   0.675  0.00  0.00    -0.352 N 
ATOM     22  H   UNL     1      -0.570  -2.276   1.147  0.00  0.00    +0.143 HD
ATOM     23  H   UNL     1      -2.176  -2.432   0.680  0.00  0.00    +0.143 HD
ENDBRANCH  19  21
ENDBRANCH  18  19
ENDBRANCH   1  15
TORSDOF 4
