REMARK  Name = ZINC05460693
REMARK  2 active torsions:
REMARK  status: ('A' for Active; 'I' for Inactive)
REMARK    1  A    between atoms: C_4  and  C_7
REMARK    2  A    between atoms: C_10  and  C_22
REMARK                            x       y       z     vdW  Elec       q    Type
REMARK                         _______ _______ _______ _____ _____    ______ ____
ROOT
ATOM      1  C   UNL     1       3.711  -0.707  -0.038  0.00  0.00    +0.106 C 
ATOM      2  C   UNL     1       4.048  -1.192   1.377  0.00  0.00    +0.057 C 
ATOM      3  C   UNL     1       5.419  -1.878   1.375  0.00  0.00    +0.124 C 
ATOM      4  N   UNL     1       5.458  -2.860   0.287  0.00  0.00    -0.306 N 
ATOM      5  C   UNL     1       6.298  -3.925   0.115  0.00  0.00    +0.069 A 
ATOM      6  C   UNL     1       7.356  -4.423   0.866  0.00  0.00    +0.028 A 
ATOM      7  C   UNL     1       7.999  -5.549   0.379  0.00  0.00    +0.002 A 
ATOM      8  C   UNL     1       7.615  -6.161  -0.801  0.00  0.00    +0.002 A 
ATOM      9  C   UNL     1       6.566  -5.685  -1.567  0.00  0.00    +0.028 A 
ATOM     10  C   UNL     1       5.902  -4.547  -1.095  0.00  0.00    +0.065 A 
ATOM     11  N   UNL     1       4.864  -3.842  -1.589  0.00  0.00    -0.327 N 
ATOM     12  C   UNL     1       4.596  -2.846  -0.785  0.00  0.00    +0.175 A 
ATOM     13  N   UNL     1       3.612  -1.878  -0.929  0.00  0.00    -0.309 N 
ATOM     14  H   UNL     1       2.896  -1.968  -1.577  0.00  0.00    +0.149 HD
ATOM     15  H   UNL     1       4.391  -4.042  -2.411  0.00  0.00    +0.169 HD
ENDROOT
BRANCH   3  16
ATOM     16  C   UNL     1       5.637  -2.574   2.693  0.00  0.00    -0.006 A 
ATOM     17  C   UNL     1       4.771  -3.573   3.099  0.00  0.00    +0.008 A 
ATOM     18  C   UNL     1       4.970  -4.212   4.308  0.00  0.00    +0.020 A 
ATOM     19  C   UNL     1       6.037  -3.853   5.114  0.00  0.00    +0.042 A 
ATOM     20  C   UNL     1       6.904  -2.854   4.708  0.00  0.00    +0.040 A 
ATOM     21  C   UNL     1       6.707  -2.218   3.495  0.00  0.00    +0.047 A 
ATOM     22 CL   UNL     1       7.798  -0.969   2.982  0.00  0.00    -0.083 Cl
ATOM     23 CL   UNL     1       6.286  -4.655   6.633  0.00  0.00    -0.083 Cl
ENDBRANCH   3  16
BRANCH   1  27
ATOM     24  C   UNL     1      -0.017   1.378   0.010  0.00  0.00    +0.000 A 
ATOM     25  C   UNL     1       1.171   2.086   0.002  0.00  0.00    +0.000 A 
ATOM     26  C   UNL     1       2.377   1.411  -0.013  0.00  0.00    +0.005 A 
ATOM     27  C   UNL     1       2.396   0.029  -0.020  0.00  0.00    -0.027 A 
ATOM     28  C   UNL     1       1.208  -0.679  -0.012  0.00  0.00    +0.005 A 
ATOM     29  C   UNL     1       0.002  -0.004   0.002  0.00  0.00    +0.000 A 
ENDBRANCH   1  27
TORSDOF 2
