REMARK  Name = ZINC17095366
REMARK  6 active torsions:
REMARK  status: ('A' for Active; 'I' for Inactive)
REMARK    1  A    between atoms: C_1  and  C_2
REMARK    2  A    between atoms: C_5  and  C_8
REMARK    3  A    between atoms: N_23  and  C_26
REMARK    4  A    between atoms: C_26  and  O_27
REMARK    5  A    between atoms: C_28  and  C_32
REMARK    6  A    between atoms: C_29  and  N_31
REMARK                            x       y       z     vdW  Elec       q    Type
REMARK                         _______ _______ _______ _____ _____    ______ ____
ROOT
ATOM      1  C   UNL     1      -0.110   4.217   0.747  0.00  0.00    +0.034 C 
ATOM      2  C   UNL     1       1.123   3.709  -0.004  0.00  0.00    +0.083 C 
ATOM      3  C   UNL     1       1.135   2.198   0.003  0.00  0.00    +0.116 C 
ATOM      4  C   UNL     1      -0.018   1.503   0.010  0.00  0.00    +0.058 C 
ATOM      5  C   UNL     1      -1.266   2.155   0.032  0.00  0.00    +0.165 C 
ATOM      6  O   UNL     1      -2.284   1.493   0.023  0.00  0.00    -0.292 OA
ATOM      7  C   UNL     1      -1.361   3.656   0.062  0.00  0.00    +0.088 C 
ATOM      8  C   UNL     1       0.002  -0.004   0.002  0.00  0.00    +0.144 C 
ATOM      9  C   UNL     1      -0.367  -0.534  -1.348  0.00  0.00    -0.001 A 
ATOM     10  C   UNL     1       0.230  -0.388  -2.582  0.00  0.00    +0.007 A 
ATOM     11  C   UNL     1      -0.380  -1.024  -3.657  0.00  0.00    +0.000 A 
ATOM     12  C   UNL     1      -1.531  -1.768  -3.494  0.00  0.00    +0.002 A 
ATOM     13  C   UNL     1      -2.138  -1.918  -2.257  0.00  0.00    +0.024 A 
ATOM     14  C   UNL     1      -1.536  -1.284  -1.169  0.00  0.00    +0.043 A 
ATOM     15  N   UNL     1      -1.922  -1.264   0.159  0.00  0.00    -0.246 N 
ATOM     16  C   UNL     1      -1.078  -0.536   0.921  0.00  0.00    +0.242 C 
ATOM     17  O   UNL     1      -1.167  -0.345   2.115  0.00  0.00    -0.273 OA
ATOM     18  C   UNL     1       1.345  -0.517   0.433  0.00  0.00    +0.110 C 
ATOM     19  C   UNL     1       2.426   0.302   0.409  0.00  0.00    +0.199 C 
ATOM     20  O   UNL     1       2.328   1.575  -0.004  0.00  0.00    -0.445 OA
ENDROOT
BRANCH   1  25
ATOM     21  C   UNL     1      -0.226   9.993   0.605  0.00  0.00    +0.044 C 
ATOM     22  C   UNL     1      -0.195   8.487   0.642  0.00  0.00    -0.050 A 
ATOM     23  C   UNL     1      -0.140   7.826   1.855  0.00  0.00    +0.003 A 
ATOM     24  C   UNL     1      -0.113   6.444   1.889  0.00  0.00    +0.004 A 
ATOM     25  C   UNL     1      -0.140   5.723   0.710  0.00  0.00    -0.043 A 
ATOM     26  C   UNL     1      -0.189   6.384  -0.503  0.00  0.00    +0.004 A 
ATOM     27  C   UNL     1      -0.221   7.766  -0.537  0.00  0.00    +0.003 A 
ENDBRANCH   1  25
BRANCH  19  28
ATOM     28  N   UNL     1       3.645  -0.181   0.815  0.00  0.00    -0.328 N 
ATOM     29  H   UNL     1       3.727  -1.099   1.116  0.00  0.00    +0.145 HD
ATOM     30  H   UNL     1       4.424   0.397   0.802  0.00  0.00    +0.145 HD
ENDBRANCH  19  28
BRANCH  18  31
ATOM     31  C   UNL     1       1.485  -1.873   0.871  0.00  0.00    +0.102 C 
ATOM     32  N   UNL     1       1.597  -2.949   1.218  0.00  0.00    -0.191 NA
ENDBRANCH  18  31
BRANCH  15  33
ATOM     33  C   UNL     1      -3.106  -1.953   0.679  0.00  0.00    +0.272 C 
BRANCH  33  34
ATOM     34  O   UNL     1      -4.134  -0.997   0.945  0.00  0.00    -0.377 OA
ATOM     35  H   UNL     1      -4.950  -1.383   1.292  0.00  0.00    +0.211 HD
ENDBRANCH  33  34
ENDBRANCH  15  33
TORSDOF 5
