REMARK  Name = ZINC12383153
REMARK  7 active torsions:
REMARK  status: ('A' for Active; 'I' for Inactive)
REMARK    1  A    between atoms: C_1  and  C_2
REMARK    2  A    between atoms: C_2  and  C_3
REMARK    3  A    between atoms: C_2  and  N_4
REMARK    4  A    between atoms: C_8  and  C_21
REMARK    5  A    between atoms: C_15  and  C_17
REMARK    6  A    between atoms: C_17  and  C_18
REMARK    7  A    between atoms: C_21  and  C_22
REMARK                            x       y       z     vdW  Elec       q    Type
REMARK                         _______ _______ _______ _____ _____    ______ ____
ROOT
ATOM      1  N   UNL     1      -0.374   7.638   0.300  0.00  0.00    -0.337 N 
ATOM      2  C   UNL     1      -0.332   7.837   1.669  0.00  0.00    +0.050 A 
ATOM      3  C   UNL     1      -0.132   8.976   2.444  0.00  0.00    +0.027 A 
ATOM      4  C   UNL     1      -0.140   8.884   3.819  0.00  0.00    +0.006 A 
ATOM      5  C   UNL     1      -0.346   7.664   4.443  0.00  0.00    -0.038 A 
ATOM      6  C   UNL     1      -0.547   6.525   3.692  0.00  0.00    +0.014 A 
ATOM      7  C   UNL     1      -0.541   6.603   2.302  0.00  0.00    +0.008 A 
ATOM      8  C   UNL     1      -0.719   5.607   1.229  0.00  0.00    +0.008 A 
ATOM      9  C   UNL     1      -0.605   6.304   0.017  0.00  0.00    +0.050 A 
ATOM     10  C   UNL     1      -0.732   5.610  -1.183  0.00  0.00    +0.027 A 
ATOM     11  C   UNL     1      -0.965   4.252  -1.172  0.00  0.00    +0.006 A 
ATOM     12  C   UNL     1      -1.076   3.564   0.026  0.00  0.00    -0.038 A 
ATOM     13  C   UNL     1      -0.960   4.236   1.225  0.00  0.00    +0.014 A 
ENDROOT
BRANCH   1  15
ATOM     14  C   UNL     1      -1.282   9.755  -0.523  0.00  0.00    +0.030 C 
ATOM     15  C   UNL     1      -0.199   8.690  -0.705  0.00  0.00    +0.082 C 
ATOM     16  C   UNL     1       1.180   9.331  -0.536  0.00  0.00    +0.030 C 
ENDBRANCH   1  15
BRANCH  12  17
ATOM     17  C   UNL     1      -1.331   2.079   0.020  0.00  0.00    +0.130 C 
BRANCH  17  18
ATOM     18  C   UNL     1      -0.016   1.344   0.009  0.00  0.00    +0.215 C 
ATOM     19  O   UNL     1       1.026   1.964   0.003  0.00  0.00    -0.276 OA
ATOM     20  N   UNL     1       0.002  -0.004   0.002  0.00  0.00    -0.329 N 
ATOM     21  H   UNL     1       0.849  -0.478  -0.009  0.00  0.00    +0.145 HD
ATOM     22  H   UNL     1      -0.831  -0.500   0.007  0.00  0.00    +0.145 HD
ENDBRANCH  17  18
ENDBRANCH  12  17
BRANCH   5  23
ATOM     23  C   UNL     1      -0.352   7.581   5.948  0.00  0.00    +0.130 C 
BRANCH  23  24
ATOM     24  C   UNL     1      -1.754   7.795   6.457  0.00  0.00    +0.215 C 
ATOM     25  O   UNL     1      -2.659   7.995   5.676  0.00  0.00    -0.276 OA
ATOM     26  N   UNL     1      -2.001   7.765   7.782  0.00  0.00    -0.329 N 
ATOM     27  H   UNL     1      -1.277   7.605   8.407  0.00  0.00    +0.145 HD
ATOM     28  H   UNL     1      -2.904   7.902   8.110  0.00  0.00    +0.145 HD
ENDBRANCH  23  24
ENDBRANCH   5  23
TORSDOF 5
