REMARK  Name = ZINC35183130
REMARK  10 active torsions:
REMARK  status: ('A' for Active; 'I' for Inactive)
REMARK    1  A    between atoms: C_1  and  C_2
REMARK    2  A    between atoms: C_3  and  C_4
REMARK    3  A    between atoms: C_4  and  O_6
REMARK    4  A    between atoms: O_6  and  C_7
REMARK    5  A    between atoms: C_7  and  C_8
REMARK    6  A    between atoms: C_8  and  C_10
REMARK    7  A    between atoms: C_10  and  O_35
REMARK    8  A    between atoms: C_15  and  C_34
REMARK    9  A    between atoms: C_17  and  O_33
REMARK   10  A    between atoms: C_31  and  C_32
REMARK                            x       y       z     vdW  Elec       q    Type
REMARK                         _______ _______ _______ _____ _____    ______ ____
ROOT
ATOM      1  C   UNL     1       1.973  -6.265  -3.372  0.00  0.00    +0.133 C 
ATOM      2  C   UNL     1       0.733  -6.809  -4.106  0.00  0.00    +0.043 C 
ATOM      3  C   UNL     1       1.246  -7.489  -5.396  0.00  0.00    +0.008 C 
ATOM      4  C   UNL     1       2.712  -7.827  -5.064  0.00  0.00    +0.002 C 
ATOM      5  C   UNL     1       3.193  -6.599  -4.272  0.00  0.00    +0.009 C 
ATOM      6  C   UNL     1       3.388  -5.402  -5.207  0.00  0.00    +0.041 C 
ATOM      7  C   UNL     1       4.328  -5.764  -6.353  0.00  0.00    +0.120 C 
ATOM      8  C   UNL     1       3.688  -6.883  -7.183  0.00  0.00    +0.035 C 
ATOM      9  C   UNL     1       3.537  -8.101  -6.299  0.00  0.00    -0.000 C 
ATOM     10  C   UNL     1       2.901  -9.231  -7.112  0.00  0.00    +0.008 C 
ATOM     11  C   UNL     1       3.827  -9.621  -8.268  0.00  0.00    +0.032 C 
ATOM     12  C   UNL     1       4.119  -8.371  -9.077  0.00  0.00    -0.056 C 
ATOM     13  C   UNL     1       3.923  -8.393 -10.388  0.00  0.00    +0.051 C 
ATOM     14  C   UNL     1       4.176  -7.194 -11.201  0.00  0.00    +0.179 C 
ATOM     15  O   UNL     1       4.037  -7.221 -12.410  0.00  0.00    -0.288 OA
ATOM     16  C   UNL     1       4.601  -5.960 -10.519  0.00  0.00    +0.047 C 
ATOM     17  C   UNL     1       4.797  -5.963  -9.210  0.00  0.00    -0.012 C 
ATOM     18  C   UNL     1       4.609  -7.202  -8.366  0.00  0.00    +0.013 C 
ATOM     19  C   UNL     1       5.991  -7.536  -7.802  0.00  0.00    +0.020 C 
ATOM     20  C   UNL     1       4.447  -6.905  -3.451  0.00  0.00    +0.015 C 
ENDROOT
BRANCH   1  21
ATOM     21  C   UNL     1       1.856  -4.774  -3.192  0.00  0.00    +0.202 C 
ATOM     22  O   UNL     1       1.125  -4.135  -3.910  0.00  0.00    -0.291 OA
BRANCH  21  23
ATOM     23  C   UNL     1       2.650  -4.080  -2.115  0.00  0.00    +0.309 C 
BRANCH  23  24
ATOM     24  O   UNL     1       2.370  -2.679  -2.145  0.00  0.00    -0.454 OA
BRANCH  24  25
ATOM     25  C   UNL     1       3.005  -1.909  -1.238  0.00  0.00    +0.332 C 
ATOM     26  O   UNL     1       3.775  -2.414  -0.445  0.00  0.00    -0.246 OA
BRANCH  25  29
ATOM     27  C   UNL     1       3.147   1.788  -0.286  0.00  0.00    +0.035 C 
ATOM     28  C   UNL     1       3.392   0.301  -0.315  0.00  0.00    -0.023 C 
ATOM     29  C   UNL     1       2.765  -0.459  -1.210  0.00  0.00    +0.087 C 
ENDBRANCH  25  29
ENDBRANCH  24  25
ENDBRANCH  23  24
ENDBRANCH  21  23
ENDBRANCH   1  21
BRANCH   7  30
ATOM     30  O   UNL     1       4.543  -4.617  -7.176  0.00  0.00    -0.391 OA
ATOM     31  H   UNL     1       4.938  -3.867  -6.710  0.00  0.00    +0.210 HD
ENDBRANCH   7  30
BRANCH   1  32
ATOM     32  O   UNL     1       2.112  -6.904  -2.101  0.00  0.00    -0.380 OA
ATOM     33  H   UNL     1       1.374  -6.743  -1.498  0.00  0.00    +0.211 HD
ENDBRANCH   1  32
TORSDOF 7
