REMARK  Name = ZINC52094345
REMARK  5 active torsions:
REMARK  status: ('A' for Active; 'I' for Inactive)
REMARK    1  A    between atoms: C_1  and  C_2
REMARK    2  A    between atoms: C_2  and  C_3
REMARK    3  A    between atoms: C_3  and  C_4
REMARK    4  A    between atoms: C_4  and  C_6
REMARK    5  A    between atoms: C_4  and  N_19
REMARK                            x       y       z     vdW  Elec       q    Type
REMARK                         _______ _______ _______ _____ _____    ______ ____
ROOT
ATOM      1  C   UNL     1       1.596  -2.538   2.386  0.00  0.00    -0.046 A 
ATOM      2  C   UNL     1       0.978  -2.984   3.539  0.00  0.00    +0.031 A 
ATOM      3  C   UNL     1       1.744  -3.441   4.600  0.00  0.00    +0.067 A 
ATOM      4  C   UNL     1       3.137  -3.450   4.499  0.00  0.00    +0.068 A 
ATOM      5  C   UNL     1       3.748  -3.001   3.339  0.00  0.00    +0.043 A 
ATOM      6  C   UNL     1       2.977  -2.552   2.284  0.00  0.00    +0.022 A 
ATOM      7 BR   UNL     1       3.810  -1.948   0.698  0.00  0.00    -0.050 Br
ATOM      8  N   UNL     1       3.624  -3.955   5.703  0.00  0.00    -0.306 N 
ATOM      9  H   UNL     1       4.559  -4.080   5.929  0.00  0.00    +0.170 HD
ATOM     10  C   UNL     1       2.576  -4.241   6.498  0.00  0.00    +0.325 A 
ATOM     11  O   UNL     1       2.655  -4.699   7.623  0.00  0.00    -0.247 OA
ATOM     12  N   UNL     1       1.428  -3.942   5.861  0.00  0.00    -0.306 N 
ATOM     13  H   UNL     1       0.534  -4.055   6.220  0.00  0.00    +0.170 HD
ENDROOT
BRANCH   1  14
ATOM     14  C   UNL     1       0.763  -2.041   1.233  0.00  0.00    -0.043 C 
BRANCH  14  15
ATOM     15  N   UNL     1      -0.609  -2.550   1.364  0.00  0.00    +0.383 N 
ATOM     16  H   UNL     1      -0.595  -3.559   1.359  0.00  0.00    -0.089 HD
ATOM     17  H   UNL     1      -1.007  -2.224   2.232  0.00  0.00    -0.089 HD
ATOM     18  H   UNL     1      -1.167  -2.217   0.592  0.00  0.00    -0.089 HD
ENDBRANCH  14  15
BRANCH  14  19
ATOM     19  C   UNL     1       0.742  -0.511   1.242  0.00  0.00    -0.012 C 
BRANCH  19  21
ATOM     20  C   UNL     1      -0.019   1.526   0.010  0.00  0.00    +0.004 C 
ATOM     21  C   UNL     1       0.002  -0.004   0.002  0.00  0.00    -0.005 C 
ENDBRANCH  19  21
ENDBRANCH  14  19
ENDBRANCH   1  14
TORSDOF 4
