REMARK  Name = ZINC12883485
REMARK  5 active torsions:
REMARK  status: ('A' for Active; 'I' for Inactive)
REMARK    1  A    between atoms: C_1  and  C_2
REMARK    2  A    between atoms: C_17  and  C_19
REMARK    3  A    between atoms: C_19  and  C_20
REMARK    4  A    between atoms: N_25  and  C_28
REMARK    5  A    between atoms: C_28  and  C_29
REMARK                            x       y       z     vdW  Elec       q    Type
REMARK                         _______ _______ _______ _____ _____    ______ ____
ROOT
ATOM      1  C   UNL     1       1.477  -4.481  -6.488  0.00  0.00    +0.044 C 
ATOM      2  C   UNL     1       0.820  -4.866  -5.188  0.00  0.00    -0.049 A 
ATOM      3  C   UNL     1       1.175  -4.224  -4.015  0.00  0.00    +0.008 A 
ATOM      4  C   UNL     1       0.574  -4.576  -2.827  0.00  0.00    -0.026 A 
ATOM      5  C   UNL     1      -0.390  -5.579  -2.790  0.00  0.00    +0.054 A 
ATOM      6  C   UNL     1      -0.742  -6.220  -3.975  0.00  0.00    +0.063 A 
ATOM      7  C   UNL     1      -0.138  -5.863  -5.165  0.00  0.00    +0.025 A 
ATOM      8 CL   UNL     1      -1.944  -7.473  -3.958  0.00  0.00    -0.082 Cl
ATOM      9  N   UNL     1      -0.849  -5.760  -1.482  0.00  0.00    -0.285 N 
ATOM     10  C   UNL     1      -0.243  -4.928  -0.613  0.00  0.00    +0.211 C 
ATOM     11  O   UNL     1      -0.437  -4.865   0.583  0.00  0.00    -0.277 OA
ATOM     12  C   UNL     1       0.720  -4.094  -1.412  0.00  0.00    +0.050 C 
ATOM     13  C   UNL     1       2.158  -4.256  -0.906  0.00  0.00    +0.088 C 
ATOM     14  C   UNL     1       2.393  -3.022   0.010  0.00  0.00    +0.073 C 
ATOM     15  C   UNL     1       1.058  -2.248  -0.020  0.00  0.00    -0.049 C 
ATOM     16  C   UNL     1       2.575  -3.659   1.386  0.00  0.00    +0.224 C 
ATOM     17  O   UNL     1       2.784  -3.052   2.414  0.00  0.00    -0.275 OA
ATOM     18  N   UNL     1       2.474  -4.990   1.281  0.00  0.00    -0.237 N 
ATOM     19  C   UNL     1       2.239  -5.432   0.040  0.00  0.00    +0.225 C 
ATOM     20  O   UNL     1       2.111  -6.596  -0.276  0.00  0.00    -0.275 OA
ATOM     21  H   UNL     1      -1.524  -6.409  -1.231  0.00  0.00    +0.155 HD
ATOM     22  N   UNL     1       0.429  -2.677  -1.271  0.00  0.00    +0.394 N 
ATOM     23  H   UNL     1      -0.586  -2.526  -1.228  0.00  0.00    -0.083 HD
ATOM     24  H   UNL     1       0.820  -2.154  -2.063  0.00  0.00    -0.083 HD
ENDROOT
BRANCH  15  25
ATOM     25  C   UNL     1       1.317  -0.740  -0.015  0.00  0.00    +0.080 C 
BRANCH  25  26
ATOM     26  C   UNL     1       0.002  -0.004   0.002  0.00  0.00    +0.209 C 
ATOM     27  O   UNL     1      -1.040  -0.625   0.009  0.00  0.00    -0.276 OA
ATOM     28  N   UNL     1      -0.016   1.344   0.009  0.00  0.00    -0.329 N 
ATOM     29  H   UNL     1       0.817   1.840   0.004  0.00  0.00    +0.145 HD
ATOM     30  H   UNL     1      -0.863   1.817   0.016  0.00  0.00    +0.145 HD
ENDBRANCH  25  26
ENDBRANCH  15  25
BRANCH  18  31
ATOM     31  C   UNL     1       2.610  -5.888   2.430  0.00  0.00    +0.151 C 
BRANCH  31  32
ATOM     32  C   UNL     1       4.056  -6.283   2.590  0.00  0.00    -0.026 A 
ATOM     33  C   UNL     1       4.896  -5.520   3.380  0.00  0.00    +0.009 A 
ATOM     34  C   UNL     1       6.222  -5.878   3.530  0.00  0.00    +0.050 A 
ATOM     35  C   UNL     1       6.714  -7.004   2.889  0.00  0.00    +0.166 A 
ATOM     36  C   UNL     1       5.868  -7.772   2.093  0.00  0.00    +0.167 A 
ATOM     37  C   UNL     1       4.538  -7.410   1.952  0.00  0.00    +0.054 A 
ATOM     38  O   UNL     1       6.582  -8.815   1.577  0.00  0.00    -0.453 OA
ATOM     39  C   UNL     1       7.965  -8.448   1.734  0.00  0.00    +0.466 C 
ATOM     40  O   UNL     1       7.958  -7.565   2.871  0.00  0.00    -0.453 OA
ENDBRANCH  31  32
ENDBRANCH  18  31
TORSDOF 4
