REMARK  Name = ZINC64626481
REMARK  9 active torsions:
REMARK  status: ('A' for Active; 'I' for Inactive)
REMARK    1  A    between atoms: C_1  and  O_2
REMARK    2  A    between atoms: O_2  and  C_3
REMARK    3  A    between atoms: C_3  and  C_5
REMARK    4  A    between atoms: C_8  and  N_20
REMARK    5  A    between atoms: N_11  and  C_12
REMARK    6  A    between atoms: C_12  and  C_13
REMARK    7  A    between atoms: C_18  and  O_19
REMARK    8  A    between atoms: C_21  and  C_23
REMARK    9  A    between atoms: C_25  and  C_34
REMARK                            x       y       z     vdW  Elec       q    Type
REMARK                         _______ _______ _______ _____ _____    ______ ____
ROOT
ATOM      1  N   UNL     1      -0.312  -5.102  -0.996  0.00  0.00    -0.309 N 
ATOM      2  C   UNL     1      -0.523  -6.387  -1.345  0.00  0.00    +0.240 C 
ATOM      3  O   UNL     1      -1.478  -6.679  -2.033  0.00  0.00    -0.273 OA
ATOM      4  H   UNL     1       0.411  -4.876  -0.390  0.00  0.00    +0.149 HD
ENDROOT
BRANCH   2   5
ATOM      5  C   UNL     1       0.428  -7.459  -0.879  0.00  0.00    +0.198 C 
ATOM      6  C   UNL     1      -0.052  -8.049   0.428  0.00  0.00    -0.000 C 
ATOM      7  C   UNL     1      -0.273  -9.392   0.175  0.00  0.00    +0.006 A 
ATOM      8  C   UNL     1      -0.723 -10.458   0.992  0.00  0.00    +0.030 A 
ATOM      9  C   UNL     1      -0.848 -11.701   0.466  0.00  0.00    +0.042 A 
ATOM     10  C   UNL     1      -0.543 -11.965  -0.875  0.00  0.00    +0.022 A 
ATOM     11  C   UNL     1      -0.109 -10.996  -1.715  0.00  0.00    +0.027 A 
ATOM     12  C   UNL     1       0.049  -9.666  -1.238  0.00  0.00    +0.044 A 
ATOM     13  N   UNL     1       0.449  -8.567  -1.840  0.00  0.00    -0.370 N 
ATOM     14 CL   UNL     1      -1.400 -12.997   1.479  0.00  0.00    -0.084 Cl
ATOM     15  H   UNL     1       0.715  -8.499  -2.771  0.00  0.00    +0.161 HD
BRANCH   6  16
ATOM     16  C   UNL     1      -0.242  -7.345   1.699  0.00  0.00    -0.019 A 
ATOM     17  C   UNL     1      -1.125  -7.854   2.662  0.00  0.00    +0.008 A 
ATOM     18  C   UNL     1      -1.296  -7.185   3.854  0.00  0.00    +0.001 A 
ATOM     19  C   UNL     1      -0.600  -6.014   4.103  0.00  0.00    +0.000 A 
ATOM     20  C   UNL     1       0.274  -5.504   3.157  0.00  0.00    +0.001 A 
ATOM     21  C   UNL     1       0.463  -6.161   1.962  0.00  0.00    +0.008 A 
ENDBRANCH   6  16
ENDBRANCH   2   5
BRANCH   1  24
ATOM     22  C   UNL     1      -0.920  -2.023  -0.227  0.00  0.00    +0.168 C 
ATOM     23  C   UNL     1      -0.429  -2.693  -1.535  0.00  0.00    +0.054 C 
ATOM     24  C   UNL     1      -1.175  -4.046  -1.531  0.00  0.00    +0.089 C 
ATOM     25  C   UNL     1      -2.393  -3.832  -0.613  0.00  0.00    +0.107 C 
ATOM     26  N   UNL     1      -2.347  -2.427  -0.149  0.00  0.00    -0.284 NA
BRANCH  22  27
ATOM     27  C   UNL     1      -0.796  -0.524  -0.318  0.00  0.00    +0.324 C 
ATOM     28  O   UNL     1      -1.785   0.168  -0.278  0.00  0.00    -0.249 OA
BRANCH  27  30
ATOM     29  C   UNL     1       0.458   1.469  -0.524  0.00  0.00    +0.280 C 
ATOM     30  O   UNL     1       0.415   0.043  -0.443  0.00  0.00    -0.467 OA
ENDBRANCH  27  30
ENDBRANCH  22  27
BRANCH  26  31
ATOM     31  C   UNL     1      -2.855  -2.305   1.224  0.00  0.00    +0.124 C 
BRANCH  31  32
ATOM     32  C   UNL     1      -4.351  -2.483   1.224  0.00  0.00    +0.008 A 
ATOM     33  C   UNL     1      -5.179  -1.377   1.270  0.00  0.00    +0.008 A 
ATOM     34  C   UNL     1      -6.552  -1.540   1.271  0.00  0.00    +0.001 A 
ATOM     35  C   UNL     1      -7.101  -2.808   1.224  0.00  0.00    +0.004 A 
ATOM     36  C   UNL     1      -6.278  -3.916   1.177  0.00  0.00    +0.046 A 
ATOM     37  C   UNL     1      -4.899  -3.756   1.171  0.00  0.00    +0.121 A 
BRANCH  37  38
ATOM     38  O   UNL     1      -4.088  -4.845   1.119  0.00  0.00    -0.506 OA
ATOM     39  H   UNL     1      -3.848  -5.198   1.987  0.00  0.00    +0.292 HD
ENDBRANCH  37  38
ENDBRANCH  31  32
ENDBRANCH  26  31
ENDBRANCH   1  24
TORSDOF 8
