REMARK  Name = ZINC13138138
REMARK  7 active torsions:
REMARK  status: ('A' for Active; 'I' for Inactive)
REMARK    1  A    between atoms: C_3  and  C_8
REMARK    2  A    between atoms: N_10  and  C_11
REMARK    3  A    between atoms: C_11  and  C_12
REMARK    4  A    between atoms: N_14  and  N_15
REMARK    5  A    between atoms: C_16  and  C_18
REMARK    6  A    between atoms: C_18  and  O_19
REMARK    7  A    between atoms: O_19  and  C_20
REMARK                            x       y       z     vdW  Elec       q    Type
REMARK                         _______ _______ _______ _____ _____    ______ ____
ROOT
ATOM      1  C   UNL     1      -8.387   1.022   0.046  0.00  0.00    +0.246 C 
ATOM      2  O   UNL     1      -8.561   2.223   0.053  0.00  0.00    -0.273 OA
ATOM      3  N   UNL     1      -7.136   0.523   0.037  0.00  0.00    -0.233 N 
ATOM      4  H   UNL     1      -6.997  -0.437   0.031  0.00  0.00    +0.173 HD
ENDROOT
BRANCH   3   5
ATOM      5  N   UNL     1      -6.035   1.390   0.037  0.00  0.00    -0.232 N 
ATOM      6  C   UNL     1      -4.783   0.890   0.029  0.00  0.00    +0.267 C 
ATOM      7  O   UNL     1      -4.610  -0.310   0.021  0.00  0.00    -0.271 OA
ATOM      8  H   UNL     1      -6.174   2.350   0.043  0.00  0.00    +0.173 HD
BRANCH   6   9
ATOM      9  C   UNL     1      -3.600   1.823   0.029  0.00  0.00    +0.326 C 
BRANCH   9  10
ATOM     10  O   UNL     1      -2.392   1.060   0.019  0.00  0.00    -0.483 OA
BRANCH  10  11
ATOM     11  C   UNL     1      -1.223   1.754   0.017  0.00  0.00    +0.122 A 
ATOM     12  C   UNL     1      -0.013   1.076   0.008  0.00  0.00    +0.046 A 
ATOM     13  C   UNL     1       1.174   1.783   0.000  0.00  0.00    +0.005 A 
ATOM     14  C   UNL     1       1.156   3.166   0.008  0.00  0.00    +0.015 A 
ATOM     15  C   UNL     1      -0.049   3.844   0.023  0.00  0.00    +0.021 A 
ATOM     16  C   UNL     1      -1.239   3.140   0.031  0.00  0.00    +0.061 A 
ATOM     17 BR   UNL     1      -0.069   5.735   0.033  0.00  0.00    -0.050 Br
ENDBRANCH  10  11
ENDBRANCH   9  10
ENDBRANCH   6   9
ENDBRANCH   3   5
BRANCH   1  18
ATOM     18  C   UNL     1      -9.571   0.090   0.046  0.00  0.00    +0.202 C 
BRANCH  18  21
ATOM     19  C   UNL     1     -12.002   0.245   0.058  0.00  0.00    +0.245 C 
ATOM     20  O   UNL     1     -12.051  -0.969   0.051  0.00  0.00    -0.270 OA
ATOM     21  N   UNL     1     -10.809   0.872   0.056  0.00  0.00    -0.303 N 
ATOM     22  H   UNL     1     -10.771   1.841   0.061  0.00  0.00    +0.150 HD
BRANCH  19  25
ATOM     23  C   UNL     1     -14.370   3.162   0.086  0.00  0.00    +0.002 A 
ATOM     24  C   UNL     1     -13.200   2.430   0.081  0.00  0.00    +0.013 A 
ATOM     25  C   UNL     1     -13.252   1.035   0.068  0.00  0.00    +0.038 A 
ATOM     26  C   UNL     1     -14.490   0.389   0.070  0.00  0.00    +0.033 A 
ATOM     27  C   UNL     1     -15.653   1.133   0.079  0.00  0.00    +0.042 A 
ATOM     28  C   UNL     1     -15.593   2.516   0.087  0.00  0.00    +0.020 A 
ATOM     29 CL   UNL     1     -17.193   0.332   0.082  0.00  0.00    -0.084 Cl
ENDBRANCH  19  25
ENDBRANCH  18  21
ENDBRANCH   1  18
TORSDOF 7
