REMARK  Name = ZINC11033791
REMARK  6 active torsions:
REMARK  status: ('A' for Active; 'I' for Inactive)
REMARK    1  A    between atoms: C_1  and  C_2
REMARK    2  A    between atoms: C_2  and  C_3
REMARK    3  A    between atoms: C_2  and  C_4
REMARK    4  A    between atoms: C_4  and  C_6
REMARK    5  A    between atoms: C_4  and  S_12
REMARK    6  A    between atoms: S_12  and  C_13
REMARK                            x       y       z     vdW  Elec       q    Type
REMARK                         _______ _______ _______ _____ _____    ______ ____
ROOT
ATOM      1  C   UNL     1       1.858   5.947   0.015  0.00  0.00    +0.141 C 
ENDROOT
BRANCH   1   2
ATOM      2  C   UNL     1       2.048   7.436   0.145  0.00  0.00    +0.234 C 
ATOM      3  O   UNL     1       1.137   8.189  -0.122  0.00  0.00    -0.274 OA
ATOM      4  N   UNL     1       3.232   7.931   0.558  0.00  0.00    -0.239 N 
ATOM      5  C   UNL     1       3.402   9.263   0.673  0.00  0.00    +0.303 C 
ATOM      6  O   UNL     1       2.488  10.018   0.406  0.00  0.00    -0.253 OA
ATOM      7  N   UNL     1       4.586   9.758   1.086  0.00  0.00    -0.313 N 
ATOM      8  H   UNL     1       3.962   7.328   0.771  0.00  0.00    +0.159 HD
ATOM      9  H   UNL     1       5.316   9.155   1.300  0.00  0.00    +0.146 HD
ATOM     10  H   UNL     1       4.708  10.716   1.169  0.00  0.00    +0.146 HD
ENDBRANCH   1   2
BRANCH   1  12
ATOM     11  C   UNL     1       1.877   6.261  -2.463  0.00  0.00    +0.009 C 
ATOM     12  C   UNL     1       2.474   5.466  -1.300  0.00  0.00    +0.005 C 
ATOM     13  C   UNL     1       3.989   5.679  -1.262  0.00  0.00    +0.009 C 
ENDBRANCH   1  12
BRANCH   1  14
ATOM     14  S   UNL     1       0.086   5.560   0.030  0.00  0.00    -0.091 S 
BRANCH  14  15
ATOM     15  C   UNL     1       0.034   3.799   0.022  0.00  0.00    +0.116 A 
ATOM     16  C   UNL     1      -1.196   3.144   0.029  0.00  0.00    +0.073 A 
ATOM     17  C   UNL     1      -1.221   1.761   0.017  0.00  0.00    +0.024 A 
ATOM     18  C   UNL     1      -0.013   1.076   0.008  0.00  0.00    +0.021 A 
ATOM     19  C   UNL     1       1.169   1.789   0.001  0.00  0.00    +0.112 A 
ATOM     20  N   UNL     1       1.164   3.109   0.008  0.00  0.00    -0.247 NA
ATOM     21 CL   UNL     1      -2.676   4.051   0.047  0.00  0.00    -0.081 Cl
ENDBRANCH  14  15
ENDBRANCH   1  14
TORSDOF 4
