REMARK  Name = ZINC40347656
REMARK  5 active torsions:
REMARK  status: ('A' for Active; 'I' for Inactive)
REMARK    1  A    between atoms: C_3  and  N_20
REMARK    2  A    between atoms: C_4  and  S_8
REMARK    3  A    between atoms: S_8  and  N_11
REMARK    4  A    between atoms: N_11  and  C_12
REMARK    5  A    between atoms: C_12  and  C_13
REMARK                            x       y       z     vdW  Elec       q    Type
REMARK                         _______ _______ _______ _____ _____    ______ ____
ROOT
ATOM      1  S   UNL     1       3.897  -0.774  -0.019  0.00  0.00    +0.060 S 
ATOM      2  O   UNL     1       4.633  -0.293   1.098  0.00  0.00    -0.153 OA
ATOM      3  O   UNL     1       3.459  -2.122  -0.119  0.00  0.00    -0.153 OA
ENDROOT
BRANCH   1   7
ATOM      4  C   UNL     1       0.192   1.817  -0.343  0.00  0.00    +0.040 A 
ATOM      5  C   UNL     1       0.419   0.824  -1.276  0.00  0.00    +0.027 A 
ATOM      6  C   UNL     1       1.553   0.028  -1.179  0.00  0.00    +0.051 A 
ATOM      7  C   UNL     1       2.457   0.234  -0.145  0.00  0.00    +0.128 A 
ATOM      8  C   UNL     1       2.226   1.228   0.785  0.00  0.00    +0.068 A 
ATOM      9  C   UNL     1       1.094   2.020   0.687  0.00  0.00    +0.125 A 
ATOM     10  F   UNL     1       0.871   2.993   1.597  0.00  0.00    -0.205 F 
BRANCH   6  11
ATOM     11  N   UNL     1       1.785  -0.978  -2.122  0.00  0.00    -0.356 N 
ATOM     12  H   UNL     1       1.111  -1.182  -2.789  0.00  0.00    +0.142 HD
ATOM     13  H   UNL     1       2.619  -1.473  -2.108  0.00  0.00    +0.142 HD
ENDBRANCH   6  11
ENDBRANCH   1   7
BRANCH   1  14
ATOM     14  N   UNL     1       4.822  -0.476  -1.359  0.00  0.00    -0.190 NA
ATOM     15  H   UNL     1       4.980  -1.181  -2.006  0.00  0.00    +0.148 HD
BRANCH  14  16
ATOM     16  C   UNL     1       5.403   0.853  -1.567  0.00  0.00    +0.111 C 
BRANCH  16  17
ATOM     17  C   UNL     1       6.500   0.769  -2.631  0.00  0.00    +0.030 C 
ATOM     18  C   UNL     1       7.024   2.175  -2.938  0.00  0.00    +0.009 C 
ATOM     19  C   UNL     1       8.174   2.071  -3.945  0.00  0.00    +0.028 C 
ATOM     20  C   UNL     1       9.261   1.157  -3.374  0.00  0.00    +0.160 C 
ATOM     21  O   UNL     1       8.700  -0.124  -3.082  0.00  0.00    -0.379 OA
ATOM     22  C   UNL     1       7.651  -0.096  -2.111  0.00  0.00    +0.164 C 
ENDBRANCH  16  17
ENDBRANCH  14  16
ENDBRANCH   1  14
TORSDOF 5
