REMARK  Name = ZINC41793205
REMARK  7 active torsions:
REMARK  status: ('A' for Active; 'I' for Inactive)
REMARK    1  A    between atoms: C_1  and  C_2
REMARK    2  A    between atoms: C_2  and  C_3
REMARK    3  A    between atoms: C_2  and  C_11
REMARK    4  A    between atoms: C_2  and  N_14
REMARK    5  A    between atoms: N_14  and  C_15
REMARK    6  A    between atoms: C_15  and  C_16
REMARK    7  A    between atoms: N_18  and  C_19
REMARK                            x       y       z     vdW  Elec       q    Type
REMARK                         _______ _______ _______ _____ _____    ______ ____
ROOT
ATOM      1  C   UNL     1       0.212   1.509  -0.077  0.00  0.00    +0.045 C 
ATOM      2  C   UNL     1       0.002  -0.004   0.002  0.00  0.00    +0.146 C 
ENDROOT
BRANCH   2   3
ATOM      3  C   UNL     1       0.724  -0.549   1.208  0.00  0.00    +0.002 A 
ATOM      4  C   UNL     1       1.425   0.305   2.038  0.00  0.00    +0.009 A 
ATOM      5  C   UNL     1       2.087  -0.194   3.143  0.00  0.00    +0.020 A 
ATOM      6  C   UNL     1       2.047  -1.549   3.421  0.00  0.00    +0.042 A 
ATOM      7  C   UNL     1       1.345  -2.404   2.591  0.00  0.00    +0.040 A 
ATOM      8  C   UNL     1       0.679  -1.903   1.487  0.00  0.00    +0.048 A 
ATOM      9 CL   UNL     1      -0.208  -2.975   0.448  0.00  0.00    -0.083 Cl
ATOM     10 CL   UNL     1       2.879  -2.176   4.810  0.00  0.00    -0.083 Cl
ENDBRANCH   2   3
BRANCH   2  11
ATOM     11  C   UNL     1      -1.470  -0.301   0.121  0.00  0.00    +0.380 C 
ATOM     12  O   UNL     1      -2.000  -1.078  -0.655  0.00  0.00    -0.244 OA
ATOM     13  O   UNL     1      -2.132   0.235   0.994  0.00  0.00    -0.244 OA
ENDBRANCH   2  11
BRANCH   2  14
ATOM     14  N   UNL     1       0.533  -0.636  -1.213  0.00  0.00    -0.290 NA
ATOM     15  H   UNL     1       1.531  -0.506  -1.282  0.00  0.00    +0.124 HD
BRANCH  14  16
ATOM     16  C   UNL     1      -0.149  -0.128  -2.411  0.00  0.00    +0.178 C 
BRANCH  16  17
ATOM     17  C   UNL     1       0.421  -0.798  -3.635  0.00  0.00    +0.227 C 
ATOM     18  O   UNL     1       1.307  -1.618  -3.521  0.00  0.00    -0.274 OA
ATOM     19  N   UNL     1      -0.055  -0.486  -4.857  0.00  0.00    -0.317 N 
ATOM     20  C   UNL     1       0.499  -1.137  -6.047  0.00  0.00    +0.128 C 
ATOM     21  H   UNL     1      -0.763   0.170  -4.949  0.00  0.00    +0.148 HD
ENDBRANCH  16  17
ENDBRANCH  14  16
ENDBRANCH   2  14
TORSDOF 5
