REMARK  Name = ZINC14948929
REMARK  6 active torsions:
REMARK  status: ('A' for Active; 'I' for Inactive)
REMARK    1  A    between atoms: C_4  and  C_8
REMARK    2  A    between atoms: C_8  and  C_9
REMARK    3  A    between atoms: C_9  and  C_11
REMARK    4  A    between atoms: C_9  and  N_28
REMARK    5  A    between atoms: C_11  and  C_12
REMARK    6  A    between atoms: C_19  and  C_23
REMARK                            x       y       z     vdW  Elec       q    Type
REMARK                         _______ _______ _______ _____ _____    ______ ____
ROOT
ATOM      1  C   UNL     1       6.189  -1.523   2.764  0.00  0.00    +0.214 C 
ATOM      2  O   UNL     1       5.542  -1.082   3.690  0.00  0.00    -0.276 OA
ATOM      3  N   UNL     1       7.413  -2.042   2.985  0.00  0.00    -0.297 N 
ATOM      4  C   UNL     1       8.213  -2.575   1.874  0.00  0.00    +0.114 C 
ATOM      5  C   UNL     1       9.461  -1.705   1.679  0.00  0.00    +0.076 C 
ATOM      6  C   UNL     1      10.084  -1.445   3.028  0.00  0.00    +0.069 A 
ATOM      7  C   UNL     1       9.408  -1.616   4.248  0.00  0.00    +0.022 A 
ATOM      8  C   UNL     1      10.253  -1.294   5.244  0.00  0.00    +0.144 A 
ATOM      9  N   UNL     1      11.428  -0.931   4.682  0.00  0.00    -0.273 N 
ATOM     10  N   UNL     1      11.292  -1.036   3.289  0.00  0.00    -0.178 NA
ATOM     11  H   UNL     1      12.224  -0.648   5.157  0.00  0.00    +0.189 HD
ATOM     12  C   UNL     1       7.979  -2.082   4.346  0.00  0.00    +0.146 C 
ENDROOT
BRANCH   8  13
ATOM     13  C   UNL     1       9.945  -1.330   6.719  0.00  0.00    +0.434 C 
ATOM     14  F   UNL     1      11.074  -0.926   7.441  0.00  0.00    -0.164 F 
ATOM     15  F   UNL     1       8.882  -0.464   6.995  0.00  0.00    -0.164 F 
ATOM     16  F   UNL     1       9.595  -2.632   7.091  0.00  0.00    -0.164 F 
ENDBRANCH   8  13
BRANCH   1  17
ATOM     17  C   UNL     1       5.625  -1.490   1.367  0.00  0.00    +0.080 C 
BRANCH  17  18
ATOM     18  C   UNL     1       4.233  -0.856   1.393  0.00  0.00    -0.062 C 
BRANCH  18  19
ATOM     19  N   UNL     1       3.319  -1.711   2.162  0.00  0.00    +0.381 N 
ATOM     20  H   UNL     1       2.401  -1.293   2.179  0.00  0.00    -0.090 HD
ATOM     21  H   UNL     1       3.266  -2.621   1.728  0.00  0.00    -0.090 HD
ATOM     22  H   UNL     1       3.663  -1.808   3.105  0.00  0.00    -0.090 HD
ENDBRANCH  18  19
BRANCH  18  23
ATOM     23  C   UNL     1       3.713  -0.709  -0.038  0.00  0.00    +0.022 C 
BRANCH  23  27
ATOM     24  C   UNL     1      -0.017   1.380   0.010  0.00  0.00    +0.041 A 
ATOM     25  C   UNL     1       1.171   2.087   0.002  0.00  0.00    +0.041 A 
ATOM     26  C   UNL     1       2.379   1.412  -0.013  0.00  0.00    +0.127 A 
ATOM     27  C   UNL     1       2.397   0.027  -0.021  0.00  0.00    -0.011 A 
ATOM     28  C   UNL     1       1.210  -0.680  -0.013  0.00  0.00    +0.044 A 
ATOM     29  C   UNL     1       0.002  -0.004   0.002  0.00  0.00    +0.124 A 
ATOM     30  F   UNL     1      -1.159  -0.695   0.009  0.00  0.00    -0.205 F 
ATOM     31  F   UNL     1       3.539   2.103  -0.021  0.00  0.00    -0.205 F 
ENDBRANCH  23  27
ENDBRANCH  18  23
ENDBRANCH  17  18
ENDBRANCH   1  17
TORSDOF 6
