REMARK  Name = ZINC03109197
REMARK  4 active torsions:
REMARK  status: ('A' for Active; 'I' for Inactive)
REMARK    1  A    between atoms: C_10  and  C_11
REMARK    2  A    between atoms: C_16  and  N_17
REMARK    3  A    between atoms: N_17  and  S_18
REMARK    4  A    between atoms: S_18  and  C_21
REMARK                            x       y       z     vdW  Elec       q    Type
REMARK                         _______ _______ _______ _____ _____    ______ ____
ROOT
ATOM      1  C   UNL     1       4.975   0.478   3.080  0.00  0.00    +0.023 A 
ATOM      2  C   UNL     1       5.574  -0.728   3.446  0.00  0.00    +0.012 A 
ATOM      3  C   UNL     1       6.131  -1.539   2.481  0.00  0.00    +0.001 A 
ATOM      4  C   UNL     1       6.099  -1.163   1.147  0.00  0.00    +0.002 A 
ATOM      5  C   UNL     1       5.505   0.024   0.770  0.00  0.00    +0.025 A 
ATOM      6  C   UNL     1       4.944   0.856   1.730  0.00  0.00    +0.057 A 
ENDROOT
BRANCH   1  16
ATOM      7  C   UNL     1       6.080   5.125   5.050  0.00  0.00    +0.000 A 
ATOM      8  C   UNL     1       6.403   4.514   3.852  0.00  0.00    +0.001 A 
ATOM      9  C   UNL     1       5.858   3.287   3.528  0.00  0.00    +0.010 A 
ATOM     10  C   UNL     1       4.986   2.667   4.420  0.00  0.00    +0.004 A 
ATOM     11  C   UNL     1       4.660   3.291   5.625  0.00  0.00    -0.036 A 
ATOM     12  C   UNL     1       5.210   4.514   5.937  0.00  0.00    +0.004 A 
ATOM     13  C   UNL     1       3.710   2.598   6.565  0.00  0.00    +0.059 C 
ATOM     14  C   UNL     1       2.673   1.816   5.761  0.00  0.00    +0.147 C 
ATOM     15  N   UNL     1       3.311   0.972   4.756  0.00  0.00    -0.282 NA
ATOM     16  C   UNL     1       4.376   1.353   4.111  0.00  0.00    +0.075 C 
ENDBRANCH   1  16
BRANCH   6  17
ATOM     17  N   UNL     1       4.349   2.056   1.353  0.00  0.00    -0.216 N 
ATOM     18  H   UNL     1       4.742   2.899   1.626  0.00  0.00    +0.174 HD
BRANCH  17  19
ATOM     19  S   UNL     1       2.968   2.044   0.439  0.00  0.00    +0.074 S 
ATOM     20  O   UNL     1       3.202   1.146  -0.637  0.00  0.00    -0.150 OA
ATOM     21  O   UNL     1       2.606   3.402   0.233  0.00  0.00    -0.150 OA
BRANCH  19  22
ATOM     22  C   UNL     1       1.696   1.327   1.426  0.00  0.00    +0.137 A 
ATOM     23  C   UNL     1       0.631   2.073   1.804  0.00  0.00    +0.031 A 
ATOM     24  C   UNL     1      -0.394   1.539   2.584  0.00  0.00    +0.004 A 
ATOM     25  C   UNL     1      -0.371   0.250   2.999  0.00  0.00    +0.031 A 
ATOM     26  C   UNL     1       0.715  -0.591   2.641  0.00  0.00    +0.102 A 
ATOM     27  C   UNL     1       1.788  -0.032   1.824  0.00  0.00    +0.126 A 
ATOM     28  N   UNL     1       2.737  -0.929   1.564  0.00  0.00    -0.189 NA
ATOM     29  S   UNL     1       2.292  -2.256   2.268  0.00  0.00    +0.117 S 
ATOM     30  N   UNL     1       0.929  -1.871   2.941  0.00  0.00    -0.191 NA
ENDBRANCH  19  22
ENDBRANCH  17  19
ENDBRANCH   6  17
TORSDOF 4
