REMARK  Name = ZINC07460397
REMARK  4 active torsions:
REMARK  status: ('A' for Active; 'I' for Inactive)
REMARK    1  A    between atoms: C_1  and  C_2
REMARK    2  A    between atoms: C_2  and  C_4
REMARK    3  A    between atoms: C_2  and  N_39
REMARK    4  A    between atoms: C_10  and  N_39
REMARK                            x       y       z     vdW  Elec       q    Type
REMARK                         _______ _______ _______ _____ _____    ______ ____
ROOT
ATOM      1  C   UNL     1       0.938  -1.162  -0.405  0.00  0.00    -0.004 C 
ATOM      2  C   UNL     1      -0.388  -1.576   0.236  0.00  0.00    +0.014 C 
ENDROOT
BRANCH   2   3
ATOM      3  C   UNL     1      -0.163  -1.900   1.691  0.00  0.00    +0.206 C 
ATOM      4  O   UNL     1      -0.747  -1.274   2.549  0.00  0.00    -0.277 OA
ATOM      5  N   UNL     1       0.688  -2.886   2.038  0.00  0.00    -0.242 N 
ATOM      6  C   UNL     1       0.889  -3.176   3.338  0.00  0.00    +0.303 C 
ATOM      7  O   UNL     1       0.303  -2.548   4.198  0.00  0.00    -0.253 OA
ATOM      8  N   UNL     1       1.740  -4.162   3.685  0.00  0.00    -0.313 N 
ATOM      9  H   UNL     1       1.156  -3.387   1.351  0.00  0.00    +0.159 HD
ATOM     10  H   UNL     1       2.208  -4.663   2.999  0.00  0.00    +0.146 HD
ATOM     11  H   UNL     1       1.885  -4.371   4.621  0.00  0.00    +0.146 HD
ENDBRANCH   2   3
BRANCH   2  12
ATOM     12  N   UNL     1      -1.353  -0.466   0.132  0.00  0.00    +0.388 N 
ATOM     13  H   UNL     1      -0.856   0.426   0.239  0.00  0.00    -0.084 HD
ATOM     14  H   UNL     1      -2.057  -0.557   0.874  0.00  0.00    -0.084 HD
BRANCH  12  15
ATOM     15  C   UNL     1      -2.025  -0.493  -1.182  0.00  0.00    -0.071 C 
ATOM     16  C   UNL     1      -2.473   0.924  -1.546  0.00  0.00    -0.016 C 
ATOM     17  C   UNL     1      -2.806   0.985  -3.038  0.00  0.00    -0.002 C 
ATOM     18  C   UNL     1      -1.725   0.250  -3.833  0.00  0.00    -0.000 C 
ATOM     19  C   UNL     1      -2.324  -1.006  -4.469  0.00  0.00    -0.000 C 
ATOM     20  C   UNL     1      -2.498  -2.085  -3.399  0.00  0.00    -0.000 C 
ATOM     21  C   UNL     1      -3.711  -1.751  -2.529  0.00  0.00    -0.002 C 
ATOM     22  C   UNL     1      -3.246  -1.413  -1.111  0.00  0.00    -0.016 C 
ENDBRANCH  12  15
ENDBRANCH   2  12
TORSDOF 3
