REMARK  Name = ZINC52860611
REMARK  6 active torsions:
REMARK  status: ('A' for Active; 'I' for Inactive)
REMARK    1  A    between atoms: C_1  and  C_2
REMARK    2  A    between atoms: C_2  and  C_3
REMARK    3  A    between atoms: C_7  and  C_22
REMARK    4  A    between atoms: N_10  and  C_11
REMARK    5  A    between atoms: C_16  and  C_17
REMARK    6  A    between atoms: N_18  and  O_19
REMARK                            x       y       z     vdW  Elec       q    Type
REMARK                         _______ _______ _______ _____ _____    ______ ____
ROOT
ATOM      1  C   UNL     1      -1.053   0.958  -2.335  0.00  0.00    +0.041 A 
ATOM      2  C   UNL     1      -2.321   0.443  -2.098  0.00  0.00    +0.025 A 
ATOM      3  C   UNL     1      -3.397   1.296  -1.952  0.00  0.00    +0.022 A 
ATOM      4  C   UNL     1      -3.221   2.667  -2.042  0.00  0.00    +0.042 A 
ATOM      5  C   UNL     1      -1.968   3.195  -2.276  0.00  0.00    +0.033 A 
ATOM      6  C   UNL     1      -0.871   2.345  -2.420  0.00  0.00    +0.040 A 
ATOM      7 CL   UNL     1      -4.584   3.727  -1.857  0.00  0.00    -0.084 Cl
ENDROOT
BRANCH   1  13
ATOM      8  C   UNL     1       0.781  -0.385  -1.310  0.00  0.00    +0.099 C 
ATOM      9  C   UNL     1       0.898  -1.910  -1.407  0.00  0.00    +0.182 C 
ATOM     10  O   UNL     1       1.429  -2.261  -2.687  0.00  0.00    -0.373 OA
ATOM     11  C   UNL     1       0.601  -1.879  -3.788  0.00  0.00    +0.132 C 
ATOM     12  C   UNL     1       0.469  -0.352  -3.814  0.00  0.00    +0.136 C 
ATOM     13  N   UNL     1       0.034   0.099  -2.482  0.00  0.00    -0.322 N 
ATOM     14  C   UNL     1       1.236  -2.360  -5.095  0.00  0.00    +0.039 C 
BRANCH   8  16
ATOM     15  C   UNL     1       0.878  -0.389   1.187  0.00  0.00    +0.006 C 
ATOM     16  C   UNL     1       0.034  -0.005  -0.030  0.00  0.00    +0.021 C 
ENDBRANCH   8  16
ENDBRANCH   1  13
BRANCH   6  17
ATOM     17  C   UNL     1       0.475   2.904  -2.667  0.00  0.00    +0.164 C 
ATOM     18  N   UNL     1       1.512   2.117  -2.693  0.00  0.00    -0.071 NA
ATOM     19  N   UNL     1       0.633   4.264  -2.869  0.00  0.00    -0.340 N 
ATOM     20  H   UNL     1      -0.139   4.851  -2.850  0.00  0.00    +0.144 HD
ATOM     21  H   UNL     1       1.517   4.631  -3.031  0.00  0.00    +0.144 HD
BRANCH  18  22
ATOM     22  O   UNL     1       2.801   2.652  -2.929  0.00  0.00    -0.408 OA
ATOM     23  H   UNL     1       3.507   1.991  -2.930  0.00  0.00    +0.328 HD
ENDBRANCH  18  22
ENDBRANCH   6  17
TORSDOF 4
