REMARK  Name = ZINC56519011
REMARK  3 active torsions:
REMARK  status: ('A' for Active; 'I' for Inactive)
REMARK    1  A    between atoms: C_5  and  N_7
REMARK    2  A    between atoms: N_10  and  N_11
REMARK    3  A    between atoms: N_14  and  C_15
REMARK                            x       y       z     vdW  Elec       q    Type
REMARK                         _______ _______ _______ _____ _____    ______ ____
ROOT
ATOM      1  N   UNL     1       1.274  -2.103  -0.169  0.00  0.00    -0.267 N 
ATOM      2  C   UNL     1       0.137  -2.770   0.112  0.00  0.00    +0.320 C 
ATOM      3  O   UNL     1      -0.900  -2.159   0.286  0.00  0.00    -0.251 OA
ATOM      4  N   UNL     1       0.149  -4.115   0.199  0.00  0.00    -0.217 N 
ATOM      5  H   UNL     1       2.083  -2.592  -0.386  0.00  0.00    +0.156 HD
ATOM      6  H   UNL     1      -0.669  -4.596   0.401  0.00  0.00    +0.174 HD
ENDROOT
BRANCH   1  11
ATOM      7  C   UNL     1       0.333   1.372   0.583  0.00  0.00    +0.002 A 
ATOM      8  C   UNL     1       1.312   2.064  -0.107  0.00  0.00    +0.002 A 
ATOM      9  C   UNL     1       2.279   1.377  -0.817  0.00  0.00    +0.022 A 
ATOM     10  C   UNL     1       2.269  -0.005  -0.840  0.00  0.00    +0.062 A 
ATOM     11  C   UNL     1       1.287  -0.703  -0.148  0.00  0.00    +0.053 A 
ATOM     12  C   UNL     1       0.318  -0.009   0.564  0.00  0.00    +0.025 A 
ATOM     13 CL   UNL     1       3.483  -0.868  -1.732  0.00  0.00    -0.082 Cl
ENDBRANCH   1  11
BRANCH   4  14
ATOM     14  N   UNL     1       1.344  -4.819  -0.003  0.00  0.00    -0.217 N 
ATOM     15  C   UNL     1       1.356  -6.164   0.085  0.00  0.00    +0.320 C 
ATOM     16  O   UNL     1       2.392  -6.775  -0.090  0.00  0.00    -0.251 OA
ATOM     17  N   UNL     1       0.219  -6.832   0.365  0.00  0.00    -0.268 N 
ATOM     18  H   UNL     1       2.162  -4.339  -0.205  0.00  0.00    +0.174 HD
ATOM     19  H   UNL     1      -0.622  -6.353   0.428  0.00  0.00    +0.156 HD
BRANCH  17  20
ATOM     20  C   UNL     1       0.252  -8.217   0.567  0.00  0.00    +0.035 A 
ATOM     21  C   UNL     1      -0.821  -9.003   0.171  0.00  0.00    +0.024 A 
ATOM     22  C   UNL     1      -0.785 -10.369   0.371  0.00  0.00    +0.017 A 
ATOM     23  C   UNL     1       0.318 -10.954   0.965  0.00  0.00    +0.018 A 
ATOM     24  C   UNL     1       1.389 -10.173   1.362  0.00  0.00    +0.017 A 
ATOM     25  C   UNL     1       1.361  -8.807   1.159  0.00  0.00    +0.024 A 
ATOM     26 BR   UNL     1       0.363 -12.825   1.237  0.00  0.00    -0.050 Br
ENDBRANCH  17  20
ENDBRANCH   4  14
TORSDOF 3
