REMARK  Name = ZINC63699138
REMARK  10 active torsions:
REMARK  status: ('A' for Active; 'I' for Inactive)
REMARK    1  A    between atoms: C_1  and  C_2
REMARK    2  A    between atoms: C_2  and  C_3
REMARK    3  A    between atoms: C_2  and  C_4
REMARK    4  A    between atoms: C_2  and  C_5
REMARK    5  A    between atoms: C_9  and  C_20
REMARK    6  A    between atoms: C_14  and  C_16
REMARK    7  A    between atoms: C_16  and  C_17
REMARK    8  A    between atoms: C_16  and  C_18
REMARK    9  A    between atoms: C_16  and  C_19
REMARK   10  A    between atoms: C_26  and  N_30
REMARK                            x       y       z     vdW  Elec       q    Type
REMARK                         _______ _______ _______ _____ _____    ______ ____
ROOT
ATOM      1  C   UNL     1       0.707  -0.490  -1.238  0.00  0.00    -0.041 A 
ATOM      2  C   UNL     1       0.039  -1.275  -2.135  0.00  0.00    +0.015 A 
ATOM      3  C   UNL     1       0.694  -1.726  -3.285  0.00  0.00    +0.019 A 
ATOM      4  C   UNL     1       0.004  -2.569  -4.267  0.00  0.00    +0.026 A 
ATOM      5  C   UNL     1       0.696  -2.972  -5.362  0.00  0.00    +0.080 A 
ATOM      6  C   UNL     1       2.041  -2.578  -5.528  0.00  0.00    +0.344 A 
ATOM      7  O   UNL     1       2.651  -2.947  -6.516  0.00  0.00    -0.245 OA
ATOM      8  O   UNL     1       2.666  -1.805  -4.625  0.00  0.00    -0.422 OA
ATOM      9  C   UNL     1       2.035  -1.370  -3.514  0.00  0.00    +0.143 A 
ATOM     10  C   UNL     1       2.695  -0.572  -2.588  0.00  0.00    +0.001 A 
ATOM     11  C   UNL     1       2.029  -0.133  -1.463  0.00  0.00    +0.012 A 
ENDROOT
BRANCH   5  12
ATOM     12  C   UNL     1       0.030  -3.840  -6.399  0.00  0.00    +0.213 C 
ATOM     13  N   UNL     1       0.077  -3.184  -7.712  0.00  0.00    -0.359 N 
ATOM     14  C   UNL     1       0.746  -3.962  -8.513  0.00  0.00    +0.061 A 
ATOM     15  C   UNL     1       1.122  -3.851  -9.929  0.00  0.00    +0.029 A 
ATOM     16  C   UNL     1       1.836  -4.838 -10.507  0.00  0.00    +0.035 A 
ATOM     17  C   UNL     1       2.245  -5.987  -9.808  0.00  0.00    +0.128 A 
ATOM     18  C   UNL     1       1.953  -6.188  -8.507  0.00  0.00    +0.060 A 
ATOM     19  C   UNL     1       1.179  -5.178  -7.773  0.00  0.00    +0.063 A 
ATOM     20  N   UNL     1       0.760  -5.106  -6.541  0.00  0.00    -0.359 N 
ATOM     21  H   UNL     1       0.905  -5.766  -5.845  0.00  0.00    +0.162 HD
ATOM     22  H   UNL     1      -0.318  -2.328  -7.940  0.00  0.00    +0.162 HD
BRANCH  17  23
ATOM     23  N   UNL     1       3.026  -7.017 -10.528  0.00  0.00    +0.056 N 
ATOM     24  O   UNL     1       3.300  -6.861 -11.696  0.00  0.00    -0.126 OA
ATOM     25  O   UNL     1       3.390  -8.014  -9.950  0.00  0.00    -0.126 OA
ENDBRANCH  17  23
ENDBRANCH   5  12
BRANCH   1  27
ATOM     26  C   UNL     1      -0.019   1.526   0.010  0.00  0.00    +0.015 C 
ATOM     27  C   UNL     1       0.002  -0.004   0.002  0.00  0.00    -0.013 C 
ATOM     28  C   UNL     1       0.742  -0.511   1.242  0.00  0.00    +0.015 C 
ATOM     29  C   UNL     1      -1.433  -0.534   0.013  0.00  0.00    +0.015 C 
ENDBRANCH   1  27
BRANCH  10  30
ATOM     30  C   UNL     1       4.132  -0.181  -2.817  0.00  0.00    -0.009 C 
ATOM     31  C   UNL     1       4.613   0.693  -1.657  0.00  0.00    +0.015 C 
ATOM     32  C   UNL     1       4.996  -1.440  -2.899  0.00  0.00    +0.015 C 
ATOM     33  C   UNL     1       4.245   0.602  -4.126  0.00  0.00    +0.015 C 
ENDBRANCH  10  30
TORSDOF 4
