REMARK  Name = ZINC63572847
REMARK  6 active torsions:
REMARK  status: ('A' for Active; 'I' for Inactive)
REMARK    1  A    between atoms: C_1  and  C_2
REMARK    2  A    between atoms: C_2  and  O_3
REMARK    3  A    between atoms: O_3  and  C_4
REMARK    4  A    between atoms: C_9  and  N_10
REMARK    5  A    between atoms: C_26  and  C_28
REMARK    6  A    between atoms: C_31  and  C_34
REMARK                            x       y       z     vdW  Elec       q    Type
REMARK                         _______ _______ _______ _____ _____    ______ ____
ROOT
ATOM      1  N   UNL     1       1.802  -1.891  -3.525  0.00  0.00    -0.266 N 
ATOM      2  C   UNL     1       2.603  -2.241  -4.551  0.00  0.00    +0.307 C 
ATOM      3  O   UNL     1       2.840  -3.414  -4.765  0.00  0.00    -0.252 OA
ATOM      4  N   UNL     1       3.142  -1.290  -5.340  0.00  0.00    -0.276 N 
ATOM      5  C   UNL     1       2.937   0.125  -5.014  0.00  0.00    +0.114 C 
ATOM      6  C   UNL     1       4.303   0.813  -4.839  0.00  0.00    +0.052 C 
ATOM      7  C   UNL     1       5.165   0.364  -5.993  0.00  0.00    -0.035 C 
ATOM      8  C   UNL     1       5.878   1.052  -6.876  0.00  0.00    +0.001 A 
ATOM      9  C   UNL     1       6.176   2.489  -6.988  0.00  0.00    +0.030 A 
ATOM     10  C   UNL     1       6.938   2.862  -8.051  0.00  0.00    +0.042 A 
ATOM     11  C   UNL     1       7.427   1.960  -9.002  0.00  0.00    +0.022 A 
ATOM     12  C   UNL     1       7.208   0.621  -8.972  0.00  0.00    +0.027 A 
ATOM     13  C   UNL     1       6.427   0.107  -7.896  0.00  0.00    +0.043 A 
ATOM     14  N   UNL     1       6.087  -1.115  -7.613  0.00  0.00    -0.375 N 
ATOM     15  C   UNL     1       5.339  -1.106  -6.355  0.00  0.00    +0.131 C 
ATOM     16  C   UNL     1       3.934  -1.683  -6.516  0.00  0.00    +0.134 C 
ATOM     17 CL   UNL     1       7.324   4.545  -8.237  0.00  0.00    -0.084 Cl
ATOM     18  H   UNL     1       1.584  -0.958  -3.377  0.00  0.00    +0.156 HD
ATOM     19  H   UNL     1       6.294  -1.900  -8.145  0.00  0.00    +0.160 HD
ENDROOT
BRANCH  16  20
ATOM     20  C   UNL     1       3.300  -1.131  -7.767  0.00  0.00    -0.025 A 
ATOM     21  C   UNL     1       2.811  -1.991  -8.732  0.00  0.00    +0.006 A 
ATOM     22  C   UNL     1       2.229  -1.485  -9.879  0.00  0.00    +0.004 A 
ATOM     23  C   UNL     1       2.136  -0.117 -10.061  0.00  0.00    -0.050 A 
ATOM     24  C   UNL     1       2.623   0.743  -9.095  0.00  0.00    +0.004 A 
ATOM     25  C   UNL     1       3.201   0.236  -7.946  0.00  0.00    +0.006 A 
ATOM     26  C   UNL     1       1.502   0.435 -11.312  0.00  0.00    +0.044 C 
ENDBRANCH  16  20
BRANCH   1  32
ATOM     27  C   UNL     1       0.903  -2.545  -1.374  0.00  0.00    +0.142 A 
ATOM     28  C   UNL     1       0.388  -3.521  -0.537  0.00  0.00    +0.047 A 
ATOM     29  C   UNL     1       0.259  -4.822  -0.989  0.00  0.00    +0.004 A 
ATOM     30  C   UNL     1       0.644  -5.152  -2.275  0.00  0.00    +0.002 A 
ATOM     31  C   UNL     1       1.159  -4.184  -3.116  0.00  0.00    +0.027 A 
ATOM     32  C   UNL     1       1.286  -2.876  -2.672  0.00  0.00    +0.077 A 
BRANCH  27  33
ATOM     33  O   UNL     1       1.031  -1.266  -0.932  0.00  0.00    -0.490 OA
BRANCH  33  35
ATOM     34  C   UNL     1       0.835   0.482   0.726  0.00  0.00    +0.048 C 
ATOM     35  C   UNL     1       0.618  -0.999   0.410  0.00  0.00    +0.226 C 
ENDBRANCH  33  35
ENDBRANCH  27  33
ENDBRANCH   1  32
TORSDOF 4
