REMARK  Name = ZINC03078427
REMARK  5 active torsions:
REMARK  status: ('A' for Active; 'I' for Inactive)
REMARK    1  A    between atoms: C_1  and  C_2
REMARK    2  A    between atoms: C_2  and  S_3
REMARK    3  A    between atoms: S_3  and  N_6
REMARK    4  A    between atoms: N_6  and  C_7
REMARK    5  A    between atoms: C_10  and  O_14
REMARK                            x       y       z     vdW  Elec       q    Type
REMARK                         _______ _______ _______ _____ _____    ______ ____
ROOT
ATOM      1  C   UNL     1      -1.247   3.119   0.048  0.00  0.00    +0.049 A 
ATOM      2  C   UNL     1      -1.248   1.733  -0.023  0.00  0.00    +0.028 A 
ATOM      3  C   UNL     1      -0.053   1.040  -0.015  0.00  0.00    +0.048 A 
ATOM      4  C   UNL     1       1.148   1.730   0.052  0.00  0.00    +0.131 A 
ATOM      5  C   UNL     1       1.151   3.116   0.118  0.00  0.00    +0.061 A 
ATOM      6  C   UNL     1      -0.045   3.810   0.116  0.00  0.00    +0.043 A 
ATOM      7 BR   UNL     1       2.789   4.056   0.210  0.00  0.00    -0.046 Br
ENDROOT
BRANCH   1   8
ATOM      8  N   UNL     1      -2.458   3.821   0.046  0.00  0.00    -0.221 N 
ATOM      9  H   UNL     1      -2.604   4.538   0.683  0.00  0.00    +0.173 HD
BRANCH   8  10
ATOM     10  S   UNL     1      -3.641   3.427  -1.043  0.00  0.00    +0.043 S 
ATOM     11  O   UNL     1      -3.863   2.037  -0.851  0.00  0.00    -0.155 OA
ATOM     12  O   UNL     1      -4.681   4.366  -0.805  0.00  0.00    -0.155 OA
BRANCH  10  14
ATOM     13  C   UNL     1      -3.946   3.507  -3.761  0.00  0.00    +0.030 C 
ATOM     14  C   UNL     1      -2.894   3.722  -2.670  0.00  0.00    +0.185 C 
ENDBRANCH  10  14
ENDBRANCH   8  10
ENDBRANCH   1   8
BRANCH   4  15
ATOM     15  O   UNL     1       2.325   1.048   0.054  0.00  0.00    -0.506 OA
ATOM     16  H   UNL     1       2.691   0.892  -0.827  0.00  0.00    +0.292 HD
ENDBRANCH   4  15
TORSDOF 4
