REMARK  Name = ZINC44254244
REMARK  6 active torsions:
REMARK  status: ('A' for Active; 'I' for Inactive)
REMARK    1  A    between atoms: C_3  and  N_17
REMARK    2  A    between atoms: C_4  and  C_10
REMARK    3  A    between atoms: C_6  and  N_7
REMARK    4  A    between atoms: C_10  and  C_12
REMARK    5  A    between atoms: C_10  and  N_16
REMARK    6  A    between atoms: C_12  and  C_13
REMARK                            x       y       z     vdW  Elec       q    Type
REMARK                         _______ _______ _______ _____ _____    ______ ____
ROOT
ATOM      1  C   UNL     1      -0.017   1.378   0.010  0.00  0.00    +0.034 A 
ATOM      2  C   UNL     1       1.169   2.087   0.002  0.00  0.00    +0.025 A 
ATOM      3  C   UNL     1       2.381   1.409  -0.013  0.00  0.00    +0.031 A 
ATOM      4  C   UNL     1       2.396   0.020  -0.021  0.00  0.00    -0.038 A 
ATOM      5  C   UNL     1       1.207  -0.682  -0.013  0.00  0.00    +0.036 A 
ATOM      6  C   UNL     1       0.002  -0.004   0.002  0.00  0.00    +0.127 A 
ENDROOT
BRANCH   3   7
ATOM      7  N   UNL     1       3.582   2.122  -0.021  0.00  0.00    -0.330 N 
ATOM      8  C   UNL     1       4.210   2.516  -1.290  0.00  0.00    +0.105 C 
ATOM      9  C   UNL     1       4.467   4.026  -1.265  0.00  0.00    +0.019 C 
ATOM     10  C   UNL     1       5.286   4.380  -0.021  0.00  0.00    +0.003 C 
ATOM     11  C   UNL     1       4.498   4.003   1.235  0.00  0.00    +0.019 C 
ATOM     12  C   UNL     1       4.238   2.498   1.239  0.00  0.00    +0.105 C 
ENDBRANCH   3   7
BRANCH   6  13
ATOM     13  N   UNL     1      -1.270  -0.760   0.010  0.00  0.00    +0.056 N 
ATOM     14  O   UNL     1      -2.325  -0.168   0.023  0.00  0.00    -0.126 OA
ATOM     15  O   UNL     1      -1.256  -1.969   0.004  0.00  0.00    -0.126 OA
ENDBRANCH   6  13
BRANCH   4  16
ATOM     16  C   UNL     1       3.709  -0.720  -0.038  0.00  0.00    -0.034 C 
BRANCH  16  17
ATOM     17  N   UNL     1       3.501  -2.097   0.431  0.00  0.00    +0.383 N 
ATOM     18  H   UNL     1       2.844  -2.563  -0.177  0.00  0.00    -0.089 HD
ATOM     19  H   UNL     1       4.380  -2.592   0.419  0.00  0.00    -0.089 HD
ATOM     20  H   UNL     1       3.136  -2.081   1.371  0.00  0.00    -0.089 HD
ENDBRANCH  16  17
BRANCH  16  21
ATOM     21  C   UNL     1       4.262  -0.745  -1.464  0.00  0.00    +0.084 C 
BRANCH  21  22
ATOM     22  C   UNL     1       5.631  -1.376  -1.461  0.00  0.00    +0.209 C 
ATOM     23  O   UNL     1       6.116  -1.768  -0.421  0.00  0.00    -0.276 OA
ATOM     24  N   UNL     1       6.316  -1.505  -2.615  0.00  0.00    -0.329 N 
ATOM     25  H   UNL     1       5.928  -1.192  -3.447  0.00  0.00    +0.145 HD
ATOM     26  H   UNL     1       7.196  -1.911  -2.613  0.00  0.00    +0.145 HD
ENDBRANCH  21  22
ENDBRANCH  16  21
ENDBRANCH   4  16
TORSDOF 6
