REMARK  Name = ZINC32772493
REMARK  7 active torsions:
REMARK  status: ('A' for Active; 'I' for Inactive)
REMARK    1  A    between atoms: C_5  and  C_7
REMARK    2  A    between atoms: C_7  and  C_9
REMARK    3  A    between atoms: C_7  and  N_29
REMARK    4  A    between atoms: C_9  and  C_10
REMARK    5  A    between atoms: N_15  and  S_18
REMARK    6  A    between atoms: S_18  and  C_21
REMARK    7  A    between atoms: C_24  and  C_27
REMARK                            x       y       z     vdW  Elec       q    Type
REMARK                         _______ _______ _______ _____ _____    ______ ____
ROOT
ATOM      1  C   UNL     1       1.186  -2.888  -5.610  0.00  0.00    +0.218 C 
ATOM      2  O   UNL     1       2.220  -3.207  -6.158  0.00  0.00    -0.276 OA
ATOM      3  N   UNL     1       1.206  -2.453  -4.335  0.00  0.00    -0.299 N 
ATOM      4  C   UNL     1       2.472  -2.360  -3.595  0.00  0.00    +0.125 C 
ATOM      5  C   UNL     1       2.344  -3.169  -2.299  0.00  0.00    +0.128 C 
ATOM      6  N   UNL     1       1.099  -2.779  -1.623  0.00  0.00    -0.174 NA
ATOM      7  C   UNL     1      -0.169  -2.877  -2.361  0.00  0.00    +0.128 C 
ATOM      8  C   UNL     1      -0.039  -2.062  -3.659  0.00  0.00    +0.125 C 
ENDROOT
BRANCH   6   9
ATOM      9  S   UNL     1       1.123  -2.244  -0.056  0.00  0.00    +0.061 S 
ATOM     10  O   UNL     1       2.299  -2.777   0.537  0.00  0.00    -0.153 OA
ATOM     11  O   UNL     1      -0.174  -2.484   0.475  0.00  0.00    -0.153 OA
BRANCH   9  12
ATOM     12  C   UNL     1       1.331  -0.495  -0.105  0.00  0.00    +0.106 A 
ATOM     13  C   UNL     1       0.222   0.330  -0.154  0.00  0.00    +0.030 A 
ATOM     14  C   UNL     1       0.378   1.700  -0.192  0.00  0.00    +0.021 A 
ATOM     15  C   UNL     1       1.660   2.253  -0.181  0.00  0.00    +0.052 A 
ATOM     16  C   UNL     1       2.775   1.415  -0.132  0.00  0.00    +0.021 A 
ATOM     17  C   UNL     1       2.604   0.047  -0.094  0.00  0.00    +0.030 A 
BRANCH  15  18
ATOM     18  C   UNL     1       1.829   3.675  -0.221  0.00  0.00    +0.099 C 
ATOM     19  N   UNL     1       1.964   4.802  -0.252  0.00  0.00    -0.191 NA
ENDBRANCH  15  18
ENDBRANCH   9  12
ENDBRANCH   6   9
BRANCH   1  20
ATOM     20  C   UNL     1      -0.120  -2.978  -6.356  0.00  0.00    +0.123 C 
BRANCH  20  21
ATOM     21  C   UNL     1       0.136  -3.496  -7.772  0.00  0.00    +0.115 C 
BRANCH  21  26
ATOM     22  C   UNL     1      -3.544  -3.341  -8.604  0.00  0.00    +0.000 A 
ATOM     23  C   UNL     1      -3.596  -4.082  -9.770  0.00  0.00    +0.001 A 
ATOM     24  C   UNL     1      -2.440  -4.635 -10.289  0.00  0.00    +0.020 A 
ATOM     25  C   UNL     1      -1.232  -4.445  -9.643  0.00  0.00    +0.046 A 
ATOM     26  C   UNL     1      -1.180  -3.703  -8.477  0.00  0.00    -0.008 A 
ATOM     27  C   UNL     1      -2.337  -3.155  -7.955  0.00  0.00    +0.007 A 
ATOM     28 CL   UNL     1       0.220  -5.139 -10.295  0.00  0.00    -0.083 Cl
ENDBRANCH  21  26
BRANCH  21  29
ATOM     29  N   UNL     1       0.938  -2.519  -8.512  0.00  0.00    -0.292 N 
ATOM     30  C   UNL     1       0.434  -1.298  -8.780  0.00  0.00    +0.298 C 
ATOM     31  O   UNL     1      -0.648  -0.974  -8.330  0.00  0.00    -0.253 OA
ATOM     32  N   UNL     1       1.130  -0.435  -9.547  0.00  0.00    -0.313 N 
ATOM     33  H   UNL     1       1.951  -2.782  -8.850  0.00  0.00    +0.151 HD
ATOM     34  H   UNL     1       0.719   0.561  -9.766  0.00  0.00    +0.146 HD
ATOM     35  H   UNL     1       2.109  -0.728  -9.955  0.00  0.00    +0.146 HD
ENDBRANCH  21  29
ENDBRANCH  20  21
ENDBRANCH   1  20
TORSDOF 7
