REMARK  Name = ZINC57848453
REMARK  7 active torsions:
REMARK  status: ('A' for Active; 'I' for Inactive)
REMARK    1  A    between atoms: C_1  and  C_2
REMARK    2  A    between atoms: C_2  and  C_3
REMARK    3  A    between atoms: C_2  and  C_4
REMARK    4  A    between atoms: C_2  and  C_5
REMARK    5  A    between atoms: N_13  and  C_17
REMARK    6  A    between atoms: C_17  and  C_18
REMARK    7  A    between atoms: C_18  and  N_20
REMARK                            x       y       z     vdW  Elec       q    Type
REMARK                         _______ _______ _______ _____ _____    ______ ____
ROOT
ATOM      1  C   UNL     1       0.718  -0.497  -1.257  0.00  0.00    -0.005 C 
ATOM      2  C   UNL     1       0.737  -2.027  -1.266  0.00  0.00    +0.006 C 
ATOM      3  C   UNL     1       1.444  -2.520  -2.531  0.00  0.00    +0.035 C 
ATOM      4  C   UNL     1       2.869  -1.978  -2.563  0.00  0.00    +0.113 C 
ATOM      5  C   UNL     1       2.866  -0.453  -2.532  0.00  0.00    +0.035 C 
ATOM      6  C   UNL     1       2.154   0.032  -1.267  0.00  0.00    +0.006 C 
ATOM      7  C   UNL     1       3.598  -2.480  -3.787  0.00  0.00    +0.247 C 
ATOM      8  O   UNL     1       3.308  -2.281  -4.947  0.00  0.00    -0.273 OA
ATOM      9  N   UNL     1       4.640  -3.197  -3.317  0.00  0.00    -0.218 N 
ATOM     10  C   UNL     1       4.664  -3.212  -1.979  0.00  0.00    +0.310 C 
ATOM     11  O   UNL     1       5.508  -3.792  -1.325  0.00  0.00    -0.252 OA
ATOM     12  N   UNL     1       3.647  -2.513  -1.439  0.00  0.00    -0.285 N 
ATOM     13  H   UNL     1       3.466  -2.388  -0.494  0.00  0.00    +0.151 HD
ENDROOT
BRANCH   1  15
ATOM     14  C   UNL     1      -0.019   1.526   0.010  0.00  0.00    +0.011 C 
ATOM     15  C   UNL     1       0.002  -0.004   0.002  0.00  0.00    -0.035 C 
ATOM     16  C   UNL     1       0.742  -0.511   1.242  0.00  0.00    +0.011 C 
ATOM     17  C   UNL     1      -1.433  -0.534   0.013  0.00  0.00    +0.011 C 
ENDBRANCH   1  15
BRANCH   9  18
ATOM     18  C   UNL     1       5.623  -3.874  -4.166  0.00  0.00    +0.176 C 
BRANCH  18  19
ATOM     19  C   UNL     1       6.765  -2.936  -4.459  0.00  0.00    +0.064 C 
ATOM     20  S   UNL     1       6.757  -1.454  -3.858  0.00  0.00    -0.039 S 
BRANCH  19  21
ATOM     21  N   UNL     1       7.794  -3.346  -5.227  0.00  0.00    -0.354 N 
ATOM     22  H   UNL     1       7.799  -4.245  -5.592  0.00  0.00    +0.143 HD
ATOM     23  H   UNL     1       8.530  -2.742  -5.415  0.00  0.00    +0.143 HD
ENDBRANCH  19  21
ENDBRANCH  18  19
ENDBRANCH   9  18
TORSDOF 4
