REMARK  Name = ZINC22078499
REMARK  3 active torsions:
REMARK  status: ('A' for Active; 'I' for Inactive)
REMARK    1  A    between atoms: C_4  and  C_7
REMARK    2  A    between atoms: C_10  and  N_13
REMARK    3  A    between atoms: C_22  and  C_24
REMARK                            x       y       z     vdW  Elec       q    Type
REMARK                         _______ _______ _______ _____ _____    ______ ____
ROOT
ATOM      1  N   UNL     1      -0.655   1.429   1.291  0.00  0.00    +0.381 N 
ATOM      2  C   UNL     1       0.132   1.117   0.094  0.00  0.00    -0.097 C 
ATOM      3  C   UNL     1      -0.505   1.736  -1.161  0.00  0.00    -0.097 C 
ATOM      4  N   UNL     1      -1.875   1.248  -1.243  0.00  0.00    +0.379 N 
ATOM      5  C   UNL     1      -2.682   1.705  -2.383  0.00  0.00    -0.079 C 
ATOM      6  C   UNL     1      -4.138   1.402  -1.938  0.00  0.00    -0.020 C 
ATOM      7  C   UNL     1      -4.085   1.381  -0.388  0.00  0.00    -0.019 C 
ATOM      8  C   UNL     1      -2.633   1.740  -0.060  0.00  0.00    -0.082 C 
ATOM      9  C   UNL     1      -2.070   1.031   1.163  0.00  0.00    -0.079 C 
ATOM     10  H   UNL     1      -0.637   2.524   1.396  0.00  0.00    -0.081 HD
ATOM     11  H   UNL     1      -1.727   0.163  -1.338  0.00  0.00    -0.082 HD
ENDROOT
BRANCH   1  15
ATOM     12  C   UNL     1       1.828   2.962   3.221  0.00  0.00    +0.019 C 
ATOM     13  C   UNL     1       2.081   2.053   2.017  0.00  0.00    +0.006 C 
ATOM     14  C   UNL     1       1.458   0.679   2.275  0.00  0.00    -0.015 C 
ATOM     15  C   UNL     1      -0.049   0.834   2.489  0.00  0.00    -0.068 C 
ATOM     16  C   UNL     1      -0.302   1.744   3.693  0.00  0.00    -0.015 C 
ATOM     17  C   UNL     1       0.321   3.117   3.435  0.00  0.00    +0.006 C 
BRANCH  12  21
ATOM     18  C   UNL     1       3.566   6.797   2.499  0.00  0.00    +0.000 A 
ATOM     19  C   UNL     1       3.980   6.043   3.581  0.00  0.00    +0.000 A 
ATOM     20  C   UNL     1       3.418   4.801   3.814  0.00  0.00    +0.004 A 
ATOM     21  C   UNL     1       2.441   4.315   2.966  0.00  0.00    -0.044 A 
ATOM     22  C   UNL     1       2.030   5.067   1.882  0.00  0.00    +0.004 A 
ATOM     23  C   UNL     1       2.589   6.310   1.651  0.00  0.00    +0.000 A 
ENDBRANCH  12  21
ENDBRANCH   1  15
BRANCH   9  24
ATOM     24  C   UNL     1      -2.844   1.456   2.413  0.00  0.00    -0.026 C 
ATOM     25  C   UNL     1      -4.287   0.957   2.312  0.00  0.00    +0.002 C 
ATOM     26  C   UNL     1      -5.061   1.381   3.562  0.00  0.00    +0.000 C 
ATOM     27  C   UNL     1      -5.056   2.907   3.671  0.00  0.00    +0.000 C 
ATOM     28  C   UNL     1      -3.613   3.406   3.772  0.00  0.00    +0.000 C 
ATOM     29  C   UNL     1      -2.839   2.982   2.522  0.00  0.00    +0.002 C 
ENDBRANCH   9  24
TORSDOF 3
