REMARK  Name = ZINC09846887
REMARK  7 active torsions:
REMARK  status: ('A' for Active; 'I' for Inactive)
REMARK    1  A    between atoms: C_1  and  C_2
REMARK    2  A    between atoms: C_2  and  C_3
REMARK    3  A    between atoms: C_2  and  C_4
REMARK    4  A    between atoms: C_2  and  C_5
REMARK    5  A    between atoms: C_8  and  C_11
REMARK    6  A    between atoms: C_29  and  C_33
REMARK    7  A    between atoms: C_30  and  N_32
REMARK                            x       y       z     vdW  Elec       q    Type
REMARK                         _______ _______ _______ _____ _____    ______ ____
ROOT
ATOM      1  C   UNL     1      -1.666   6.510   3.692  0.00  0.00    +0.034 C 
ATOM      2  C   UNL     1      -1.968   7.381   2.470  0.00  0.00    +0.083 C 
ATOM      3  C   UNL     1      -1.445   6.706   1.224  0.00  0.00    +0.116 C 
ATOM      4  C   UNL     1      -0.347   5.927   1.275  0.00  0.00    +0.058 C 
ATOM      5  C   UNL     1       0.332   5.699   2.486  0.00  0.00    +0.165 C 
ATOM      6  O   UNL     1       1.326   5.001   2.489  0.00  0.00    -0.292 OA
ATOM      7  C   UNL     1      -0.150   6.302   3.777  0.00  0.00    +0.088 C 
ATOM      8  C   UNL     1       0.183   5.276   0.023  0.00  0.00    +0.144 C 
ATOM      9  C   UNL     1      -0.113   3.809   0.021  0.00  0.00    -0.002 A 
ATOM     10  C   UNL     1      -1.305   3.117   0.031  0.00  0.00    +0.007 A 
ATOM     11  C   UNL     1      -1.228   1.729   0.017  0.00  0.00    +0.000 A 
ATOM     12  C   UNL     1      -0.013   1.076   0.008  0.00  0.00    +0.002 A 
ATOM     13  C   UNL     1       1.190   1.765   0.000  0.00  0.00    +0.023 A 
ATOM     14  C   UNL     1       1.127   3.159   0.007  0.00  0.00    +0.038 A 
ATOM     15  N   UNL     1       2.156   4.085   0.000  0.00  0.00    -0.284 N 
ATOM     16  C   UNL     1       1.695   5.353   0.009  0.00  0.00    +0.238 C 
ATOM     17  O   UNL     1       2.366   6.363   0.006  0.00  0.00    -0.274 OA
ATOM     18  C   UNL     1      -0.379   5.941  -1.199  0.00  0.00    +0.110 C 
ATOM     19  C   UNL     1      -1.486   6.719  -1.105  0.00  0.00    +0.199 C 
ATOM     20  O   UNL     1      -2.106   6.910   0.070  0.00  0.00    -0.445 OA
ATOM     21  H   UNL     1       3.097   3.850  -0.009  0.00  0.00    +0.155 HD
ENDROOT
BRANCH   1  25
ATOM     22  C   UNL     1      -3.047   8.469   7.228  0.00  0.00    -0.042 A 
ATOM     23  C   UNL     1      -3.551   7.229   6.883  0.00  0.00    +0.004 A 
ATOM     24  C   UNL     1      -3.104   6.595   5.739  0.00  0.00    +0.004 A 
ATOM     25  C   UNL     1      -2.153   7.201   4.939  0.00  0.00    -0.043 A 
ATOM     26  C   UNL     1      -1.646   8.439   5.287  0.00  0.00    +0.004 A 
ATOM     27  C   UNL     1      -2.096   9.075   6.428  0.00  0.00    +0.004 A 
BRANCH  22  29
ATOM     28  C   UNL     1      -3.233   8.287   9.694  0.00  0.00    +0.015 C 
ATOM     29  C   UNL     1      -3.535   9.161   8.475  0.00  0.00    -0.013 C 
ATOM     30  C   UNL     1      -2.824  10.507   8.623  0.00  0.00    +0.015 C 
ATOM     31  C   UNL     1      -5.045   9.390   8.373  0.00  0.00    +0.015 C 
ENDBRANCH  22  29
ENDBRANCH   1  25
BRANCH  19  32
ATOM     32  N   UNL     1      -1.981   7.324  -2.233  0.00  0.00    -0.328 N 
ATOM     33  H   UNL     1      -1.540   7.193  -3.087  0.00  0.00    +0.145 HD
ATOM     34  H   UNL     1      -2.772   7.883  -2.176  0.00  0.00    +0.145 HD
ENDBRANCH  19  32
BRANCH  18  35
ATOM     35  C   UNL     1       0.255   5.753  -2.469  0.00  0.00    +0.102 C 
ATOM     36  N   UNL     1       0.758   5.604  -3.477  0.00  0.00    -0.191 NA
ENDBRANCH  18  35
TORSDOF 4
