REMARK  Name = ZINC19737277
REMARK  8 active torsions:
REMARK  status: ('A' for Active; 'I' for Inactive)
REMARK    1  A    between atoms: C_1  and  C_2
REMARK    2  A    between atoms: C_4  and  C_23
REMARK    3  A    between atoms: C_5  and  C_22
REMARK    4  A    between atoms: C_6  and  S_9
REMARK    5  A    between atoms: C_7  and  C_8
REMARK    6  A    between atoms: S_9  and  N_12
REMARK    7  A    between atoms: C_15  and  C_18
REMARK    8  A    between atoms: N_20  and  N_21
REMARK                            x       y       z     vdW  Elec       q    Type
REMARK                         _______ _______ _______ _____ _____    ______ ____
ROOT
ATOM      1  S   UNL     1      -4.569   2.838   2.328  0.00  0.00    +0.061 S 
ATOM      2  O   UNL     1      -4.120   3.994   3.023  0.00  0.00    -0.153 OA
ATOM      3  O   UNL     1      -5.845   2.772   1.707  0.00  0.00    -0.153 OA
ENDROOT
BRANCH   1   9
ATOM      4  C   UNL     1      -3.039   0.773   6.880  0.00  0.00    +0.044 C 
ATOM      5  C   UNL     1      -3.768   0.606   5.572  0.00  0.00    -0.045 A 
ATOM      6  C   UNL     1      -4.380  -0.596   5.271  0.00  0.00    +0.007 A 
ATOM      7  C   UNL     1      -5.050  -0.750   4.071  0.00  0.00    -0.045 A 
ATOM      8  C   UNL     1      -5.107   0.299   3.172  0.00  0.00    -0.021 A 
ATOM      9  C   UNL     1      -4.496   1.502   3.474  0.00  0.00    +0.112 A 
ATOM     10  C   UNL     1      -3.822   1.653   4.671  0.00  0.00    -0.021 A 
ATOM     11  C   UNL     1      -3.150   2.962   4.997  0.00  0.00    +0.046 C 
ATOM     12  C   UNL     1      -5.837   0.132   1.864  0.00  0.00    +0.046 C 
ATOM     13  C   UNL     1      -5.717  -2.061   3.743  0.00  0.00    +0.044 C 
ENDBRANCH   1   9
BRANCH   1  14
ATOM     14  N   UNL     1      -3.450   2.532   1.146  0.00  0.00    -0.177 NA
ATOM     15  C   UNL     1      -3.842   1.857  -0.098  0.00  0.00    +0.110 C 
ATOM     16  C   UNL     1      -2.929   0.645  -0.310  0.00  0.00    +0.030 C 
ATOM     17  C   UNL     1      -1.468   1.100  -0.275  0.00  0.00    +0.079 C 
ATOM     18  C   UNL     1      -1.154   1.708   1.094  0.00  0.00    +0.030 C 
ATOM     19  C   UNL     1      -2.047   2.932   1.322  0.00  0.00    +0.110 C 
BRANCH  17  20
ATOM     20  C   UNL     1      -0.568  -0.084  -0.517  0.00  0.00    +0.229 C 
ATOM     21  O   UNL     1      -1.047  -1.183  -0.700  0.00  0.00    -0.274 OA
ATOM     22  N   UNL     1       0.770   0.080  -0.535  0.00  0.00    -0.253 N 
ATOM     23  H   UNL     1       1.205   1.076  -0.370  0.00  0.00    +0.169 HD
BRANCH  22  24
ATOM     24  N   UNL     1       1.586  -0.993  -0.760  0.00  0.00    -0.254 NA
ATOM     25  H   UNL     1       2.636  -0.665  -0.739  0.00  0.00    +0.140 HD
ATOM     26  H   UNL     1       1.422  -1.749   0.021  0.00  0.00    +0.140 HD
ENDBRANCH  22  24
ENDBRANCH  17  20
ENDBRANCH   1  14
TORSDOF 4
