REMARK  Name = ZINC12462635
REMARK  6 active torsions:
REMARK  status: ('A' for Active; 'I' for Inactive)
REMARK    1  A    between atoms: C_1  and  C_2
REMARK    2  A    between atoms: N_10  and  N_11
REMARK    3  A    between atoms: C_12  and  C_14
REMARK    4  A    between atoms: C_14  and  O_15
REMARK    5  A    between atoms: O_15  and  C_16
REMARK    6  A    between atoms: C_21  and  C_22
REMARK                            x       y       z     vdW  Elec       q    Type
REMARK                         _______ _______ _______ _____ _____    ______ ____
ROOT
ATOM      1  C   UNL     1       3.121   0.490   0.220  0.00  0.00    +0.045 C 
ATOM      2  C   UNL     1       2.214  -0.711   0.148  0.00  0.00    -0.036 A 
ATOM      3  C   UNL     1       1.936  -1.296  -1.075  0.00  0.00    +0.006 A 
ATOM      4  C   UNL     1       1.107  -2.397  -1.157  0.00  0.00    +0.024 A 
ATOM      5  C   UNL     1       0.540  -2.931  -0.004  0.00  0.00    +0.044 A 
ATOM      6  C   UNL     1       0.824  -2.337   1.232  0.00  0.00    +0.042 A 
ATOM      7  C   UNL     1       1.664  -1.231   1.304  0.00  0.00    +0.032 A 
ATOM      8 BR   UNL     1       2.048  -0.438   2.978  0.00  0.00    -0.049 Br
ATOM      9  C   UNL     1       0.086  -3.119   2.251  0.00  0.00    +0.154 C 
ATOM     10  N   UNL     1       0.060  -2.918   3.546  0.00  0.00    -0.174 NA
ATOM     11  C   UNL     1      -0.613  -4.174   1.490  0.00  0.00    +0.269 C 
ATOM     12  O   UNL     1      -1.335  -5.035   1.956  0.00  0.00    -0.268 OA
ATOM     13  N   UNL     1      -0.311  -4.013   0.190  0.00  0.00    -0.280 N 
ATOM     14  H   UNL     1      -0.646  -4.580  -0.523  0.00  0.00    +0.155 HD
ENDROOT
BRANCH  10  15
ATOM     15  N   UNL     1       0.149  -1.616   4.056  0.00  0.00    -0.203 N 
ATOM     16  C   UNL     1       0.254  -1.418   5.385  0.00  0.00    +0.270 C 
ATOM     17  O   UNL     1       0.272  -2.367   6.139  0.00  0.00    -0.270 OA
ATOM     18  H   UNL     1       0.136  -0.857   3.452  0.00  0.00    +0.177 HD
BRANCH  16  19
ATOM     19  C   UNL     1       0.350  -0.018   5.932  0.00  0.00    +0.326 C 
BRANCH  19  20
ATOM     20  O   UNL     1       0.453  -0.069   7.357  0.00  0.00    -0.482 OA
BRANCH  20  21
ATOM     21  C   UNL     1       0.548   1.118   8.012  0.00  0.00    +0.124 A 
ATOM     22  C   UNL     1       0.538   2.308   7.298  0.00  0.00    +0.047 A 
ATOM     23  C   UNL     1       0.635   3.513   7.966  0.00  0.00    +0.023 A 
ATOM     24  C   UNL     1       0.743   3.534   9.345  0.00  0.00    +0.041 A 
ATOM     25  C   UNL     1       0.753   2.349  10.059  0.00  0.00    +0.027 A 
ATOM     26  C   UNL     1       0.650   1.141   9.395  0.00  0.00    -0.007 A 
ATOM     27  C   UNL     1       0.654  -0.149  10.173  0.00  0.00    +0.047 C 
ATOM     28 CL   UNL     1       0.865   5.050  10.182  0.00  0.00    -0.084 Cl
ENDBRANCH  20  21
ENDBRANCH  19  20
ENDBRANCH  16  19
ENDBRANCH  10  15
TORSDOF 4
