REMARK  Name = ZINC00187050
REMARK  3 active torsions:
REMARK  status: ('A' for Active; 'I' for Inactive)
REMARK    1  A    between atoms: C_1  and  C_2
REMARK    2  A    between atoms: C_3  and  C_17
REMARK    3  A    between atoms: C_4  and  C_10
REMARK                            x       y       z     vdW  Elec       q    Type
REMARK                         _______ _______ _______ _____ _____    ______ ____
ROOT
ATOM      1  C   UNL     1       0.649   1.410   0.165  0.00  0.00    +0.061 C 
ATOM      2  C   UNL     1       0.345  -0.064   0.095  0.00  0.00    +0.019 C 
ATOM      3  C   UNL     1      -0.937  -0.474   0.004  0.00  0.00    +0.055 C 
ATOM      4  C   UNL     1      -1.199  -1.965  -0.065  0.00  0.00    +0.142 C 
ATOM      5  N   UNL     1      -0.023  -2.851  -0.028  0.00  0.00    -0.288 N 
ATOM      6  C   UNL     1       1.199  -2.291   0.065  0.00  0.00    +0.304 C 
ATOM      7  O   UNL     1       2.176  -3.014   0.097  0.00  0.00    -0.252 OA
ATOM      8  N   UNL     1       1.373  -0.965   0.118  0.00  0.00    -0.273 N 
ATOM      9  H   UNL     1      -0.127  -3.814  -0.068  0.00  0.00    +0.151 HD
ATOM     10  H   UNL     1       2.279  -0.624   0.180  0.00  0.00    +0.156 HD
ENDROOT
BRANCH   4  11
ATOM     11  C   UNL     1      -1.951  -2.246  -1.341  0.00  0.00    -0.022 A 
ATOM     12  C   UNL     1      -1.289  -2.212  -2.554  0.00  0.00    +0.007 A 
ATOM     13  C   UNL     1      -1.978  -2.470  -3.725  0.00  0.00    +0.020 A 
ATOM     14  C   UNL     1      -3.330  -2.761  -3.681  0.00  0.00    +0.041 A 
ATOM     15  C   UNL     1      -3.991  -2.795  -2.466  0.00  0.00    +0.020 A 
ATOM     16  C   UNL     1      -3.300  -2.542  -1.296  0.00  0.00    +0.007 A 
ATOM     17 CL   UNL     1      -4.196  -3.084  -5.151  0.00  0.00    -0.084 Cl
ENDBRANCH   4  11
BRANCH   3  18
ATOM     18  C   UNL     1      -2.003   0.459  -0.025  0.00  0.00    +0.241 C 
ATOM     19  O   UNL     1      -2.678   0.645   0.971  0.00  0.00    -0.271 OA
ATOM     20  N   UNL     1      -2.272   1.141  -1.157  0.00  0.00    -0.326 N 
ATOM     21  H   UNL     1      -1.783   0.941  -1.971  0.00  0.00    +0.145 HD
ATOM     22  H   UNL     1      -2.953   1.831  -1.157  0.00  0.00    +0.145 HD
ENDBRANCH   3  18
TORSDOF 2
