REMARK  Name = ZINC09496008
REMARK  5 active torsions:
REMARK  status: ('A' for Active; 'I' for Inactive)
REMARK    1  A    between atoms: C_1  and  C_2
REMARK    2  A    between atoms: C_2  and  C_27
REMARK    3  A    between atoms: C_6  and  C_16
REMARK    4  A    between atoms: C_12  and  S_14
REMARK    5  A    between atoms: S_14  and  C_15
REMARK                            x       y       z     vdW  Elec       q    Type
REMARK                         _______ _______ _______ _____ _____    ______ ____
ROOT
ATOM      1  C   UNL     1      -0.019   1.526   0.010  0.00  0.00    +0.011 C 
ATOM      2  C   UNL     1       0.002  -0.004   0.002  0.00  0.00    -0.023 C 
ATOM      3  C   UNL     1       0.729  -0.499  -1.250  0.00  0.00    +0.060 C 
ATOM      4  C   UNL     1       2.158  -0.012  -1.230  0.00  0.00    +0.028 C 
ATOM      5  C   UNL     1       2.799   0.191  -0.022  0.00  0.00    +0.041 C 
ATOM      6  C   UNL     1       4.234   0.679  -0.058  0.00  0.00    +0.162 C 
ATOM      7  N   UNL     1       4.808   0.891  -1.392  0.00  0.00    -0.208 N 
ATOM      8  C   UNL     1       4.031   0.642  -2.497  0.00  0.00    +0.215 C 
ATOM      9  N   UNL     1       2.780   0.216  -2.377  0.00  0.00    -0.330 N 
ATOM     10  N   UNL     1       4.774   0.909  -3.578  0.00  0.00    -0.192 NA
ATOM     11  C   UNL     1       5.980   1.313  -3.219  0.00  0.00    +0.174 C 
ATOM     12  N   UNL     1       6.055   1.321  -1.853  0.00  0.00    -0.239 N 
ATOM     13  C   UNL     1       2.171  -0.035   1.192  0.00  0.00    +0.164 C 
ATOM     14  O   UNL     1       2.779   0.155   2.228  0.00  0.00    -0.292 OA
ATOM     15  C   UNL     1       0.743  -0.513   1.242  0.00  0.00    +0.086 C 
ATOM     16  C   UNL     1      -1.433  -0.536   0.008  0.00  0.00    +0.011 C 
ATOM     17  H   UNL     1       2.281   0.058  -3.194  0.00  0.00    +0.168 HD
ATOM     18  H   UNL     1       6.821   1.573  -1.313  0.00  0.00    +0.172 HD
ENDROOT
BRANCH   6  19
ATOM     19  C   UNL     1       5.091  -0.330   0.663  0.00  0.00    -0.020 A 
ATOM     20  C   UNL     1       5.492  -1.484   0.016  0.00  0.00    +0.009 A 
ATOM     21  C   UNL     1       6.279  -2.409   0.676  0.00  0.00    +0.040 A 
ATOM     22  C   UNL     1       6.665  -2.180   1.986  0.00  0.00    +0.137 A 
ATOM     23  C   UNL     1       6.263  -1.024   2.633  0.00  0.00    +0.053 A 
ATOM     24  C   UNL     1       5.481  -0.097   1.969  0.00  0.00    +0.024 A 
ATOM     25 BR   UNL     1       6.790  -0.709   4.422  0.00  0.00    -0.047 Br
ATOM     26  F   UNL     1       7.434  -3.085   2.631  0.00  0.00    -0.204 F 
ENDBRANCH   6  19
BRANCH  11  27
ATOM     27  S   UNL     1       7.279   1.769  -4.319  0.00  0.00    -0.092 S 
ATOM     28  C   UNL     1       6.556   1.545  -5.968  0.00  0.00    +0.093 C 
ENDBRANCH  11  27
TORSDOF 2
