REMARK  Name = ZINC44374412
REMARK  7 active torsions:
REMARK  status: ('A' for Active; 'I' for Inactive)
REMARK    1  A    between atoms: C_1  and  C_2
REMARK    2  A    between atoms: C_2  and  C_20
REMARK    3  A    between atoms: C_4  and  N_6
REMARK    4  A    between atoms: N_6  and  S_7
REMARK    5  A    between atoms: S_7  and  C_10
REMARK    6  A    between atoms: C_14  and  S_16
REMARK    7  A    between atoms: S_16  and  N_19
REMARK                            x       y       z     vdW  Elec       q    Type
REMARK                         _______ _______ _______ _____ _____    ______ ____
ROOT
ATOM      1  C   UNL     1      -0.827  -1.188   4.088  0.00  0.00    +0.107 A 
ATOM      2  C   UNL     1      -0.271  -0.014   4.560  0.00  0.00    +0.028 A 
ATOM      3  C   UNL     1      -1.059   0.907   5.224  0.00  0.00    +0.004 A 
ATOM      4  C   UNL     1      -2.405   0.653   5.417  0.00  0.00    +0.028 A 
ATOM      5  C   UNL     1      -2.961  -0.521   4.945  0.00  0.00    +0.107 A 
ATOM      6  C   UNL     1      -2.174  -1.440   4.277  0.00  0.00    +0.057 A 
ENDROOT
BRANCH   1   7
ATOM      7  S   UNL     1       0.178  -2.362   3.241  0.00  0.00    +0.059 S 
ATOM      8  O   UNL     1      -0.468  -3.621   3.375  0.00  0.00    -0.153 OA
ATOM      9  O   UNL     1       1.513  -2.141   3.675  0.00  0.00    -0.153 OA
BRANCH   7  10
ATOM     10  N   UNL     1       0.132  -1.975   1.632  0.00  0.00    -0.186 NA
ATOM     11  H   UNL     1      -0.272  -2.587   0.997  0.00  0.00    +0.148 HD
BRANCH  10  15
ATOM     12  C   UNL     1      -0.019   1.526   0.010  0.00  0.00    +0.012 C 
ATOM     13  C   UNL     1       0.002  -0.004   0.002  0.00  0.00    -0.016 C 
ATOM     14  C   UNL     1       1.351  -0.691  -0.218  0.00  0.00    +0.029 C 
ATOM     15  C   UNL     1       0.701  -0.708   1.167  0.00  0.00    +0.083 C 
ATOM     16  C   UNL     1      -1.239  -0.678  -0.588  0.00  0.00    +0.012 C 
ENDBRANCH  10  15
ENDBRANCH   7  10
ENDBRANCH   1   7
BRANCH   5  17
ATOM     17  S   UNL     1      -4.676  -0.844   5.191  0.00  0.00    +0.056 S 
ATOM     18  O   UNL     1      -4.835  -2.255   5.135  0.00  0.00    -0.153 OA
ATOM     19  O   UNL     1      -5.076  -0.076   6.318  0.00  0.00    -0.153 OA
BRANCH  17  20
ATOM     20  N   UNL     1      -5.483  -0.224   3.885  0.00  0.00    -0.204 NA
ATOM     21  H   UNL     1      -4.991   0.216   3.175  0.00  0.00    +0.144 HD
ATOM     22  H   UNL     1      -6.449  -0.301   3.830  0.00  0.00    +0.144 HD
ENDBRANCH  17  20
ENDBRANCH   5  17
TORSDOF 5
