REMARK  Name = ZINC64562376
REMARK  8 active torsions:
REMARK  status: ('A' for Active; 'I' for Inactive)
REMARK    1  A    between atoms: C_1  and  C_2
REMARK    2  A    between atoms: C_4  and  C_28
REMARK    3  A    between atoms: C_5  and  N_9
REMARK    4  A    between atoms: C_6  and  C_8
REMARK    5  A    between atoms: C_10  and  C_12
REMARK    6  A    between atoms: C_12  and  N_13
REMARK    7  A    between atoms: N_16  and  C_17
REMARK    8  A    between atoms: N_26  and  C_27
REMARK                            x       y       z     vdW  Elec       q    Type
REMARK                         _______ _______ _______ _____ _____    ______ ____
ROOT
ATOM      1  N   UNL     1       0.833  -6.970   2.264  0.00  0.00    -0.291 N 
ATOM      2  C   UNL     1       0.949  -8.298   2.456  0.00  0.00    +0.304 C 
ATOM      3  O   UNL     1       0.673  -9.070   1.558  0.00  0.00    -0.252 OA
ATOM      4  N   UNL     1       1.371  -8.773   3.645  0.00  0.00    -0.269 N 
ATOM      5  H   UNL     1       1.053  -6.354   2.981  0.00  0.00    +0.151 HD
ATOM      6  H   UNL     1       1.655  -8.158   4.340  0.00  0.00    +0.156 HD
ENDROOT
BRANCH   4   7
ATOM      7  C   UNL     1       1.399 -10.155   3.879  0.00  0.00    +0.035 A 
ATOM      8  C   UNL     1       1.724 -11.026   2.848  0.00  0.00    +0.025 A 
ATOM      9  C   UNL     1       1.749 -12.386   3.082  0.00  0.00    +0.025 A 
ATOM     10  C   UNL     1       1.451 -12.883   4.345  0.00  0.00    +0.033 A 
ATOM     11  C   UNL     1       1.129 -12.015   5.377  0.00  0.00    -0.025 A 
ATOM     12  C   UNL     1       1.107 -10.650   5.141  0.00  0.00    +0.028 A 
ATOM     13  C   UNL     1       0.811 -12.519   6.760  0.00  0.00    +0.038 C 
ATOM     14  C   UNL     1       0.399 -13.990   6.712  0.00  0.00    +0.024 C 
ATOM     15  C   UNL     1       1.462 -14.778   5.934  0.00  0.00    +0.105 C 
ATOM     16  N   UNL     1       1.478 -14.269   4.556  0.00  0.00    -0.333 N 
ATOM     17  C   UNL     1       1.523 -15.194   3.421  0.00  0.00    +0.129 C 
ENDBRANCH   4   7
BRANCH   1  18
ATOM     18  C   UNL     1       0.374  -6.454   0.971  0.00  0.00    +0.202 C 
BRANCH  18  20
ATOM     19  N   UNL     1      -0.063  -4.252  -0.067  0.00  0.00    -0.284 N 
ATOM     20  C   UNL     1       0.332  -4.949   1.017  0.00  0.00    +0.234 C 
ATOM     21  O   UNL     1       0.654  -4.364   2.030  0.00  0.00    -0.274 OA
ATOM     22  H   UNL     1      -0.397  -4.720  -0.849  0.00  0.00    +0.155 HD
BRANCH  19  27
ATOM     23  C   UNL     1       0.229   1.414  -0.061  0.00  0.00    +0.044 C 
ATOM     24  C   UNL     1       0.151  -0.091  -0.063  0.00  0.00    -0.050 A 
ATOM     25  C   UNL     1       0.805  -0.815  -1.044  0.00  0.00    +0.008 A 
ATOM     26  C   UNL     1       0.736  -2.194  -1.048  0.00  0.00    -0.029 A 
ATOM     27  C   UNL     1       0.009  -2.855  -0.066  0.00  0.00    +0.039 A 
ATOM     28  C   UNL     1      -0.645  -2.125   0.918  0.00  0.00    -0.029 A 
ATOM     29  C   UNL     1      -0.568  -0.746   0.920  0.00  0.00    +0.008 A 
ATOM     30  C   UNL     1      -1.435  -2.838   1.986  0.00  0.00    +0.045 C 
ATOM     31  C   UNL     1       1.447  -2.982  -2.118  0.00  0.00    +0.045 C 
ENDBRANCH  19  27
ENDBRANCH  18  20
ENDBRANCH   1  18
TORSDOF 4
