REMARK  Name = ZINC03521240
REMARK  4 active torsions:
REMARK  status: ('A' for Active; 'I' for Inactive)
REMARK    1  A    between atoms: C_1  and  C_2
REMARK    2  A    between atoms: C_2  and  C_4
REMARK    3  A    between atoms: C_2  and  O_10
REMARK    4  A    between atoms: O_10  and  C_11
REMARK                            x       y       z     vdW  Elec       q    Type
REMARK                         _______ _______ _______ _____ _____    ______ ____
ROOT
ATOM      1  C   UNL     1       3.052  -3.011   1.242  0.00  0.00    +0.062 C 
ATOM      2  C   UNL     1       2.513  -2.668  -0.148  0.00  0.00    +0.256 C 
ENDROOT
BRANCH   2   3
ATOM      3  C   UNL     1       2.373  -3.930  -0.959  0.00  0.00    +0.261 C 
ATOM      4  O   UNL     1       1.288  -4.260  -1.386  0.00  0.00    -0.271 OA
ATOM      5  N   UNL     1       3.456  -4.693  -1.209  0.00  0.00    -0.237 N 
ATOM      6  C   UNL     1       3.331  -5.823  -1.934  0.00  0.00    +0.303 C 
ATOM      7  O   UNL     1       2.243  -6.153  -2.362  0.00  0.00    -0.253 OA
ATOM      8  N   UNL     1       4.413  -6.586  -2.184  0.00  0.00    -0.313 N 
ATOM      9  H   UNL     1       4.324  -4.430  -0.867  0.00  0.00    +0.159 HD
ATOM     10  H   UNL     1       5.282  -6.322  -1.842  0.00  0.00    +0.146 HD
ATOM     11  H   UNL     1       4.324  -7.399  -2.706  0.00  0.00    +0.146 HD
ENDBRANCH   2   3
BRANCH   2  12
ATOM     12  O   UNL     1       1.235  -2.039  -0.021  0.00  0.00    -0.478 OA
BRANCH  12  13
ATOM     13  C   UNL     1       1.226  -0.698   0.200  0.00  0.00    +0.140 A 
ATOM     14  C   UNL     1       2.419  -0.020   0.405  0.00  0.00    +0.048 A 
ATOM     15  C   UNL     1       2.408   1.343   0.629  0.00  0.00    +0.019 A 
ATOM     16  C   UNL     1       1.209   2.032   0.650  0.00  0.00    +0.019 A 
ATOM     17  C   UNL     1       0.018   1.359   0.445  0.00  0.00    +0.039 A 
ATOM     18  C   UNL     1       0.024  -0.005   0.221  0.00  0.00    +0.084 A 
ATOM     19 CL   UNL     1      -1.470  -0.850  -0.036  0.00  0.00    -0.080 Cl
ATOM     20 BR   UNL     1       1.198   3.898   0.957  0.00  0.00    -0.050 Br
ENDBRANCH  12  13
ENDBRANCH   2  12
TORSDOF 3
