REMARK  Name = ZINC40781295
REMARK  6 active torsions:
REMARK  status: ('A' for Active; 'I' for Inactive)
REMARK    1  A    between atoms: C_1  and  C_2
REMARK    2  A    between atoms: C_5  and  C_8
REMARK    3  A    between atoms: C_8  and  N_9
REMARK    4  A    between atoms: C_11  and  N_24
REMARK    5  A    between atoms: C_12  and  N_16
REMARK    6  A    between atoms: N_16  and  C_17
REMARK                            x       y       z     vdW  Elec       q    Type
REMARK                         _______ _______ _______ _____ _____    ______ ____
ROOT
ATOM      1  N   UNL     1       1.512  -4.809  -0.988  0.00  0.00    -0.323 N 
ATOM      2  C   UNL     1       1.765  -6.154  -0.749  0.00  0.00    +0.145 A 
ATOM      3  C   UNL     1       3.069  -6.601  -0.523  0.00  0.00    +0.105 A 
ATOM      4  C   UNL     1       3.268  -7.962  -0.287  0.00  0.00    +0.149 A 
ATOM      5  N   UNL     1       2.216  -8.777  -0.287  0.00  0.00    -0.219 NA
ATOM      6  C   UNL     1       1.001  -8.315  -0.504  0.00  0.00    +0.225 A 
ATOM      7  N   UNL     1       0.769  -7.036  -0.725  0.00  0.00    -0.219 NA
ATOM      8  H   UNL     1       2.244  -4.173  -1.003  0.00  0.00    +0.148 HD
ENDROOT
BRANCH   3   9
ATOM      9  N   UNL     1       4.150  -5.705  -0.534  0.00  0.00    -0.353 N 
ATOM     10  H   UNL     1       3.997  -4.761  -0.699  0.00  0.00    +0.143 HD
ATOM     11  H   UNL     1       5.051  -6.029  -0.376  0.00  0.00    +0.143 HD
ENDBRANCH   3   9
BRANCH   4  12
ATOM     12  N   UNL     1       4.546  -8.459  -0.058  0.00  0.00    -0.297 N 
ATOM     13  H   UNL     1       5.295  -7.849   0.035  0.00  0.00    +0.154 HD
BRANCH  12  14
ATOM     14  C   UNL     1       4.753  -9.839   0.039  0.00  0.00    +0.051 A 
ATOM     15  C   UNL     1       3.859 -10.720  -0.556  0.00  0.00    +0.025 A 
ATOM     16  C   UNL     1       4.066 -12.082  -0.459  0.00  0.00    +0.002 A 
ATOM     17  C   UNL     1       5.161 -12.569   0.231  0.00  0.00    +0.002 A 
ATOM     18  C   UNL     1       6.053 -11.696   0.825  0.00  0.00    +0.022 A 
ATOM     19  C   UNL     1       5.855 -10.331   0.727  0.00  0.00    +0.062 A 
ATOM     20 CL   UNL     1       6.979  -9.235   1.467  0.00  0.00    -0.082 Cl
ENDBRANCH  12  14
ENDBRANCH   4  12
BRANCH   1  21
ATOM     21  C   UNL     1       0.139  -4.352  -1.217  0.00  0.00    +0.138 C 
BRANCH  21  26
ATOM     22  C   UNL     1       0.129   1.357  -2.110  0.00  0.00    +0.044 C 
ATOM     23  C   UNL     1       0.132  -0.132  -1.877  0.00  0.00    -0.050 A 
ATOM     24  C   UNL     1       0.269  -0.998  -2.945  0.00  0.00    +0.003 A 
ATOM     25  C   UNL     1       0.271  -2.364  -2.732  0.00  0.00    +0.005 A 
ATOM     26  C   UNL     1       0.137  -2.863  -1.450  0.00  0.00    -0.030 A 
ATOM     27  C   UNL     1       0.001  -1.997  -0.381  0.00  0.00    +0.005 A 
ATOM     28  C   UNL     1       0.003  -0.631  -0.594  0.00  0.00    +0.003 A 
ENDBRANCH  21  26
ENDBRANCH   1  21
TORSDOF 5
