REMARK  Name = ZINC33407305
REMARK  4 active torsions:
REMARK  status: ('A' for Active; 'I' for Inactive)
REMARK    1  A    between atoms: C_3  and  C_8
REMARK    2  A    between atoms: N_9  and  N_10
REMARK    3  A    between atoms: C_11  and  C_13
REMARK    4  A    between atoms: C_15  and  N_21
REMARK                            x       y       z     vdW  Elec       q    Type
REMARK                         _______ _______ _______ _____ _____    ______ ____
ROOT
ATOM      1  N   UNL     1      -2.537   4.101   0.036  0.00  0.00    -0.202 N 
ATOM      2  C   UNL     1      -2.552   5.449   0.044  0.00  0.00    +0.283 C 
ATOM      3  O   UNL     1      -1.506   6.068   0.042  0.00  0.00    -0.267 OA
ATOM      4  H   UNL     1      -3.484   3.541   0.038  0.00  0.00    +0.178 HD
ENDROOT
BRANCH   2   5
ATOM      5  C   UNL     1      -3.841   6.174   0.054  0.00  0.00    +0.149 A 
ATOM      6  C   UNL     1      -3.849   7.566   0.067  0.00  0.00    +0.094 A 
ATOM      7  C   UNL     1      -5.073   8.236   0.071  0.00  0.00    +0.067 A 
ATOM      8  C   UNL     1      -6.242   7.476   0.073  0.00  0.00    +0.100 A 
ATOM      9  C   UNL     1      -6.152   6.094   0.065  0.00  0.00    +0.150 A 
ATOM     10  N   UNL     1      -4.981   5.491   0.056  0.00  0.00    -0.228 NA
ATOM     11 CL   UNL     1      -7.604   5.142   0.066  0.00  0.00    -0.060 Cl
ATOM     12 CL   UNL     1      -7.794   8.255   0.085  0.00  0.00    -0.078 Cl
ATOM     13 CL   UNL     1      -2.358   8.456   0.072  0.00  0.00    -0.079 Cl
BRANCH   7  14
ATOM     14  N   UNL     1      -5.126   9.628   0.079  0.00  0.00    -0.356 N 
ATOM     15  H   UNL     1      -6.098  10.142   0.082  0.00  0.00    +0.142 HD
ATOM     16  H   UNL     1      -4.194  10.214   0.082  0.00  0.00    +0.142 HD
ENDBRANCH   7  14
ENDBRANCH   2   5
BRANCH   1  18
ATOM     17  C   UNL     1      -1.302   2.116   0.020  0.00  0.00    +0.138 C 
ATOM     18  N   UNL     1      -1.316   3.414   0.027  0.00  0.00    -0.187 NA
BRANCH  17  21
ATOM     19  C   UNL     1       1.208  -0.675  -0.013  0.00  0.00    +0.002 A 
ATOM     20  C   UNL     1       0.002  -0.004   0.002  0.00  0.00    +0.009 A 
ATOM     21  C   UNL     1      -0.017   1.393   0.010  0.00  0.00    -0.004 A 
ATOM     22  C   UNL     1       1.187   2.101   0.002  0.00  0.00    +0.024 A 
ATOM     23  C   UNL     1       2.386   1.417  -0.014  0.00  0.00    +0.018 A 
ATOM     24  C   UNL     1       2.397   0.033  -0.021  0.00  0.00    +0.015 A 
ATOM     25 BR   UNL     1       4.017   2.374  -0.026  0.00  0.00    -0.050 Br
ENDBRANCH  17  21
ENDBRANCH   1  18
TORSDOF 4
