REMARK  Name = ZINC03861733
REMARK  7 active torsions:
REMARK  status: ('A' for Active; 'I' for Inactive)
REMARK    1  A    between atoms: C_1  and  C_2
REMARK    2  A    between atoms: N_4  and  C_5
REMARK    3  A    between atoms: C_7  and  O_20
REMARK    4  A    between atoms: C_9  and  O_19
REMARK    5  A    between atoms: C_11  and  C_17
REMARK    6  A    between atoms: C_14  and  O_16
REMARK    7  A    between atoms: C_17  and  O_18
REMARK                            x       y       z     vdW  Elec       q    Type
REMARK                         _______ _______ _______ _____ _____    ______ ____
ROOT
ATOM      1  C   UNL     1       1.694   5.627   1.259  0.00  0.00    +0.160 C 
ATOM      2  C   UNL     1       2.385   5.251  -0.056  0.00  0.00    +0.171 C 
ATOM      3  C   UNL     1       2.528   3.727  -0.126  0.00  0.00    +0.176 C 
ATOM      4  C   UNL     1       1.145   3.085   0.008  0.00  0.00    +0.178 C 
ATOM      5  O   UNL     1       0.546   3.501   1.237  0.00  0.00    -0.341 OA
ATOM      6  C   UNL     1       0.343   4.911   1.340  0.00  0.00    +0.270 C 
ENDROOT
BRANCH   1  10
ATOM      7  C   UNL     1       1.153   9.194   2.539  0.00  0.00    +0.109 C 
ATOM      8  C   UNL     1       1.369   7.703   2.492  0.00  0.00    +0.210 C 
ATOM      9  O   UNL     1       1.440   7.068   3.523  0.00  0.00    -0.276 OA
ATOM     10  N   UNL     1       1.484   7.076   1.305  0.00  0.00    -0.305 N 
ATOM     11  H   UNL     1       1.428   7.584   0.480  0.00  0.00    +0.149 HD
ENDBRANCH   1  10
BRANCH   6  12
ATOM     12  O   UNL     1      -0.283   5.213   2.588  0.00  0.00    -0.365 OA
ATOM     13  H   UNL     1      -1.145   4.792   2.709  0.00  0.00    +0.213 HD
ENDBRANCH   6  12
BRANCH   3  14
ATOM     14  O   UNL     1       3.369   3.277   0.938  0.00  0.00    -0.387 OA
ATOM     15  H   UNL     1       3.500   2.319   0.957  0.00  0.00    +0.210 HD
ENDBRANCH   3  14
BRANCH   2  16
ATOM     16  O   UNL     1       3.678   5.856  -0.106  0.00  0.00    -0.387 OA
ATOM     17  H   UNL     1       4.173   5.659  -0.914  0.00  0.00    +0.210 HD
ENDBRANCH   2  16
BRANCH   4  18
ATOM     18  C   UNL     1       1.286   1.562  -0.002  0.00  0.00    +0.190 C 
BRANCH  18  19
ATOM     19  O   UNL     1      -0.011   0.963   0.007  0.00  0.00    -0.392 OA
ATOM     20  H   UNL     1       0.002  -0.004   0.002  0.00  0.00    +0.210 HD
ENDBRANCH  18  19
ENDBRANCH   4  18
TORSDOF 6
