REMARK  Name = ZINC37620425
REMARK  10 active torsions:
REMARK  status: ('A' for Active; 'I' for Inactive)
REMARK    1  A    between atoms: C_1  and  C_2
REMARK    2  A    between atoms: C_2  and  C_3
REMARK    3  A    between atoms: C_3  and  C_4
REMARK    4  A    between atoms: C_4  and  C_5
REMARK    5  A    between atoms: C_5  and  C_7
REMARK    6  A    between atoms: C_5  and  N_22
REMARK    7  A    between atoms: N_9  and  C_10
REMARK    8  A    between atoms: C_13  and  N_17
REMARK    9  A    between atoms: N_17  and  S_18
REMARK   10  A    between atoms: S_18  and  C_21
REMARK                            x       y       z     vdW  Elec       q    Type
REMARK                         _______ _______ _______ _____ _____    ______ ____
ROOT
ATOM      1  C   UNL     1      -2.737  -4.100   0.126  0.00  0.00    +0.203 C 
ATOM      2  O   UNL     1      -2.817  -4.790  -0.868  0.00  0.00    -0.277 OA
ATOM      3  N   UNL     1      -2.637  -4.676   1.341  0.00  0.00    -0.287 N 
ATOM      4  H   UNL     1      -2.505  -4.126   2.129  0.00  0.00    +0.155 HD
ENDROOT
BRANCH   3   5
ATOM      5  C   UNL     1      -2.724  -6.069   1.464  0.00  0.00    +0.035 A 
ATOM      6  C   UNL     1      -3.337  -6.631   2.576  0.00  0.00    +0.025 A 
ATOM      7  C   UNL     1      -3.423  -8.003   2.699  0.00  0.00    +0.028 A 
ATOM      8  C   UNL     1      -2.895  -8.823   1.710  0.00  0.00    +0.066 A 
ATOM      9  C   UNL     1      -2.281  -8.262   0.597  0.00  0.00    +0.065 A 
ATOM     10  C   UNL     1      -2.201  -6.888   0.472  0.00  0.00    +0.045 A 
ATOM     11 CL   UNL     1      -1.620  -9.286  -0.639  0.00  0.00    -0.082 Cl
BRANCH   8  12
ATOM     12  N   UNL     1      -2.981 -10.214   1.835  0.00  0.00    -0.219 N 
ATOM     13  H   UNL     1      -2.257 -10.776   1.514  0.00  0.00    +0.173 HD
BRANCH  12  14
ATOM     14  S   UNL     1      -4.316 -10.903   2.531  0.00  0.00    +0.040 S 
ATOM     15  O   UNL     1      -4.108 -12.303   2.409  0.00  0.00    -0.155 OA
ATOM     16  O   UNL     1      -4.413 -10.293   3.811  0.00  0.00    -0.155 OA
ATOM     17  C   UNL     1      -5.706 -10.384   1.486  0.00  0.00    +0.218 C 
ENDBRANCH  12  14
ENDBRANCH   8  12
ENDBRANCH   3   5
BRANCH   1  18
ATOM     18  C   UNL     1      -2.748  -2.598   0.004  0.00  0.00    +0.013 C 
BRANCH  18  19
ATOM     19  N   UNL     1      -3.329  -2.216  -1.290  0.00  0.00    +0.386 N 
ATOM     20  H   UNL     1      -2.777  -2.611  -2.037  0.00  0.00    -0.089 HD
ATOM     21  H   UNL     1      -4.274  -2.566  -1.351  0.00  0.00    -0.089 HD
ATOM     22  H   UNL     1      -3.337  -1.211  -1.372  0.00  0.00    -0.089 HD
ENDBRANCH  18  19
BRANCH  18  23
ATOM     23  C   UNL     1      -1.316  -2.068   0.095  0.00  0.00    -0.007 C 
BRANCH  23  24
ATOM     24  C   UNL     1      -1.337  -0.538   0.096  0.00  0.00    -0.001 C 
BRANCH  24  26
ATOM     25  C   UNL     1       0.074   1.522   0.188  0.00  0.00    +0.004 C 
ATOM     26  C   UNL     1       0.096  -0.008   0.187  0.00  0.00    -0.003 C 
ENDBRANCH  24  26
ENDBRANCH  23  24
ENDBRANCH  18  23
ENDBRANCH   1  18
TORSDOF 8
