REMARK  Name = ZINC61689099
REMARK  7 active torsions:
REMARK  status: ('A' for Active; 'I' for Inactive)
REMARK    1  A    between atoms: C_1  and  C_2
REMARK    2  A    between atoms: C_3  and  C_16
REMARK    3  A    between atoms: C_4  and  N_14
REMARK    4  A    between atoms: C_6  and  C_8
REMARK    5  A    between atoms: N_14  and  N_15
REMARK    6  A    between atoms: C_16  and  C_17
REMARK    7  A    between atoms: C_16  and  C_18
REMARK                            x       y       z     vdW  Elec       q    Type
REMARK                         _______ _______ _______ _____ _____    ______ ____
ROOT
ATOM      1  C   UNL     1      -0.453   1.503  -0.167  0.00  0.00    +0.066 C 
ATOM      2  C   UNL     1      -0.277   0.010  -0.060  0.00  0.00    +0.047 A 
ATOM      3  C   UNL     1      -0.116  -0.757  -1.198  0.00  0.00    +0.017 A 
ATOM      4  C   UNL     1       0.045  -2.138  -1.056  0.00  0.00    +0.140 A 
ATOM      5  N   UNL     1       0.038  -2.666   0.163  0.00  0.00    -0.211 NA
ATOM      6  C   UNL     1      -0.119  -1.894   1.233  0.00  0.00    +0.169 A 
ATOM      7  N   UNL     1      -0.269  -0.579   1.126  0.00  0.00    -0.232 NA
ENDROOT
BRANCH   6   8
ATOM      8  C   UNL     1      -0.121  -2.513   2.572  0.00  0.00    +0.057 A 
ATOM      9  C   UNL     1       0.026  -3.832   2.915  0.00  0.00    +0.034 A 
ATOM     10  C   UNL     1      -0.010  -4.178   4.246  0.00  0.00    +0.026 A 
ATOM     11  C   UNL     1      -0.191  -3.204   5.179  0.00  0.00    +0.061 A 
ATOM     12  S   UNL     1      -0.310  -1.737   4.169  0.00  0.00    -0.092 S 
ATOM     13 BR   UNL     1       0.187  -5.983   4.772  0.00  0.00    -0.050 Br
ENDBRANCH   6   8
BRANCH   3  14
ATOM     14  C   UNL     1      -0.115  -0.118  -2.563  0.00  0.00    +0.018 C 
ATOM     15  C   UNL     1       1.240  -0.352  -3.234  0.00  0.00    +0.012 C 
ATOM     16  C   UNL     1      -1.221  -0.740  -3.418  0.00  0.00    +0.012 C 
ENDBRANCH   3  14
BRANCH   4  17
ATOM     17  N   UNL     1       0.209  -2.945  -2.170  0.00  0.00    -0.267 N 
ATOM     18  H   UNL     1       0.315  -2.544  -3.047  0.00  0.00    +0.167 HD
BRANCH  17  19
ATOM     19  N   UNL     1       0.221  -4.304  -2.034  0.00  0.00    -0.255 NA
ATOM     20  H   UNL     1      -0.619  -4.629  -1.580  0.00  0.00    +0.140 HD
ATOM     21  H   UNL     1       0.348  -4.756  -2.927  0.00  0.00    +0.140 HD
ENDBRANCH  17  19
ENDBRANCH   4  17
TORSDOF 4
