REMARK  Name = ZINC45605918
REMARK  9 active torsions:
REMARK  status: ('A' for Active; 'I' for Inactive)
REMARK    1  A    between atoms: C_1  and  C_2
REMARK    2  A    between atoms: C_2  and  C_4
REMARK    3  A    between atoms: C_2  and  N_14
REMARK    4  A    between atoms: N_10  and  C_11
REMARK    5  A    between atoms: N_10  and  C_12
REMARK    6  A    between atoms: N_17  and  C_20
REMARK    7  A    between atoms: C_20  and  C_21
REMARK    8  A    between atoms: N_23  and  C_24
REMARK    9  A    between atoms: C_28  and  C_30
REMARK                            x       y       z     vdW  Elec       q    Type
REMARK                         _______ _______ _______ _____ _____    ______ ____
ROOT
ATOM      1  N   UNL     1      -1.614   0.057   0.132  0.00  0.00    -0.296 NA
ATOM      2  C   UNL     1      -2.472   0.517   1.234  0.00  0.00    +0.066 C 
ATOM      3  C   UNL     1      -3.764  -0.303   1.247  0.00  0.00    -0.063 C 
ATOM      4  N   UNL     1      -4.459  -0.144  -0.037  0.00  0.00    +0.387 N 
ATOM      5  C   UNL     1      -3.599  -0.630  -1.124  0.00  0.00    -0.063 C 
ATOM      6  C   UNL     1      -2.306   0.187  -1.158  0.00  0.00    +0.066 C 
ATOM      7  H   UNL     1      -4.670   0.832  -0.186  0.00  0.00    -0.081 HD
ENDROOT
BRANCH   1   9
ATOM      8  C   UNL     1       0.403   0.534   1.437  0.00  0.00    +0.032 C 
ATOM      9  C   UNL     1      -0.337   0.782   0.121  0.00  0.00    +0.122 C 
BRANCH   9  10
ATOM     10  C   UNL     1       0.507   0.296  -1.029  0.00  0.00    +0.153 A 
ATOM     11  N   UNL     1       0.641  -1.000  -1.246  0.00  0.00    -0.198 NA
ATOM     12  C   UNL     1       1.385  -1.434  -2.261  0.00  0.00    +0.217 A 
ATOM     13  N   UNL     1       1.993  -0.561  -3.057  0.00  0.00    -0.181 NA
ATOM     14  C   UNL     1       1.856   0.742  -2.836  0.00  0.00    +0.222 A 
ATOM     15  N   UNL     1       1.106   1.168  -1.822  0.00  0.00    -0.198 NA
ATOM     16  N   UNL     1       2.486   1.653  -3.659  0.00  0.00    -0.306 N 
ATOM     17  C   UNL     1       3.307   1.183  -4.778  0.00  0.00    +0.132 C 
ATOM     18  C   UNL     1       2.334   3.089  -3.414  0.00  0.00    +0.132 C 
ATOM     19  N   UNL     1       1.525  -2.788  -2.486  0.00  0.00    -0.327 N 
ATOM     20  H   UNL     1       1.081  -3.425  -1.905  0.00  0.00    +0.145 HD
ATOM     21  H   UNL     1       2.067  -3.103  -3.226  0.00  0.00    +0.145 HD
ENDBRANCH   9  10
ENDBRANCH   1   9
BRANCH   4  22
ATOM     22  C   UNL     1      -5.708  -0.917  -0.017  0.00  0.00    +0.019 C 
BRANCH  22  23
ATOM     23  C   UNL     1      -6.480  -0.656  -1.284  0.00  0.00    +0.201 C 
ATOM     24  O   UNL     1      -6.034   0.099  -2.122  0.00  0.00    -0.278 OA
ATOM     25  N   UNL     1      -7.667  -1.262  -1.487  0.00  0.00    -0.287 N 
ATOM     26  H   UNL     1      -8.059  -1.807  -0.787  0.00  0.00    +0.155 HD
BRANCH  25  27
ATOM     27  C   UNL     1      -8.333  -1.106  -2.708  0.00  0.00    +0.034 A 
ATOM     28  C   UNL     1      -7.607  -0.970  -3.884  0.00  0.00    +0.025 A 
ATOM     29  C   UNL     1      -8.267  -0.816  -5.088  0.00  0.00    +0.022 A 
ATOM     30  C   UNL     1      -9.650  -0.796  -5.122  0.00  0.00    +0.053 A 
ATOM     31  C   UNL     1     -10.376  -0.931  -3.952  0.00  0.00    +0.075 A 
ATOM     32  C   UNL     1      -9.721  -1.092  -2.746  0.00  0.00    +0.037 A 
ATOM     33 CL   UNL     1     -10.476  -0.601  -6.636  0.00  0.00    -0.083 Cl
BRANCH  31  34
ATOM     34  C   UNL     1     -11.882  -0.909  -3.993  0.00  0.00    +0.419 C 
ATOM     35  F   UNL     1     -12.386  -1.062  -2.697  0.00  0.00    -0.166 F 
ATOM     36  F   UNL     1     -12.316   0.311  -4.521  0.00  0.00    -0.166 F 
ATOM     37  F   UNL     1     -12.342  -1.956  -4.799  0.00  0.00    -0.166 F 
ENDBRANCH  31  34
ENDBRANCH  25  27
ENDBRANCH  22  23
ENDBRANCH   4  22
TORSDOF 6
