REMARK  Name = ZINC66394988
REMARK  11 active torsions:
REMARK  status: ('A' for Active; 'I' for Inactive)
REMARK    1  A    between atoms: C_1  and  C_2
REMARK    2  A    between atoms: C_2  and  C_3
REMARK    3  A    between atoms: C_3  and  C_4
REMARK    4  A    between atoms: C_4  and  N_5
REMARK    5  A    between atoms: N_8  and  C_9
REMARK    6  A    between atoms: C_9  and  C_15
REMARK    7  A    between atoms: C_20  and  N_23
REMARK    8  A    between atoms: N_23  and  C_24
REMARK    9  A    between atoms: N_23  and  C_26
REMARK   10  A    between atoms: C_24  and  C_25
REMARK   11  A    between atoms: C_26  and  C_27
REMARK                            x       y       z     vdW  Elec       q    Type
REMARK                         _______ _______ _______ _____ _____    ______ ____
ROOT
ATOM      1  C   UNL     1       3.099  -5.417  -4.660  0.00  0.00    +0.112 C 
ATOM      2  C   UNL     1       1.766  -6.139  -4.864  0.00  0.00    +0.035 C 
ATOM      3  C   UNL     1       0.996  -5.477  -6.008  0.00  0.00    +0.003 C 
ATOM      4  C   UNL     1       1.822  -5.559  -7.293  0.00  0.00    +0.000 C 
ATOM      5  C   UNL     1       3.155  -4.837  -7.090  0.00  0.00    +0.003 C 
ATOM      6  C   UNL     1       3.925  -5.499  -5.946  0.00  0.00    +0.035 C 
ENDROOT
BRANCH   1   7
ATOM      7  C   UNL     1       3.857  -6.069  -3.533  0.00  0.00    +0.239 C 
ATOM      8  O   UNL     1       3.521  -7.162  -3.130  0.00  0.00    -0.273 OA
ATOM      9  N   UNL     1       4.908  -5.438  -2.974  0.00  0.00    -0.300 N 
ATOM     10  C   UNL     1       5.399  -4.168  -3.526  0.00  0.00    +0.106 C 
ATOM     11  C   UNL     1       5.447  -3.127  -2.403  0.00  0.00    +0.004 C 
ATOM     12  C   UNL     1       6.283  -3.673  -1.243  0.00  0.00    -0.066 C 
ATOM     13  C   UNL     1       5.630  -4.945  -0.696  0.00  0.00    +0.004 C 
ATOM     14  C   UNL     1       5.580  -6.003  -1.796  0.00  0.00    +0.106 C 
BRANCH  12  15
ATOM     15  N   UNL     1       6.359  -2.665  -0.177  0.00  0.00    +0.381 N 
ATOM     16  H   UNL     1       5.429  -2.450   0.150  0.00  0.00    -0.081 HD
BRANCH  15  17
ATOM     17  C   UNL     1       7.162  -3.189   0.936  0.00  0.00    -0.082 C 
ATOM     18  C   UNL     1       7.153  -2.182   2.088  0.00  0.00    -0.017 C 
ENDBRANCH  15  17
BRANCH  15  19
ATOM     19  C   UNL     1       6.987  -1.445  -0.702  0.00  0.00    -0.082 C 
ATOM     20  C   UNL     1       8.353  -1.790  -1.298  0.00  0.00    -0.017 C 
ENDBRANCH  15  19
ENDBRANCH  12  15
ENDBRANCH   1   7
BRANCH   1  24
ATOM     21  N   UNL     1       2.073  -2.397  -2.832  0.00  0.00    -0.299 N 
ATOM     22  C   UNL     1       2.217  -3.691  -3.183  0.00  0.00    +0.300 C 
ATOM     23  O   UNL     1       1.780  -4.568  -2.464  0.00  0.00    -0.253 OA
ATOM     24  N   UNL     1       2.847  -4.011  -4.331  0.00  0.00    -0.285 N 
ATOM     25  H   UNL     1       2.423  -1.698  -3.406  0.00  0.00    +0.150 HD
ATOM     26  H   UNL     1       3.134  -3.312  -4.939  0.00  0.00    +0.151 HD
BRANCH  21  27
ATOM     27  C   UNL     1       1.389  -2.049  -1.585  0.00  0.00    +0.106 C 
BRANCH  27  28
ATOM     28  C   UNL     1       1.362  -0.527  -1.426  0.00  0.00    +0.018 C 
BRANCH  28  30
ATOM     29  C   UNL     1       0.620   1.358   0.036  0.00  0.00    +0.004 C 
ATOM     30  C   UNL     1       0.647  -0.163  -0.123  0.00  0.00    -0.002 C 
ENDBRANCH  28  30
ENDBRANCH  27  28
ENDBRANCH  21  27
ENDBRANCH   1  24
TORSDOF 8
