REMARK  Name = ZINC22210706
REMARK  7 active torsions:
REMARK  status: ('A' for Active; 'I' for Inactive)
REMARK    1  A    between atoms: C_1  and  C_2
REMARK    2  A    between atoms: C_4  and  C_21
REMARK    3  A    between atoms: N_5  and  C_7
REMARK    4  A    between atoms: C_7  and  C_9
REMARK    5  A    between atoms: C_7  and  C_10
REMARK    6  A    between atoms: N_12  and  C_13
REMARK    7  A    between atoms: C_18  and  N_19
REMARK                            x       y       z     vdW  Elec       q    Type
REMARK                         _______ _______ _______ _____ _____    ______ ____
ROOT
ATOM      1  C   UNL     1       2.426  -0.242   0.081  0.00  0.00    +0.242 C 
ATOM      2  O   UNL     1       1.387  -0.867   0.088  0.00  0.00    -0.273 OA
ATOM      3  N   UNL     1       2.403   1.102  -0.014  0.00  0.00    -0.282 N 
ATOM      4  H   UNL     1       3.345   1.664  -0.094  0.00  0.00    +0.155 HD
ENDROOT
BRANCH   3   5
ATOM      5  C   UNL     1       1.178   1.784  -0.011  0.00  0.00    +0.054 A 
ATOM      6  C   UNL     1       0.064   1.215  -0.608  0.00  0.00    +0.026 A 
ATOM      7  C   UNL     1      -1.142   1.891  -0.608  0.00  0.00    +0.022 A 
ATOM      8  C   UNL     1      -1.244   3.131  -0.004  0.00  0.00    +0.043 A 
ATOM      9  C   UNL     1      -0.137   3.707   0.594  0.00  0.00    +0.044 A 
ATOM     10  C   UNL     1       1.077   3.037   0.593  0.00  0.00    +0.047 A 
ATOM     11 CL   UNL     1      -2.764   3.971  -0.002  0.00  0.00    -0.083 Cl
BRANCH  10  12
ATOM     12  N   UNL     1       2.198   3.617   1.198  0.00  0.00    -0.356 N 
ATOM     13  H   UNL     1       2.117   4.605   1.674  0.00  0.00    +0.142 HD
ATOM     14  H   UNL     1       3.160   3.084   1.197  0.00  0.00    +0.142 HD
ENDBRANCH  10  12
ENDBRANCH   3   5
BRANCH   1  15
ATOM     15  C   UNL     1       3.743  -0.968   0.179  0.00  0.00    +0.190 C 
ATOM     16  C   UNL     1       4.583  -0.671  -1.065  0.00  0.00    +0.042 C 
BRANCH  15  21
ATOM     17  C   UNL     1       2.208  -5.608  -0.961  0.00  0.00    +0.067 C 
ATOM     18  C   UNL     1       2.820  -4.431  -0.247  0.00  0.00    +0.060 A 
ATOM     19  C   UNL     1       3.464  -4.469   0.994  0.00  0.00    +0.047 A 
ATOM     20  C   UNL     1       3.878  -3.214   1.287  0.00  0.00    +0.037 A 
ATOM     21  N   UNL     1       3.501  -2.409   0.272  0.00  0.00    -0.257 N 
ATOM     22  N   UNL     1       2.841  -3.197  -0.681  0.00  0.00    -0.176 NA
ATOM     23  C   UNL     1       4.623  -2.791   2.527  0.00  0.00    +0.065 C 
ENDBRANCH  15  21
ENDBRANCH   1  15
TORSDOF 4
