REMARK  Name = ZINC00565205
REMARK  6 active torsions:
REMARK  status: ('A' for Active; 'I' for Inactive)
REMARK    1  A    between atoms: C_1  and  C_2
REMARK    2  A    between atoms: C_8  and  C_12
REMARK    3  A    between atoms: C_8  and  O_21
REMARK    4  A    between atoms: C_12  and  C_13
REMARK    5  A    between atoms: C_13  and  C_15
REMARK    6  A    between atoms: C_18  and  C_20
REMARK                            x       y       z     vdW  Elec       q    Type
REMARK                         _______ _______ _______ _____ _____    ______ ____
ROOT
ATOM      1  C   UNL     1      -4.287   4.679   0.064  0.00  0.00    +0.044 C 
ATOM      2  C   UNL     1      -3.194   3.642   0.050  0.00  0.00    -0.050 A 
ATOM      3  C   UNL     1      -3.515   2.296   0.046  0.00  0.00    +0.005 A 
ATOM      4  C   UNL     1      -2.519   1.342   0.032  0.00  0.00    +0.024 A 
ATOM      5  C   UNL     1      -1.180   1.728   0.017  0.00  0.00    +0.040 A 
ATOM      6  C   UNL     1      -0.871   3.082   0.026  0.00  0.00    +0.015 A 
ATOM      7  C   UNL     1      -1.866   4.033   0.040  0.00  0.00    +0.012 A 
ATOM      8  C   UNL     1       0.638   3.173   0.013  0.00  0.00    +0.175 C 
ATOM      9  C   UNL     1       1.094   1.730   0.001  0.00  0.00    +0.254 C 
ATOM     10  O   UNL     1       2.242   1.337  -0.012  0.00  0.00    -0.272 OA
ATOM     11  N   UNL     1      -0.011   0.966   0.007  0.00  0.00    -0.282 N 
ATOM     12  H   UNL     1       0.002  -0.004   0.002  0.00  0.00    +0.155 HD
ENDROOT
BRANCH   8  13
ATOM     13  O   UNL     1       1.088   3.850  -1.163  0.00  0.00    -0.374 OA
ATOM     14  H   UNL     1       2.050   3.885  -1.253  0.00  0.00    +0.211 HD
ENDBRANCH   8  13
BRANCH   8  15
ATOM     15  C   UNL     1       1.146   3.886   1.267  0.00  0.00    +0.132 C 
BRANCH  15  16
ATOM     16  C   UNL     1       2.653   3.880   1.273  0.00  0.00    +0.201 C 
ATOM     17  O   UNL     1       3.262   3.356   0.362  0.00  0.00    -0.289 OA
BRANCH  16  18
ATOM     18  C   UNL     1       3.358   4.484   2.339  0.00  0.00    +0.170 A 
ATOM     19  C   UNL     1       4.731   4.546   2.475  0.00  0.00    +0.053 A 
ATOM     20  C   UNL     1       4.982   5.232   3.671  0.00  0.00    +0.045 A 
ATOM     21  C   UNL     1       3.782   5.548   4.211  0.00  0.00    +0.103 A 
ATOM     22  O   UNL     1       2.810   5.097   3.409  0.00  0.00    -0.457 OA
ATOM     23  C   UNL     1       3.575   6.287   5.508  0.00  0.00    +0.086 C 
ENDBRANCH  16  18
ENDBRANCH  15  16
ENDBRANCH   8  15
TORSDOF 4
