REMARK  Name = ZINC63465994
REMARK  11 active torsions:
REMARK  status: ('A' for Active; 'I' for Inactive)
REMARK    1  A    between atoms: C_1  and  C_2
REMARK    2  A    between atoms: C_5  and  N_19
REMARK    3  A    between atoms: C_7  and  S_8
REMARK    4  A    between atoms: S_8  and  N_11
REMARK    5  A    between atoms: N_11  and  C_12
REMARK    6  A    between atoms: C_20  and  C_22
REMARK    7  A    between atoms: C_22  and  N_23
REMARK    8  A    between atoms: N_23  and  C_24
REMARK    9  A    between atoms: N_23  and  C_25
REMARK   10  A    between atoms: C_25  and  C_26
REMARK   11  A    between atoms: C_25  and  C_27
REMARK                            x       y       z     vdW  Elec       q    Type
REMARK                         _______ _______ _______ _____ _____    ______ ____
ROOT
ATOM      1  C   UNL     1      -0.025   1.403  -0.167  0.00  0.00    +0.046 C 
ATOM      2  C   UNL     1       0.093  -0.092  -0.019  0.00  0.00    -0.024 A 
ATOM      3  C   UNL     1       0.024  -0.904  -1.136  0.00  0.00    +0.007 A 
ATOM      4  C   UNL     1       0.132  -2.274  -1.004  0.00  0.00    +0.023 A 
ATOM      5  C   UNL     1       0.311  -2.837   0.253  0.00  0.00    +0.035 A 
ATOM      6  C   UNL     1       0.380  -2.020   1.373  0.00  0.00    +0.052 A 
ATOM      7  C   UNL     1       0.276  -0.649   1.234  0.00  0.00    +0.113 A 
ENDROOT
BRANCH   5   8
ATOM      8  N   UNL     1       0.420  -4.226   0.390  0.00  0.00    -0.287 N 
ATOM      9  C   UNL     1       1.026  -4.952  -0.570  0.00  0.00    +0.201 C 
ATOM     10  O   UNL     1       1.559  -4.395  -1.506  0.00  0.00    -0.278 OA
ATOM     11  H   UNL     1       0.060  -4.665   1.176  0.00  0.00    +0.155 HD
BRANCH   9  12
ATOM     12  C   UNL     1       1.040  -6.456  -0.480  0.00  0.00    +0.019 C 
BRANCH  12  13
ATOM     13  N   UNL     1       1.756  -7.009  -1.638  0.00  0.00    +0.385 N 
ATOM     14  C   UNL     1       3.166  -6.603  -1.581  0.00  0.00    -0.095 C 
ATOM     15  H   UNL     1       1.339  -6.661  -2.489  0.00  0.00    -0.081 HD
BRANCH  13  16
ATOM     16  C   UNL     1       1.667  -8.475  -1.614  0.00  0.00    -0.075 C 
ATOM     17  C   UNL     1       0.198  -8.898  -1.673  0.00  0.00    -0.014 C 
ATOM     18  C   UNL     1       2.412  -9.051  -2.820  0.00  0.00    -0.014 C 
ENDBRANCH  13  16
ENDBRANCH  12  13
ENDBRANCH   9  12
ENDBRANCH   5   8
BRANCH   7  19
ATOM     19  S   UNL     1       0.371   0.389   2.654  0.00  0.00    +0.073 S 
ATOM     20  O   UNL     1       0.529  -0.469   3.775  0.00  0.00    -0.150 OA
ATOM     21  O   UNL     1       1.302   1.417   2.344  0.00  0.00    -0.150 OA
BRANCH  19  22
ATOM     22  N   UNL     1      -1.104   1.123   2.823  0.00  0.00    -0.213 N 
ATOM     23  H   UNL     1      -1.171   2.090   2.790  0.00  0.00    +0.174 HD
BRANCH  22  24
ATOM     24  C   UNL     1      -2.252   0.348   3.013  0.00  0.00    +0.083 A 
ATOM     25  C   UNL     1      -2.188  -0.822   3.758  0.00  0.00    +0.027 A 
ATOM     26  C   UNL     1      -3.324  -1.585   3.944  0.00  0.00    +0.002 A 
ATOM     27  C   UNL     1      -4.526  -1.186   3.389  0.00  0.00    +0.003 A 
ATOM     28  C   UNL     1      -4.596  -0.022   2.646  0.00  0.00    +0.040 A 
ATOM     29  C   UNL     1      -3.464   0.750   2.460  0.00  0.00    +0.146 A 
ATOM     30  F   UNL     1      -3.533   1.890   1.739  0.00  0.00    -0.204 F 
ENDBRANCH  22  24
ENDBRANCH  19  22
ENDBRANCH   7  19
TORSDOF 7
