REMARK  Name = ZINC62719927
REMARK  5 active torsions:
REMARK  status: ('A' for Active; 'I' for Inactive)
REMARK    1  A    between atoms: C_1  and  C_2
REMARK    2  A    between atoms: C_7  and  C_8
REMARK    3  A    between atoms: C_11  and  C_13
REMARK    4  A    between atoms: C_13  and  C_14
REMARK    5  A    between atoms: C_17  and  N_20
REMARK                            x       y       z     vdW  Elec       q    Type
REMARK                         _______ _______ _______ _____ _____    ______ ____
ROOT
ATOM      1  C   UNL     1      -0.018   1.503   0.010  0.00  0.00    +0.044 C 
ATOM      2  C   UNL     1       0.002  -0.004   0.002  0.00  0.00    -0.044 A 
ATOM      3  C   UNL     1       0.006  -0.682  -1.197  0.00  0.00    +0.035 A 
ATOM      4  C   UNL     1       0.025  -2.077  -1.204  0.00  0.00    +0.111 A 
ATOM      5  C   UNL     1       0.040  -2.778   0.012  0.00  0.00    +0.169 A 
ATOM      6  C   UNL     1       0.036  -2.080   1.210  0.00  0.00    +0.065 A 
ATOM      7  C   UNL     1       0.023  -0.699   1.202  0.00  0.00    -0.030 A 
ATOM      8  C   UNL     1       0.025   0.057   2.505  0.00  0.00    +0.045 C 
ATOM      9 BR   UNL     1       0.056  -3.017   2.853  0.00  0.00    -0.046 Br
ATOM     10  O   UNL     1       0.056  -4.090  -0.309  0.00  0.00    -0.438 OA
ATOM     11  C   UNL     1       0.051  -4.194  -1.647  0.00  0.00    +0.201 A 
ATOM     12  N   UNL     1       0.033  -3.014  -2.190  0.00  0.00    -0.213 NA
ENDROOT
BRANCH  11  13
ATOM     13  C   UNL     1       0.066  -5.493  -2.410  0.00  0.00    +0.131 C 
BRANCH  13  14
ATOM     14  C   UNL     1       1.491  -5.907  -2.671  0.00  0.00    -0.038 A 
ATOM     15  C   UNL     1       2.132  -5.484  -3.822  0.00  0.00    +0.006 A 
ATOM     16  C   UNL     1       3.438  -5.861  -4.064  0.00  0.00    +0.023 A 
ATOM     17  C   UNL     1       4.109  -6.666  -3.151  0.00  0.00    +0.025 A 
ATOM     18  C   UNL     1       3.462  -7.088  -1.996  0.00  0.00    +0.023 A 
ATOM     19  C   UNL     1       2.157  -6.703  -1.758  0.00  0.00    +0.006 A 
BRANCH  17  20
ATOM     20  N   UNL     1       5.430  -7.049  -3.393  0.00  0.00    -0.358 N 
ATOM     21  H   UNL     1       5.880  -6.754  -4.200  0.00  0.00    +0.142 HD
ATOM     22  H   UNL     1       5.896  -7.611  -2.755  0.00  0.00    +0.142 HD
ENDBRANCH  17  20
ENDBRANCH  13  14
ENDBRANCH  11  13
TORSDOF 3
