REMARK  Name = ZINC63465248
REMARK  13 active torsions:
REMARK  status: ('A' for Active; 'I' for Inactive)
REMARK    1  A    between atoms: C_1  and  C_2
REMARK    2  A    between atoms: C_5  and  S_8
REMARK    3  A    between atoms: S_8  and  N_11
REMARK    4  A    between atoms: N_11  and  C_12
REMARK    5  A    between atoms: N_11  and  C_13
REMARK    6  A    between atoms: C_13  and  C_14
REMARK    7  A    between atoms: N_16  and  N_17
REMARK    8  A    between atoms: C_18  and  C_20
REMARK    9  A    between atoms: C_20  and  N_21
REMARK   10  A    between atoms: N_21  and  C_22
REMARK   11  A    between atoms: N_21  and  C_23
REMARK   12  A    between atoms: C_23  and  C_24
REMARK   13  A    between atoms: C_23  and  C_25
REMARK                            x       y       z     vdW  Elec       q    Type
REMARK                         _______ _______ _______ _____ _____    ______ ____
ROOT
ATOM      1  C   UNL     1       3.089  -3.942  -1.678  0.00  0.00    +0.245 C 
ATOM      2  O   UNL     1       3.042  -2.974  -0.950  0.00  0.00    -0.273 OA
ATOM      3  N   UNL     1       3.805  -3.894  -2.819  0.00  0.00    -0.233 N 
ATOM      4  H   UNL     1       3.843  -4.668  -3.401  0.00  0.00    +0.173 HD
ENDROOT
BRANCH   3   5
ATOM      5  N   UNL     1       4.496  -2.724  -3.163  0.00  0.00    -0.236 N 
ATOM      6  C   UNL     1       5.212  -2.676  -4.304  0.00  0.00    +0.213 C 
ATOM      7  O   UNL     1       5.259  -3.644  -5.032  0.00  0.00    -0.276 OA
ATOM      8  H   UNL     1       4.458  -1.950  -2.581  0.00  0.00    +0.173 HD
BRANCH   6   9
ATOM      9  C   UNL     1       5.955  -1.418  -4.674  0.00  0.00    +0.020 C 
BRANCH   9  10
ATOM     10  N   UNL     1       6.652  -1.619  -5.952  0.00  0.00    +0.385 N 
ATOM     11  C   UNL     1       7.688  -2.648  -5.787  0.00  0.00    -0.095 C 
ATOM     12  H   UNL     1       5.991  -1.917  -6.653  0.00  0.00    -0.081 HD
BRANCH  10  13
ATOM     13  C   UNL     1       7.277  -0.358  -6.372  0.00  0.00    -0.075 C 
ATOM     14  C   UNL     1       8.003  -0.567  -7.702  0.00  0.00    -0.014 C 
ATOM     15  C   UNL     1       6.198   0.714  -6.543  0.00  0.00    -0.014 C 
ENDBRANCH  10  13
ENDBRANCH   9  10
ENDBRANCH   6   9
ENDBRANCH   3   5
BRANCH   1  16
ATOM     16  C   UNL     1       2.346  -5.200  -1.308  0.00  0.00    +0.206 C 
BRANCH  16  17
ATOM     17  N   UNL     1       1.651  -4.999  -0.034  0.00  0.00    -0.171 NA
ATOM     18  C   UNL     1       2.360  -5.214   1.229  0.00  0.00    +0.132 C 
BRANCH  17  19
ATOM     19  S   UNL     1       0.063  -4.530  -0.023  0.00  0.00    +0.061 S 
ATOM     20  O   UNL     1      -0.476  -4.950   1.223  0.00  0.00    -0.153 OA
ATOM     21  O   UNL     1      -0.490  -4.937  -1.267  0.00  0.00    -0.153 OA
BRANCH  19  26
ATOM     22  C   UNL     1      -0.018   1.503   0.010  0.00  0.00    +0.044 C 
ATOM     23  C   UNL     1       0.002  -0.004   0.002  0.00  0.00    -0.050 A 
ATOM     24  C   UNL     1       0.006  -0.689  -1.199  0.00  0.00    +0.005 A 
ATOM     25  C   UNL     1       0.025  -2.071  -1.206  0.00  0.00    +0.029 A 
ATOM     26  C   UNL     1       0.040  -2.768  -0.013  0.00  0.00    +0.105 A 
ATOM     27  C   UNL     1       0.037  -2.084   1.188  0.00  0.00    +0.029 A 
ATOM     28  C   UNL     1       0.023  -0.702   1.195  0.00  0.00    +0.005 A 
ENDBRANCH  19  26
ENDBRANCH  17  19
ENDBRANCH  16  17
ENDBRANCH   1  16
TORSDOF 8
