REMARK  Name = ZINC59166204
REMARK  8 active torsions:
REMARK  status: ('A' for Active; 'I' for Inactive)
REMARK    1  A    between atoms: C_1  and  O_2
REMARK    2  A    between atoms: O_2  and  C_3
REMARK    3  A    between atoms: C_12  and  C_13
REMARK    4  A    between atoms: N_15  and  N_16
REMARK    5  A    between atoms: C_17  and  C_18
REMARK    6  A    between atoms: C_19  and  O_26
REMARK    7  A    between atoms: C_21  and  O_25
REMARK    8  A    between atoms: C_23  and  O_24
REMARK                            x       y       z     vdW  Elec       q    Type
REMARK                         _______ _______ _______ _____ _____    ______ ____
ROOT
ATOM      1  C   UNL     1      -1.525  -0.640   2.276  0.00  0.00    +0.267 C 
ATOM      2  O   UNL     1      -2.087  -0.090   1.347  0.00  0.00    -0.268 OA
ATOM      3  N   UNL     1      -2.217  -0.963   3.386  0.00  0.00    -0.203 N 
ATOM      4  H   UNL     1      -1.770  -1.401   4.127  0.00  0.00    +0.178 HD
ENDROOT
BRANCH   1  14
ATOM      5  C   UNL     1       0.624  -0.616   1.038  0.00  0.00    +0.140 A 
ATOM      6  C   UNL     1       2.000  -0.916   0.967  0.00  0.00    +0.025 A 
ATOM      7  C   UNL     1       2.755  -0.589  -0.170  0.00  0.00    +0.012 A 
ATOM      8  C   UNL     1       4.083  -0.891  -0.208  0.00  0.00    +0.001 A 
ATOM      9  C   UNL     1       4.704  -1.521   0.868  0.00  0.00    +0.001 A 
ATOM     10  C   UNL     1       4.002  -1.852   1.987  0.00  0.00    +0.008 A 
ATOM     11  C   UNL     1       2.631  -1.556   2.062  0.00  0.00    -0.014 A 
ATOM     12  C   UNL     1       1.879  -1.886   3.207  0.00  0.00    +0.009 A 
ATOM     13  C   UNL     1       0.557  -1.593   3.262  0.00  0.00    +0.017 A 
ATOM     14  C   UNL     1      -0.088  -0.952   2.187  0.00  0.00    +0.081 A 
BRANCH   5  16
ATOM     15  C   UNL     1      -0.017   1.425   0.010  0.00  0.00    +0.277 C 
ATOM     16  O   UNL     1       0.002  -0.004   0.002  0.00  0.00    -0.494 OA
ENDBRANCH   5  16
ENDBRANCH   1  14
BRANCH   3  17
ATOM     17  N   UNL     1      -3.584  -0.666   3.471  0.00  0.00    -0.187 NA
ATOM     18  C   UNL     1      -4.251  -0.977   4.541  0.00  0.00    +0.145 C 
BRANCH  18  19
ATOM     19  C   UNL     1      -5.687  -0.665   4.630  0.00  0.00    +0.078 A 
ATOM     20  C   UNL     1      -6.339  -0.037   3.559  0.00  0.00    +0.132 A 
ATOM     21  C   UNL     1      -7.689   0.253   3.650  0.00  0.00    +0.091 A 
ATOM     22  C   UNL     1      -8.397  -0.076   4.797  0.00  0.00    +0.124 A 
ATOM     23  C   UNL     1      -7.759  -0.698   5.862  0.00  0.00    +0.091 A 
ATOM     24  C   UNL     1      -6.411  -1.000   5.783  0.00  0.00    +0.132 A 
BRANCH  24  25
ATOM     25  O   UNL     1      -5.789  -1.613   6.823  0.00  0.00    -0.506 OA
ATOM     26  H   UNL     1      -5.416  -1.003   7.474  0.00  0.00    +0.292 HD
ENDBRANCH  24  25
BRANCH  22  27
ATOM     27  O   UNL     1      -9.722   0.212   4.879  0.00  0.00    -0.507 OA
ATOM     28  H   UNL     1     -10.299  -0.495   4.557  0.00  0.00    +0.292 HD
ENDBRANCH  22  27
BRANCH  20  29
ATOM     29  O   UNL     1      -5.647   0.286   2.436  0.00  0.00    -0.506 OA
ATOM     30  H   UNL     1      -5.640  -0.410   1.765  0.00  0.00    +0.292 HD
ENDBRANCH  20  29
ENDBRANCH  18  19
ENDBRANCH   3  17
TORSDOF 7
