REMARK  Name = ZINC41712691
REMARK  6 active torsions:
REMARK  status: ('A' for Active; 'I' for Inactive)
REMARK    1  A    between atoms: C_1  and  C_2
REMARK    2  A    between atoms: C_2  and  C_4
REMARK    3  A    between atoms: C_2  and  N_21
REMARK    4  A    between atoms: C_7  and  N_10
REMARK    5  A    between atoms: N_13  and  C_14
REMARK    6  A    between atoms: N_21  and  C_22
REMARK                            x       y       z     vdW  Elec       q    Type
REMARK                         _______ _______ _______ _____ _____    ______ ____
ROOT
ATOM      1  N   UNL     1       2.624  -1.903  -4.674  0.00  0.00    -0.269 N 
ATOM      2  C   UNL     1       3.876  -2.393  -4.581  0.00  0.00    +0.308 C 
ATOM      3  O   UNL     1       4.375  -2.585  -3.489  0.00  0.00    -0.252 OA
ATOM      4  N   UNL     1       4.576  -2.670  -5.699  0.00  0.00    -0.268 N 
ATOM      5  H   UNL     1       2.197  -1.823  -5.541  0.00  0.00    +0.156 HD
ATOM      6  H   UNL     1       4.210  -2.444  -6.569  0.00  0.00    +0.156 HD
ENDROOT
BRANCH   4   7
ATOM      7  C   UNL     1       5.831  -3.283  -5.606  0.00  0.00    +0.048 A 
ATOM      8  C   UNL     1       6.171  -4.002  -4.468  0.00  0.00    +0.024 A 
ATOM      9  C   UNL     1       7.410  -4.606  -4.379  0.00  0.00    +0.002 A 
ATOM     10  C   UNL     1       8.311  -4.495  -5.421  0.00  0.00    +0.001 A 
ATOM     11  C   UNL     1       7.976  -3.780  -6.556  0.00  0.00    +0.016 A 
ATOM     12  C   UNL     1       6.736  -3.178  -6.654  0.00  0.00    +0.035 A 
ATOM     13  I   UNL     1       6.226  -2.102  -8.377  0.00  0.00    -0.042 I 
ENDBRANCH   4   7
BRANCH   1  17
ATOM     14  C   UNL     1       0.585  -0.732  -1.234  0.00  0.00    -0.062 A 
ATOM     15  C   UNL     1       1.957  -0.573  -1.311  0.00  0.00    +0.004 A 
ATOM     16  C   UNL     1       2.635  -0.960  -2.450  0.00  0.00    +0.023 A 
ATOM     17  C   UNL     1       1.939  -1.510  -3.518  0.00  0.00    +0.035 A 
ATOM     18  C   UNL     1       0.562  -1.669  -3.438  0.00  0.00    +0.023 A 
ATOM     19  C   UNL     1      -0.110  -1.285  -2.294  0.00  0.00    +0.004 A 
BRANCH  14  21
ATOM     20  C   UNL     1      -0.373   1.206  -0.020  0.00  0.00    -0.009 C 
ATOM     21  C   UNL     1      -0.152  -0.308   0.009  0.00  0.00    -0.044 C 
BRANCH  21  22
ATOM     22  N   UNL     1       0.640  -0.664   1.194  0.00  0.00    +0.382 N 
ATOM     23  C   UNL     1      -0.130  -0.361   2.408  0.00  0.00    -0.100 C 
ATOM     24  H   UNL     1       0.855  -1.650   1.171  0.00  0.00    -0.085 HD
ATOM     25  H   UNL     1       1.497  -0.133   1.198  0.00  0.00    -0.085 HD
ENDBRANCH  21  22
ENDBRANCH  14  21
ENDBRANCH   1  17
TORSDOF 4
