REMARK  Name = ZINC40709288
REMARK  5 active torsions:
REMARK  status: ('A' for Active; 'I' for Inactive)
REMARK    1  A    between atoms: C_4  and  C_7
REMARK    2  A    between atoms: C_7  and  N_8
REMARK    3  A    between atoms: C_10  and  N_23
REMARK    4  A    between atoms: C_11  and  N_15
REMARK    5  A    between atoms: N_15  and  C_16
REMARK                            x       y       z     vdW  Elec       q    Type
REMARK                         _______ _______ _______ _____ _____    ______ ____
ROOT
ATOM      1  N   UNL     1       4.680  -0.153   1.406  0.00  0.00    -0.323 N 
ATOM      2  C   UNL     1       5.737  -1.028   1.625  0.00  0.00    +0.145 A 
ATOM      3  C   UNL     1       6.038  -1.465   2.917  0.00  0.00    +0.105 A 
ATOM      4  C   UNL     1       7.110  -2.344   3.081  0.00  0.00    +0.149 A 
ATOM      5  N   UNL     1       7.798  -2.729   2.009  0.00  0.00    -0.219 NA
ATOM      6  C   UNL     1       7.480  -2.293   0.807  0.00  0.00    +0.225 A 
ATOM      7  N   UNL     1       6.473  -1.467   0.608  0.00  0.00    -0.219 NA
ATOM      8  H   UNL     1       4.147   0.162   2.153  0.00  0.00    +0.148 HD
ENDROOT
BRANCH   3   9
ATOM      9  N   UNL     1       5.285  -1.032   4.019  0.00  0.00    -0.353 N 
ATOM     10  H   UNL     1       4.543  -0.420   3.890  0.00  0.00    +0.143 HD
ATOM     11  H   UNL     1       5.506  -1.344   4.911  0.00  0.00    +0.143 HD
ENDBRANCH   3   9
BRANCH   4  12
ATOM     12  N   UNL     1       7.454  -2.810   4.345  0.00  0.00    -0.297 N 
ATOM     13  H   UNL     1       6.891  -2.602   5.108  0.00  0.00    +0.154 HD
BRANCH  12  14
ATOM     14  C   UNL     1       8.610  -3.577   4.517  0.00  0.00    +0.051 A 
ATOM     15  C   UNL     1       9.653  -3.479   3.605  0.00  0.00    +0.025 A 
ATOM     16  C   UNL     1      10.793  -4.238   3.778  0.00  0.00    +0.002 A 
ATOM     17  C   UNL     1      10.898  -5.096   4.858  0.00  0.00    +0.002 A 
ATOM     18  C   UNL     1       9.862  -5.197   5.768  0.00  0.00    +0.022 A 
ATOM     19  C   UNL     1       8.720  -4.436   5.605  0.00  0.00    +0.062 A 
ATOM     20 CL   UNL     1       7.423  -4.558   6.752  0.00  0.00    -0.082 Cl
ENDBRANCH  12  14
ENDBRANCH   4  12
BRANCH   1  21
ATOM     21  C   UNL     1       4.369   0.294   0.045  0.00  0.00    +0.138 C 
BRANCH  21  25
ATOM     22  C   UNL     1       1.023   2.948   0.145  0.00  0.00    +0.000 A 
ATOM     23  C   UNL     1       2.306   3.448   0.266  0.00  0.00    +0.000 A 
ATOM     24  C   UNL     1       3.389   2.589   0.234  0.00  0.00    +0.005 A 
ATOM     25  C   UNL     1       3.188   1.230   0.081  0.00  0.00    -0.030 A 
ATOM     26  C   UNL     1       1.905   0.729  -0.039  0.00  0.00    +0.005 A 
ATOM     27  C   UNL     1       0.823   1.588  -0.008  0.00  0.00    +0.000 A 
ENDBRANCH  21  25
ENDBRANCH   1  21
TORSDOF 5
