REMARK  Name = ZINC02535929
REMARK  7 active torsions:
REMARK  status: ('A' for Active; 'I' for Inactive)
REMARK    1  A    between atoms: C_1  and  C_2
REMARK    2  A    between atoms: C_4  and  O_10
REMARK    3  A    between atoms: C_6  and  C_9
REMARK    4  A    between atoms: O_10  and  C_11
REMARK    5  A    between atoms: C_11  and  N_12
REMARK    6  A    between atoms: C_15  and  C_17
REMARK    7  A    between atoms: N_19  and  N_20
REMARK                            x       y       z     vdW  Elec       q    Type
REMARK                         _______ _______ _______ _____ _____    ______ ____
ROOT
ATOM      1  N   UNL     1       2.215   5.559   0.012  0.00  0.00    -0.233 N 
ATOM      2  C   UNL     1       1.004   6.169   0.027  0.00  0.00    +0.132 A 
ATOM      3  C   UNL     1       1.229   7.505   0.032  0.00  0.00    +0.091 A 
ATOM      4  C   UNL     1       2.637   7.651   0.019  0.00  0.00    +0.167 A 
ATOM      5  N   UNL     1       3.152   6.438   0.013  0.00  0.00    -0.162 NA
ATOM      6 CL   UNL     1       0.041   8.771   0.051  0.00  0.00    -0.080 Cl
ENDROOT
BRANCH   4   7
ATOM      7  C   UNL     1       3.387   8.923   0.020  0.00  0.00    +0.279 C 
ATOM      8  O   UNL     1       2.788   9.982   0.033  0.00  0.00    -0.267 OA
ATOM      9  N   UNL     1       4.734   8.911   0.007  0.00  0.00    -0.248 N 
ATOM     10  H   UNL     1       5.212   8.067  -0.003  0.00  0.00    +0.169 HD
BRANCH   9  11
ATOM     11  N   UNL     1       5.428  10.088   0.007  0.00  0.00    -0.254 NA
ATOM     12  H   UNL     1       5.166  10.662   0.795  0.00  0.00    +0.140 HD
ATOM     13  H   UNL     1       6.423   9.921  -0.003  0.00  0.00    +0.140 HD
ENDBRANCH   9  11
ENDBRANCH   4   7
BRANCH   1  14
ATOM     14  C   UNL     1       2.425   4.109   0.001  0.00  0.00    +0.374 C 
BRANCH  14  15
ATOM     15  O   UNL     1       1.159   3.445   0.010  0.00  0.00    -0.470 OA
BRANCH  15  19
ATOM     16  C   UNL     1      -1.293  -0.775   0.010  0.00  0.00    +0.045 C 
ATOM     17  C   UNL     1       0.002  -0.004   0.002  0.00  0.00    -0.028 A 
ATOM     18  C   UNL     1      -0.017   1.377   0.010  0.00  0.00    +0.050 A 
ATOM     19  C   UNL     1       1.176   2.086   0.002  0.00  0.00    +0.124 A 
ATOM     20  C   UNL     1       2.385   1.406  -0.013  0.00  0.00    +0.050 A 
ATOM     21  C   UNL     1       2.399   0.025  -0.020  0.00  0.00    -0.028 A 
ATOM     22  C   UNL     1       1.209  -0.680  -0.013  0.00  0.00    +0.047 A 
ATOM     23 CL   UNL     1       1.230  -2.416  -0.023  0.00  0.00    -0.083 Cl
ATOM     24  C   UNL     1       3.713  -0.714  -0.036  0.00  0.00    +0.045 C 
ENDBRANCH  15  19
ENDBRANCH  14  15
ENDBRANCH   1  14
TORSDOF 5
