REMARK  Name = ZINC35565155
REMARK  3 active torsions:
REMARK  status: ('A' for Active; 'I' for Inactive)
REMARK    1  A    between atoms: C_9  and  S_18
REMARK    2  A    between atoms: C_12  and  N_17
REMARK    3  A    between atoms: C_14  and  O_16
REMARK                            x       y       z     vdW  Elec       q    Type
REMARK                         _______ _______ _______ _____ _____    ______ ____
ROOT
ATOM      1  C   UNL     1      -0.019   1.526   0.010  0.00  0.00    +0.000 C 
ATOM      2  C   UNL     1       1.417   2.055  -0.000  0.00  0.00    +0.000 C 
ATOM      3  C   UNL     1       2.133   1.562  -1.259  0.00  0.00    +0.006 C 
ATOM      4  C   UNL     1       2.154   0.032  -1.268  0.00  0.00    +0.021 C 
ATOM      5  C   UNL     1       0.718  -0.497  -1.257  0.00  0.00    +0.021 C 
ATOM      6  C   UNL     1       0.002  -0.004   0.002  0.00  0.00    +0.006 C 
ATOM      7  C   UNL     1       0.739  -2.027  -1.265  0.00  0.00    +0.165 C 
ATOM      8  C   UNL     1       1.479  -2.534  -0.026  0.00  0.00    +0.015 C 
ATOM      9  C   UNL     1       2.914  -2.005  -0.036  0.00  0.00    -0.044 C 
ATOM     10  C   UNL     1       2.894  -0.475  -0.028  0.00  0.00    +0.104 C 
ENDROOT
BRANCH   9  11
ATOM     11  N   UNL     1       3.625  -2.491   1.154  0.00  0.00    +0.382 N 
ATOM     12  H   UNL     1       3.639  -3.500   1.148  0.00  0.00    -0.090 HD
ATOM     13  H   UNL     1       4.571  -2.142   1.146  0.00  0.00    -0.090 HD
ATOM     14  H   UNL     1       3.153  -2.166   1.984  0.00  0.00    -0.090 HD
ENDBRANCH   9  11
BRANCH   7  15
ATOM     15  S   UNL     1      -0.963  -2.655  -1.252  0.00  0.00    +0.113 S 
ATOM     16  O   UNL     1      -0.922  -4.109  -1.260  0.00  0.00    -0.145 OA
ATOM     17  O   UNL     1      -1.626  -2.176  -0.050  0.00  0.00    -0.145 OA
ATOM     18  O   UNL     1      -1.649  -2.163  -2.437  0.00  0.00    -0.047 OA
ENDBRANCH   7  15
BRANCH  10  19
ATOM     19  O   UNL     1       2.225  -0.014   1.148  0.00  0.00    -0.393 OA
ATOM     20  H   UNL     1       2.640  -0.298   1.973  0.00  0.00    +0.210 HD
ENDBRANCH  10  19
TORSDOF 3
