REMARK  Name = ZINC33586873
REMARK  7 active torsions:
REMARK  status: ('A' for Active; 'I' for Inactive)
REMARK    1  A    between atoms: C_3  and  N_8
REMARK    2  A    between atoms: C_5  and  O_7
REMARK    3  A    between atoms: N_19  and  C_20
REMARK    4  A    between atoms: C_20  and  C_21
REMARK    5  A    between atoms: C_21  and  O_22
REMARK    6  A    between atoms: O_22  and  C_23
REMARK    7  A    between atoms: N_25  and  C_26
REMARK                            x       y       z     vdW  Elec       q    Type
REMARK                         _______ _______ _______ _____ _____    ______ ____
ROOT
ATOM      1  N   UNL     1      -0.116   5.224   0.013  0.00  0.00    -0.269 N 
ATOM      2  C   UNL     1       0.946   6.051   0.105  0.00  0.00    +0.143 C 
ATOM      3  S   UNL     1       2.567   5.514   0.232  0.00  0.00    -0.018 S 
ATOM      4  N   UNL     1       0.586   7.338   0.083  0.00  0.00    -0.285 N 
ATOM      5  C   UNL     1      -0.712   7.493  -0.015  0.00  0.00    +0.098 C 
ATOM      6  C   UNL     1      -1.293   6.100  -0.069  0.00  0.00    +0.094 C 
ATOM      7  C   UNL     1      -2.220   5.860   1.117  0.00  0.00    +0.034 C 
ATOM      8  C   UNL     1      -2.766   4.431   1.059  0.00  0.00    +0.003 C 
ATOM      9  C   UNL     1      -3.525   4.229  -0.254  0.00  0.00    +0.000 C 
ATOM     10  C   UNL     1      -2.576   4.450  -1.433  0.00  0.00    +0.003 C 
ATOM     11  C   UNL     1      -2.030   5.880  -1.385  0.00  0.00    +0.034 C 
ATOM     12  N   UNL     1      -1.394   8.666  -0.057  0.00  0.00    -0.371 N 
ATOM     13  H   UNL     1       1.352   8.124   0.143  0.00  0.00    +0.155 HD
ATOM     14  H   UNL     1      -2.491   8.662  -0.140  0.00  0.00    +0.161 HD
ENDROOT
BRANCH   1  17
ATOM     15  C   UNL     1      -1.275   1.736  -0.106  0.00  0.00    +0.005 A 
ATOM     16  C   UNL     1      -1.291   3.118  -0.092  0.00  0.00    +0.024 A 
ATOM     17  C   UNL     1      -0.100   3.826   0.004  0.00  0.00    +0.040 A 
ATOM     18  C   UNL     1       1.106   3.144   0.092  0.00  0.00    +0.069 A 
ATOM     19  C   UNL     1       1.117   1.758   0.084  0.00  0.00    +0.119 A 
ATOM     20  C   UNL     1      -0.076   1.056  -0.013  0.00  0.00    +0.045 A 
BRANCH  19  21
ATOM     21  O   UNL     1       2.296   1.087   0.170  0.00  0.00    -0.507 OA
ATOM     22  H   UNL     1       2.305  -0.012   0.163  0.00  0.00    +0.292 HD
ENDBRANCH  19  21
ENDBRANCH   1  17
BRANCH  12  23
ATOM     23  C   UNL     1      -0.669   9.938   0.008  0.00  0.00    +0.155 C 
BRANCH  23  24
ATOM     24  C   UNL     1      -1.666  11.097  -0.058  0.00  0.00    +0.254 C 
BRANCH  24  25
ATOM     25  O   UNL     1      -2.512  11.076   1.122  0.00  0.00    -0.448 OA
BRANCH  25  26
ATOM     26  C   UNL     1      -3.450  12.037   1.219  0.00  0.00    +0.405 C 
ATOM     27  O   UNL     1      -3.558  12.870   0.342  0.00  0.00    -0.226 OA
ATOM     28  N   UNL     1      -4.268  12.075   2.290  0.00  0.00    -0.251 N 
ATOM     29  H   UNL     1      -4.112  11.376   3.125  0.00  0.00    +0.158 HD
BRANCH  28  30
ATOM     30  C   UNL     1      -5.314  13.003   2.338  0.00  0.00    +0.037 A 
ATOM     31  C   UNL     1      -5.688  13.567   3.551  0.00  0.00    +0.025 A 
ATOM     32  C   UNL     1      -6.717  14.487   3.595  0.00  0.00    +0.022 A 
ATOM     33  C   UNL     1      -7.384  14.838   2.434  0.00  0.00    +0.041 A 
ATOM     34  C   UNL     1      -7.017  14.273   1.226  0.00  0.00    +0.022 A 
ATOM     35  C   UNL     1      -5.985  13.357   1.175  0.00  0.00    +0.025 A 
ATOM     36 CL   UNL     1      -8.682  15.989   2.494  0.00  0.00    -0.084 Cl
ENDBRANCH  28  30
ENDBRANCH  25  26
ENDBRANCH  24  25
ENDBRANCH  23  24
ENDBRANCH  12  23
TORSDOF 7
