REMARK  Name = ZINC39468984
REMARK  1 active torsions:
REMARK  status: ('A' for Active; 'I' for Inactive)
REMARK    1  A    between atoms: C_16  and  O_20
REMARK                            x       y       z     vdW  Elec       q    Type
REMARK                         _______ _______ _______ _____ _____    ______ ____
ROOT
ATOM      1  C   UNL     1      -0.019   1.518   0.010  0.00  0.00    -0.003 C 
ATOM      2  C   UNL     1       1.403   2.095  -0.000  0.00  0.00    -0.020 C 
ATOM      3  C   UNL     1       1.304   3.455   0.707  0.00  0.00    +0.159 C 
ATOM      4  O   UNL     1       2.586   4.103   0.725  0.00  0.00    -0.297 OA
ATOM      5  P   UNL     1       3.851   3.238   1.272  0.00  0.00    +0.421 P 
ATOM      6  O   UNL     1       3.847   3.198   2.817  0.00  0.00    -0.239 OA
ATOM      7  N   UNL     1       3.625   1.725   0.659  0.00  0.00    -0.267 NA
ATOM      8  N   UNL     1       2.346   1.206   0.666  0.00  0.00    +0.399 N 
ATOM      9  C   UNL     1       2.488  -0.081  -0.031  0.00  0.00    -0.050 C 
ATOM     10  C   UNL     1       1.218  -0.493  -0.757  0.00  0.00    -0.011 C 
ATOM     11  C   UNL     1       0.002  -0.004   0.002  0.00  0.00    +0.016 C 
ATOM     12  C   UNL     1      -1.276  -0.542  -0.563  0.00  0.00    +0.025 C 
ATOM     13  C   UNL     1      -1.334  -1.620  -1.342  0.00  0.00    +0.155 C 
ATOM     14  C   UNL     1      -0.105  -2.347  -1.699  0.00  0.00    +0.197 C 
ATOM     15  C   UNL     1       1.160  -2.021  -0.878  0.00  0.00    +0.085 C 
ATOM     16  O   UNL     1      -0.105  -3.188  -2.573  0.00  0.00    -0.289 OA
ATOM     17  O   UNL     1       5.177   3.839   0.755  0.00  0.00    -0.128 OA
ATOM     18  H   UNL     1       4.373   1.216   0.310  0.00  0.00    +0.113 HD
ATOM     19  H   UNL     1       2.042   1.044   1.615  0.00  0.00    -0.055 HD
ENDROOT
BRANCH  13  20
ATOM     20  O   UNL     1      -2.535  -2.053  -1.811  0.00  0.00    -0.504 OA
ATOM     21  H   UNL     1      -2.479  -2.841  -2.367  0.00  0.00    +0.292 HD
ENDBRANCH  13  20
TORSDOF 1
