REMARK  Name = ZINC05551287
REMARK  6 active torsions:
REMARK  status: ('A' for Active; 'I' for Inactive)
REMARK    1  A    between atoms: C_1  and  C_2
REMARK    2  A    between atoms: C_2  and  O_3
REMARK    3  A    between atoms: O_3  and  C_4
REMARK    4  A    between atoms: C_6  and  C_11
REMARK    5  A    between atoms: C_9  and  O_10
REMARK    6  A    between atoms: N_17  and  C_18
REMARK                            x       y       z     vdW  Elec       q    Type
REMARK                         _______ _______ _______ _____ _____    ______ ____
ROOT
ATOM      1  C   UNL     1      -6.875   1.463   3.629  0.00  0.00    +0.028 C 
ATOM      2  C   UNL     1      -6.156   0.554   2.924  0.00  0.00    +0.078 C 
ATOM      3  C   UNL     1      -6.610  -0.674   2.243  0.00  0.00    +0.256 C 
ATOM      4  O   UNL     1      -7.779  -1.013   2.255  0.00  0.00    -0.269 OA
ATOM      5  N   UNL     1      -5.689  -1.390   1.620  0.00  0.00    -0.260 N 
ATOM      6  C   UNL     1      -4.371  -0.990   1.619  0.00  0.00    +0.166 C 
ATOM      7  N   UNL     1      -3.338  -1.579   1.056  0.00  0.00    -0.226 NA
ATOM      8  S   UNL     1      -4.404   0.517   2.575  0.00  0.00    -0.049 S 
ATOM      9  H   UNL     1      -5.944  -2.205   1.160  0.00  0.00    +0.157 HD
ENDROOT
BRANCH   7  10
ATOM     10  C   UNL     1      -2.093  -1.025   1.165  0.00  0.00    +0.067 A 
ATOM     11  C   UNL     1      -1.923   0.357   0.963  0.00  0.00    +0.028 A 
ATOM     12  C   UNL     1      -0.697   0.930   1.070  0.00  0.00    +0.010 A 
ATOM     13  C   UNL     1       0.426   0.139   1.376  0.00  0.00    -0.018 A 
ATOM     14  C   UNL     1       1.705   0.709   1.487  0.00  0.00    +0.008 A 
ATOM     15  C   UNL     1       2.772  -0.080   1.790  0.00  0.00    +0.001 A 
ATOM     16  C   UNL     1       2.617  -1.450   1.992  0.00  0.00    +0.001 A 
ATOM     17  C   UNL     1       1.394  -2.039   1.893  0.00  0.00    +0.008 A 
ATOM     18  C   UNL     1       0.268  -1.255   1.582  0.00  0.00    -0.016 A 
ATOM     19  C   UNL     1      -1.007  -1.830   1.472  0.00  0.00    +0.036 A 
ENDBRANCH   7  10
BRANCH   1  22
ATOM     20  C   UNL     1      -6.269   4.568   5.644  0.00  0.00    +0.162 A 
ATOM     21  C   UNL     1      -6.922   3.573   4.943  0.00  0.00    +0.057 A 
ATOM     22  C   UNL     1      -6.187   2.527   4.371  0.00  0.00    -0.020 A 
ATOM     23  C   UNL     1      -4.793   2.503   4.504  0.00  0.00    +0.012 A 
ATOM     24  C   UNL     1      -4.151   3.502   5.201  0.00  0.00    +0.050 A 
ATOM     25  C   UNL     1      -4.881   4.536   5.772  0.00  0.00    +0.158 A 
BRANCH  25  26
ATOM     26  O   UNL     1      -4.241   5.519   6.457  0.00  0.00    -0.503 OA
ATOM     27  H   UNL     1      -3.977   6.271   5.911  0.00  0.00    +0.292 HD
ENDBRANCH  25  26
BRANCH  20  28
ATOM     28  O   UNL     1      -6.980   5.583   6.205  0.00  0.00    -0.489 OA
BRANCH  28  30
ATOM     29  C   UNL     1      -9.021   6.766   6.729  0.00  0.00    +0.048 C 
ATOM     30  C   UNL     1      -8.398   5.553   6.034  0.00  0.00    +0.226 C 
ENDBRANCH  28  30
ENDBRANCH  20  28
ENDBRANCH   1  22
TORSDOF 5
