REMARK  Name = ZINC45050219
REMARK  5 active torsions:
REMARK  status: ('A' for Active; 'I' for Inactive)
REMARK    1  A    between atoms: C_1  and  N_2
REMARK    2  A    between atoms: N_2  and  C_3
REMARK    3  A    between atoms: C_3  and  C_4
REMARK    4  A    between atoms: N_5  and  O_6
REMARK    5  A    between atoms: C_8  and  C_10
REMARK                            x       y       z     vdW  Elec       q    Type
REMARK                         _______ _______ _______ _____ _____    ______ ____
ROOT
ATOM      1  C   UNL     1       0.831   1.308  -0.093  0.00  0.00    +0.133 C 
ATOM      2  N   UNL     1       0.406  -0.094  -0.057  0.00  0.00    -0.293 N 
ATOM      3  C   UNL     1      -0.102  -0.673  -1.163  0.00  0.00    +0.248 C 
ATOM      4  O   UNL     1      -0.541  -1.805  -1.110  0.00  0.00    -0.270 OA
ENDROOT
BRANCH   3   5
ATOM      5  C   UNL     1      -0.124   0.068  -2.441  0.00  0.00    +0.056 A 
ATOM      6  C   UNL     1       0.997   0.793  -2.852  0.00  0.00    +0.029 A 
ATOM      7  C   UNL     1       0.969   1.483  -4.046  0.00  0.00    +0.019 A 
ATOM      8  C   UNL     1      -0.167   1.459  -4.838  0.00  0.00    +0.017 A 
ATOM      9  C   UNL     1      -1.281   0.744  -4.438  0.00  0.00    +0.022 A 
ATOM     10  C   UNL     1      -1.265   0.043  -3.248  0.00  0.00    +0.053 A 
ATOM     11 CL   UNL     1      -2.661  -0.861  -2.751  0.00  0.00    -0.083 Cl
ATOM     12 BR   UNL     1       2.486   2.465  -4.603  0.00  0.00    -0.050 Br
ENDBRANCH   3   5
BRANCH   2  13
ATOM     13  C   UNL     1       0.535  -0.867   1.181  0.00  0.00    +0.182 C 
BRANCH  13  14
ATOM     14  C   UNL     1      -0.727  -0.727   1.993  0.00  0.00    +0.149 C 
ATOM     15  N   UNL     1      -1.703  -0.004   1.552  0.00  0.00    -0.075 NA
ATOM     16  N   UNL     1      -0.840  -1.369   3.206  0.00  0.00    -0.343 N 
ATOM     17  H   UNL     1      -0.107  -1.912   3.538  0.00  0.00    +0.144 HD
ATOM     18  H   UNL     1      -1.652  -1.279   3.729  0.00  0.00    +0.144 HD
BRANCH  15  19
ATOM     19  O   UNL     1      -2.888   0.127   2.315  0.00  0.00    -0.408 OA
ATOM     20  H   UNL     1      -3.561   0.687   1.903  0.00  0.00    +0.328 HD
ENDBRANCH  15  19
ENDBRANCH  13  14
ENDBRANCH   2  13
TORSDOF 4
