REMARK  Name = ZINC25273814
REMARK  3 active torsions:
REMARK  status: ('A' for Active; 'I' for Inactive)
REMARK    1  A    between atoms: C_1  and  C_2
REMARK    2  A    between atoms: C_7  and  N_10
REMARK    3  A    between atoms: C_11  and  C_13
REMARK                            x       y       z     vdW  Elec       q    Type
REMARK                         _______ _______ _______ _____ _____    ______ ____
ROOT
ATOM      1  N   UNL     1      -0.509   1.452  -3.695  0.00  0.00    -0.312 N 
ATOM      2  C   UNL     1      -0.033   1.127  -2.477  0.00  0.00    +0.218 C 
ATOM      3  O   UNL     1       0.976   0.461  -2.378  0.00  0.00    -0.275 OA
ATOM      4  H   UNL     1      -1.424   2.056  -3.784  0.00  0.00    +0.149 HD
ENDROOT
BRANCH   2   5
ATOM      5  C   UNL     1      -0.755   1.589  -1.237  0.00  0.00    +0.092 C 
ATOM      6  C   UNL     1      -0.012   1.088   0.004  0.00  0.00    +0.016 C 
ATOM      7  C   UNL     1      -0.726   1.585   1.263  0.00  0.00    +0.020 C 
ATOM      8  C   UNL     1      -2.151   1.025   1.293  0.00  0.00    +0.109 C 
ATOM      9  N   UNL     1      -2.825   1.381   0.037  0.00  0.00    -0.285 N 
ATOM     10  C   UNL     1      -2.180   1.029  -1.236  0.00  0.00    +0.122 C 
ATOM     11  C   UNL     1      -4.013   2.018   0.052  0.00  0.00    +0.300 C 
ATOM     12  O   UNL     1      -4.515   2.392  -0.991  0.00  0.00    -0.253 OA
ATOM     13  N   UNL     1      -4.644   2.241   1.222  0.00  0.00    -0.313 N 
ATOM     14  H   UNL     1      -5.613   2.761   1.234  0.00  0.00    +0.146 HD
ATOM     15  H   UNL     1      -4.189   1.903   2.165  0.00  0.00    +0.146 HD
ENDBRANCH   2   5
BRANCH   1  21
ATOM     16  C   UNL     1       0.296   2.431  -8.474  0.00  0.00    +0.007 C 
ATOM     17  C   UNL     1       0.611   1.482  -7.316  0.00  0.00    -0.012 C 
ATOM     18  C   UNL     1       0.150   0.068  -7.676  0.00  0.00    +0.003 C 
ATOM     19  C   UNL     1       0.465  -0.881  -6.518  0.00  0.00    +0.002 C 
ATOM     20  C   UNL     1      -0.267  -0.412  -5.260  0.00  0.00    +0.022 C 
ATOM     21  C   UNL     1       0.193   1.002  -4.899  0.00  0.00    +0.073 C 
ATOM     22  C   UNL     1      -0.122   1.952  -6.057  0.00  0.00    +0.025 C 
ENDBRANCH   1  21
TORSDOF 2
