REMARK  Name = ZINC15795210
REMARK  7 active torsions:
REMARK  status: ('A' for Active; 'I' for Inactive)
REMARK    1  A    between atoms: C_1  and  C_2
REMARK    2  A    between atoms: C_7  and  N_8
REMARK    3  A    between atoms: N_8  and  S_9
REMARK    4  A    between atoms: S_9  and  C_12
REMARK    5  A    between atoms: C_15  and  C_18
REMARK    6  A    between atoms: N_20  and  N_21
REMARK    7  A    between atoms: C_22  and  C_24
REMARK                            x       y       z     vdW  Elec       q    Type
REMARK                         _______ _______ _______ _____ _____    ______ ____
ROOT
ATOM      1  C   UNL     1       3.036  -9.226  -0.987  0.00  0.00    +0.109 A 
ATOM      2  C   UNL     1       4.128  -8.667  -0.346  0.00  0.00    +0.029 A 
ATOM      3  C   UNL     1       4.159  -7.314  -0.083  0.00  0.00    +0.015 A 
ATOM      4  C   UNL     1       3.085  -6.507  -0.464  0.00  0.00    +0.038 A 
ATOM      5  C   UNL     1       1.984  -7.077  -1.104  0.00  0.00    +0.015 A 
ATOM      6  C   UNL     1       1.968  -8.432  -1.367  0.00  0.00    +0.029 A 
ENDROOT
BRANCH   4   7
ATOM      7  C   UNL     1       3.111  -5.055  -0.184  0.00  0.00    +0.260 C 
ATOM      8  O   UNL     1       4.069  -4.562   0.379  0.00  0.00    -0.269 OA
ATOM      9  N   UNL     1       2.073  -4.279  -0.553  0.00  0.00    -0.230 N 
ATOM     10  H   UNL     1       1.308  -4.673  -1.002  0.00  0.00    +0.173 HD
BRANCH   9  11
ATOM     11  N   UNL     1       2.098  -2.904  -0.288  0.00  0.00    -0.231 N 
ATOM     12  C   UNL     1       1.059  -2.127  -0.656  0.00  0.00    +0.273 C 
ATOM     13  O   UNL     1       0.104  -2.620  -1.218  0.00  0.00    -0.270 OA
ATOM     14  H   UNL     1       2.862  -2.510   0.161  0.00  0.00    +0.173 HD
BRANCH  12  15
ATOM     15  C   UNL     1       1.086  -0.648  -0.371  0.00  0.00    +0.297 C 
ATOM     16  C   UNL     1       2.196   0.019  -1.195  0.00  0.00    +0.283 C 
ATOM     17  O   UNL     1       2.185   1.422  -0.910  0.00  0.00    -0.484 OA
ATOM     18  C   UNL     1       0.971   2.037  -0.916  0.00  0.00    +0.162 A 
ATOM     19  C   UNL     1       0.908   3.420  -1.007  0.00  0.00    +0.049 A 
ATOM     20  C   UNL     1      -0.317   4.059  -1.011  0.00  0.00    +0.004 A 
ATOM     21  C   UNL     1      -1.484   3.323  -0.925  0.00  0.00    +0.004 A 
ATOM     22  C   UNL     1      -1.429   1.944  -0.841  0.00  0.00    +0.049 A 
ATOM     23  C   UNL     1      -0.203   1.297  -0.833  0.00  0.00    +0.163 A 
ATOM     24  O   UNL     1      -0.165  -0.061  -0.747  0.00  0.00    -0.472 OA
ENDBRANCH  12  15
ENDBRANCH   9  11
ENDBRANCH   4   7
BRANCH   1  25
ATOM     25  S   UNL     1       3.005 -10.956  -1.321  0.00  0.00    +0.072 S 
ATOM     26  O   UNL     1       2.117 -11.142  -2.415  0.00  0.00    -0.150 OA
ATOM     27  O   UNL     1       4.358 -11.387  -1.356  0.00  0.00    -0.150 OA
BRANCH  25  28
ATOM     28  N   UNL     1       2.307 -11.694  -0.014  0.00  0.00    -0.216 N 
ATOM     29  H   UNL     1       2.806 -12.350   0.497  0.00  0.00    +0.174 HD
BRANCH  28  36
ATOM     30  C   UNL     1       1.667 -11.636   2.758  0.00  0.00    +0.046 C 
ATOM     31  C   UNL     1       0.642 -11.332   1.696  0.00  0.00    -0.028 A 
ATOM     32  C   UNL     1      -0.653 -11.014   2.056  0.00  0.00    +0.005 A 
ATOM     33  C   UNL     1      -1.594 -10.734   1.082  0.00  0.00    +0.000 A 
ATOM     34  C   UNL     1      -1.242 -10.773  -0.255  0.00  0.00    +0.002 A 
ATOM     35  C   UNL     1       0.051 -11.086  -0.622  0.00  0.00    +0.025 A 
ATOM     36  C   UNL     1       0.998 -11.372   0.354  0.00  0.00    +0.051 A 
ENDBRANCH  28  36
ENDBRANCH  25  28
ENDBRANCH   1  25
TORSDOF 6
