REMARK  Name = ZINC16036471
REMARK  5 active torsions:
REMARK  status: ('A' for Active; 'I' for Inactive)
REMARK    1  A    between atoms: C_1  and  C_2
REMARK    2  A    between atoms: N_4  and  C_5
REMARK    3  A    between atoms: C_7  and  O_28
REMARK    4  A    between atoms: C_15  and  C_18
REMARK    5  A    between atoms: C_25  and  O_27
REMARK                            x       y       z     vdW  Elec       q    Type
REMARK                         _______ _______ _______ _____ _____    ______ ____
ROOT
ATOM      1  C   UNL     1       2.063   1.120   1.242  0.00  0.00    +0.160 C 
ATOM      2  C   UNL     1       1.286   1.562  -0.002  0.00  0.00    +0.171 C 
ATOM      3  C   UNL     1       1.146   3.087   0.008  0.00  0.00    +0.183 C 
ATOM      4  C   UNL     1       0.470   3.525   1.311  0.00  0.00    +0.178 C 
ATOM      5  C   UNL     1      -0.951   2.956   1.350  0.00  0.00    +0.197 C 
ATOM      6  O   UNL     1      -1.643   3.355   0.163  0.00  0.00    -0.345 OA
ATOM      7  C   UNL     1      -1.001   2.943  -1.046  0.00  0.00    +0.282 C 
ATOM      8  O   UNL     1       0.322   3.485  -1.094  0.00  0.00    -0.339 OA
ATOM      9  O   UNL     1       1.214   3.043   2.429  0.00  0.00    -0.341 OA
ATOM     10  C   UNL     1       1.333   1.621   2.491  0.00  0.00    +0.270 C 
ENDROOT
BRANCH   7  11
ATOM     11  C   UNL     1      -1.790   3.441  -2.229  0.00  0.00    +0.008 A 
ATOM     12  C   UNL     1      -1.202   4.295  -3.143  0.00  0.00    +0.008 A 
ATOM     13  C   UNL     1      -1.924   4.747  -4.231  0.00  0.00    +0.000 A 
ATOM     14  C   UNL     1      -3.239   4.354  -4.399  0.00  0.00    +0.000 A 
ATOM     15  C   UNL     1      -3.829   3.505  -3.482  0.00  0.00    +0.000 A 
ATOM     16  C   UNL     1      -3.105   3.048  -2.397  0.00  0.00    +0.008 A 
ENDBRANCH   7  11
BRANCH   1  20
ATOM     17  C   UNL     1       3.232  -2.452   1.971  0.00  0.00    +0.109 C 
ATOM     18  C   UNL     1       3.150  -0.947   1.937  0.00  0.00    +0.210 C 
ATOM     19  O   UNL     1       3.989  -0.281   2.505  0.00  0.00    -0.276 OA
ATOM     20  N   UNL     1       2.143  -0.343   1.275  0.00  0.00    -0.305 N 
ATOM     21  H   UNL     1       1.472  -0.876   0.821  0.00  0.00    +0.149 HD
ENDBRANCH   1  20
BRANCH  10  22
ATOM     22  O   UNL     1       2.075   1.255   3.656  0.00  0.00    -0.365 OA
ATOM     23  H   UNL     1       1.671   1.544   4.486  0.00  0.00    +0.213 HD
ENDBRANCH  10  22
BRANCH   2  24
ATOM     24  O   UNL     1      -0.011   0.963   0.007  0.00  0.00    -0.387 OA
ATOM     25  H   UNL     1       0.002  -0.004   0.002  0.00  0.00    +0.210 HD
ENDBRANCH   2  24
TORSDOF 4
