REMARK  Name = ZINC39919006
REMARK  10 active torsions:
REMARK  status: ('A' for Active; 'I' for Inactive)
REMARK    1  A    between atoms: C_1  and  C_2
REMARK    2  A    between atoms: N_8  and  C_9
REMARK    3  A    between atoms: C_9  and  C_10
REMARK    4  A    between atoms: C_10  and  N_11
REMARK    5  A    between atoms: N_11  and  C_12
REMARK    6  A    between atoms: N_11  and  C_13
REMARK    7  A    between atoms: N_21  and  C_24
REMARK    8  A    between atoms: C_24  and  C_25
REMARK    9  A    between atoms: C_31  and  C_35
REMARK   10  A    between atoms: C_32  and  N_34
REMARK                            x       y       z     vdW  Elec       q    Type
REMARK                         _______ _______ _______ _____ _____    ______ ____
ROOT
ATOM      1  C   UNL     1      -0.018   1.503   0.010  0.00  0.00    +0.064 C 
ATOM      2  C   UNL     1       0.002  -0.004   0.002  0.00  0.00    +0.022 A 
ATOM      3  C   UNL     1       0.005  -0.663  -1.176  0.00  0.00    +0.068 A 
ATOM      4  C   UNL     1       0.025  -2.074  -1.190  0.00  0.00    +0.142 A 
ATOM      5  C   UNL     1       0.042  -2.753   0.011  0.00  0.00    +0.084 A 
ATOM      6  C   UNL     1       0.038  -2.026   1.208  0.00  0.00    +0.260 A 
ATOM      7  O   UNL     1       0.053  -2.614   2.278  0.00  0.00    -0.267 OA
ATOM      8  N   UNL     1       0.022  -0.680   1.180  0.00  0.00    -0.314 N 
ATOM      9  C   UNL     1       0.067  -4.254   0.038  0.00  0.00    +0.147 C 
ATOM     10  C   UNL     1      -1.250  -4.802   0.494  0.00  0.00    -0.001 A 
ATOM     11  C   UNL     1      -2.515  -4.702  -0.043  0.00  0.00    +0.007 A 
ATOM     12  C   UNL     1      -3.543  -5.341   0.641  0.00  0.00    +0.000 A 
ATOM     13  C   UNL     1      -3.304  -6.043   1.805  0.00  0.00    +0.002 A 
ATOM     14  C   UNL     1      -2.035  -6.149   2.351  0.00  0.00    +0.024 A 
ATOM     15  C   UNL     1      -0.994  -5.511   1.673  0.00  0.00    +0.041 A 
ATOM     16  N   UNL     1       0.352  -5.452   1.988  0.00  0.00    -0.265 N 
ATOM     17  C   UNL     1       1.052  -4.735   1.084  0.00  0.00    +0.241 C 
ATOM     18  O   UNL     1       2.244  -4.516   1.106  0.00  0.00    -0.274 OA
ATOM     19  C   UNL     1       0.442  -4.803  -1.308  0.00  0.00    +0.110 C 
ATOM     20  C   UNL     1       0.401  -4.025  -2.416  0.00  0.00    +0.199 C 
ATOM     21  O   UNL     1       0.025  -2.736  -2.366  0.00  0.00    -0.441 OA
ENDROOT
BRANCH  20  22
ATOM     22  N   UNL     1       0.756  -4.569  -3.625  0.00  0.00    -0.328 N 
ATOM     23  H   UNL     1       1.030  -5.498  -3.678  0.00  0.00    +0.145 HD
ATOM     24  H   UNL     1       0.732  -4.025  -4.428  0.00  0.00    +0.145 HD
ENDBRANCH  20  22
BRANCH  19  25
ATOM     25  C   UNL     1       0.849  -6.172  -1.422  0.00  0.00    +0.102 C 
ATOM     26  N   UNL     1       1.172  -7.257  -1.512  0.00  0.00    -0.191 NA
ENDBRANCH  19  25
BRANCH   8  27
ATOM     27  C   UNL     1       0.022   0.067   2.441  0.00  0.00    +0.106 C 
BRANCH  27  28
ATOM     28  C   UNL     1      -1.421   0.304   2.892  0.00  0.00    -0.058 C 
BRANCH  28  29
ATOM     29  N   UNL     1      -1.422   1.053   4.155  0.00  0.00    +0.377 N 
ATOM     30  C   UNL     1      -2.804   1.385   4.527  0.00  0.00    -0.097 C 
ATOM     31  C   UNL     1      -0.815   0.232   5.212  0.00  0.00    -0.097 C 
ATOM     32  H   UNL     1      -0.890   1.903   4.043  0.00  0.00    -0.083 HD
ENDBRANCH  28  29
ENDBRANCH  27  28
ENDBRANCH   8  27
BRANCH  16  33
ATOM     33  C   UNL     1       0.948  -6.094   3.162  0.00  0.00    +0.148 C 
BRANCH  33  34
ATOM     34  C   UNL     1       1.381  -7.492   2.806  0.00  0.00    -0.030 A 
ATOM     35  C   UNL     1       0.501  -8.548   2.956  0.00  0.00    +0.005 A 
ATOM     36  C   UNL     1       0.899  -9.831   2.629  0.00  0.00    +0.000 A 
ATOM     37  C   UNL     1       2.176 -10.058   2.151  0.00  0.00    +0.000 A 
ATOM     38  C   UNL     1       3.055  -9.002   2.000  0.00  0.00    +0.000 A 
ATOM     39  C   UNL     1       2.656  -7.719   2.323  0.00  0.00    +0.005 A 
ENDBRANCH  33  34
ENDBRANCH  16  33
TORSDOF 7
