REMARK  Name = ZINC45469502
REMARK  11 active torsions:
REMARK  status: ('A' for Active; 'I' for Inactive)
REMARK    1  A    between atoms: C_1  and  C_2
REMARK    2  A    between atoms: C_2  and  O_3
REMARK    3  A    between atoms: O_3  and  C_4
REMARK    4  A    between atoms: C_4  and  C_6
REMARK    5  A    between atoms: C_7  and  C_19
REMARK    6  A    between atoms: C_12  and  C_14
REMARK    7  A    between atoms: C_19  and  N_20
REMARK    8  A    between atoms: N_20  and  C_21
REMARK    9  A    between atoms: N_20  and  C_22
REMARK   10  A    between atoms: C_22  and  C_23
REMARK   11  A    between atoms: C_26  and  C_29
REMARK                            x       y       z     vdW  Elec       q    Type
REMARK                         _______ _______ _______ _____ _____    ______ ____
ROOT
ATOM      1  C   UNL     1       1.295  -2.425  -2.750  0.00  0.00    +0.079 C 
ATOM      2  C   UNL     1       1.654  -3.725  -2.685  0.00  0.00    +0.008 C 
ATOM      3  N   UNL     1       2.467  -4.280  -3.631  0.00  0.00    -0.274 N 
ATOM      4  C   UNL     1       2.962  -3.603  -4.674  0.00  0.00    +0.304 C 
ATOM      5  O   UNL     1       3.679  -4.184  -5.466  0.00  0.00    -0.252 OA
ATOM      6  N   UNL     1       2.693  -2.297  -4.875  0.00  0.00    -0.285 N 
ATOM      7  C   UNL     1       1.819  -1.606  -3.912  0.00  0.00    +0.179 C 
ATOM      8  H   UNL     1       2.698  -5.218  -3.543  0.00  0.00    +0.156 HD
ATOM      9  H   UNL     1       3.063  -1.825  -5.637  0.00  0.00    +0.151 HD
ENDROOT
BRANCH   7  10
ATOM     10  C   UNL     1       2.589  -0.440  -3.348  0.00  0.00    +0.130 A 
ATOM     11  C   UNL     1       2.127   0.817  -3.215  0.00  0.00    +0.047 A 
ATOM     12  C   UNL     1       3.173   1.579  -2.646  0.00  0.00    +0.041 A 
ATOM     13  C   UNL     1       4.212   0.743  -2.466  0.00  0.00    +0.195 A 
ATOM     14  O   UNL     1       3.850  -0.479  -2.887  0.00  0.00    -0.466 OA
ENDBRANCH   7  10
BRANCH   1  15
ATOM     15  C   UNL     1       0.453  -1.849  -1.770  0.00  0.00    +0.339 C 
ATOM     16  O   UNL     1      -0.053  -2.551  -0.914  0.00  0.00    -0.245 OA
BRANCH  15  17
ATOM     17  O   UNL     1       0.210  -0.522  -1.785  0.00  0.00    -0.462 OA
BRANCH  17  19
ATOM     18  C   UNL     1      -0.806   1.503  -0.944  0.00  0.00    +0.048 C 
ATOM     19  C   UNL     1      -0.650  -0.008  -0.766  0.00  0.00    +0.229 C 
ENDBRANCH  17  19
ENDBRANCH  15  17
ENDBRANCH   1  15
BRANCH   2  20
ATOM     20  C   UNL     1       1.150  -4.578  -1.548  0.00  0.00    -0.026 C 
BRANCH  20  21
ATOM     21  N   UNL     1      -0.177  -5.110  -1.886  0.00  0.00    +0.384 N 
ATOM     22  C   UNL     1      -0.060  -6.027  -3.028  0.00  0.00    -0.095 C 
ATOM     23  H   UNL     1      -0.793  -4.348  -2.128  0.00  0.00    -0.081 HD
BRANCH  21  24
ATOM     24  C   UNL     1      -0.723  -5.834  -0.731  0.00  0.00    -0.043 C 
BRANCH  24  25
ATOM     25  C   UNL     1      -2.132  -6.274  -1.034  0.00  0.00    -0.064 A 
ATOM     26  C   UNL     1      -3.195  -5.445  -0.731  0.00  0.00    +0.002 A 
ATOM     27  C   UNL     1      -4.488  -5.849  -1.008  0.00  0.00    +0.003 A 
ATOM     28  C   UNL     1      -4.717  -7.082  -1.590  0.00  0.00    -0.050 A 
ATOM     29  C   UNL     1      -3.653  -7.911  -1.894  0.00  0.00    +0.003 A 
ATOM     30  C   UNL     1      -2.360  -7.505  -1.620  0.00  0.00    +0.002 A 
ATOM     31  C   UNL     1      -6.126  -7.522  -1.892  0.00  0.00    +0.044 C 
ENDBRANCH  24  25
ENDBRANCH  21  24
ENDBRANCH  20  21
ENDBRANCH   2  20
TORSDOF 8
