REMARK  Name = ZINC15931778
REMARK  8 active torsions:
REMARK  status: ('A' for Active; 'I' for Inactive)
REMARK    1  A    between atoms: C_1  and  C_2
REMARK    2  A    between atoms: C_9  and  N_32
REMARK    3  A    between atoms: C_10  and  C_30
REMARK    4  A    between atoms: C_11  and  C_13
REMARK    5  A    between atoms: C_16  and  C_18
REMARK    6  A    between atoms: C_18  and  O_19
REMARK    7  A    between atoms: O_19  and  C_20
REMARK    8  A    between atoms: C_24  and  C_26
REMARK                            x       y       z     vdW  Elec       q    Type
REMARK                         _______ _______ _______ _____ _____    ______ ____
ROOT
ATOM      1  C   UNL     1       0.489  -6.246  -0.750  0.00  0.00    +0.118 A 
ATOM      2  C   UNL     1       0.509  -6.303   0.593  0.00  0.00    +0.046 A 
ATOM      3  C   UNL     1       0.318  -4.983   1.062  0.00  0.00    +0.048 A 
ATOM      4  C   UNL     1       0.192  -4.198  -0.024  0.00  0.00    +0.142 A 
ATOM      5  O   UNL     1       0.291  -4.970  -1.119  0.00  0.00    -0.460 OA
ENDROOT
BRANCH   1  16
ATOM      6  C   UNL     1      -2.295  -8.436  -0.857  0.00  0.00    +0.068 C 
ATOM      7  C   UNL     1      -1.844  -7.983  -2.222  0.00  0.00    +0.068 A 
ATOM      8  C   UNL     1      -0.568  -7.548  -2.556  0.00  0.00    +0.052 A 
ATOM      9  C   UNL     1      -0.564  -7.229  -3.885  0.00  0.00    +0.223 A 
ATOM     10  N   UNL     1      -1.799  -7.457  -4.361  0.00  0.00    -0.246 N 
ATOM     11  H   UNL     1      -2.103  -7.314  -5.303  0.00  0.00    +0.192 HD
ATOM     12  N   UNL     1      -2.588  -7.930  -3.301  0.00  0.00    -0.176 NA
ATOM     13  O   UNL     1       0.541  -6.773  -4.525  0.00  0.00    -0.423 OA
ATOM     14  C   UNL     1       1.725  -6.893  -3.891  0.00  0.00    +0.201 C 
ATOM     15  C   UNL     1       1.848  -7.192  -2.578  0.00  0.00    +0.101 C 
ATOM     16  C   UNL     1       0.654  -7.417  -1.684  0.00  0.00    +0.137 C 
BRANCH  14  17
ATOM     17  N   UNL     1       2.872  -6.702  -4.620  0.00  0.00    -0.328 N 
ATOM     18  H   UNL     1       2.816  -6.486  -5.564  0.00  0.00    +0.145 HD
ATOM     19  H   UNL     1       3.738  -6.781  -4.191  0.00  0.00    +0.145 HD
ENDBRANCH  14  17
BRANCH  15  20
ATOM     20  C   UNL     1       3.160  -7.298  -2.014  0.00  0.00    +0.101 C 
ATOM     21  N   UNL     1       4.201  -7.382  -1.567  0.00  0.00    -0.191 NA
ENDBRANCH  15  20
ENDBRANCH   1  16
BRANCH   4  22
ATOM     22  C   UNL     1      -0.028  -2.708  -0.013  0.00  0.00    +0.303 C 
BRANCH  22  23
ATOM     23  O   UNL     1       1.235  -2.039  -0.021  0.00  0.00    -0.484 OA
BRANCH  23  24
ATOM     24  C   UNL     1       1.214  -0.680  -0.013  0.00  0.00    +0.122 A 
ATOM     25  C   UNL     1       0.002  -0.004   0.002  0.00  0.00    +0.046 A 
ATOM     26  C   UNL     1      -0.017   1.377   0.010  0.00  0.00    +0.004 A 
ATOM     27  C   UNL     1       1.171   2.086   0.002  0.00  0.00    +0.012 A 
ATOM     28  C   UNL     1       2.379   1.415  -0.013  0.00  0.00    +0.058 A 
ATOM     29  C   UNL     1       2.403   0.033  -0.021  0.00  0.00    +0.058 A 
BRANCH  28  30
ATOM     30  C   UNL     1       3.671   2.190  -0.021  0.00  0.00    +0.418 C 
ATOM     31  F   UNL     1       4.059   2.437  -1.342  0.00  0.00    -0.166 F 
ATOM     32  F   UNL     1       3.489   3.406   0.647  0.00  0.00    -0.166 F 
ATOM     33  F   UNL     1       4.665   1.447   0.625  0.00  0.00    -0.166 F 
ENDBRANCH  28  30
ENDBRANCH  23  24
ENDBRANCH  22  23
ENDBRANCH   4  22
TORSDOF 7
