REMARK  Name = ZINC47685615
REMARK  4 active torsions:
REMARK  status: ('A' for Active; 'I' for Inactive)
REMARK    1  A    between atoms: C_3  and  C_6
REMARK    2  A    between atoms: C_7  and  C_8
REMARK    3  A    between atoms: N_10  and  N_11
REMARK    4  A    between atoms: C_12  and  C_14
REMARK                            x       y       z     vdW  Elec       q    Type
REMARK                         _______ _______ _______ _____ _____    ______ ____
ROOT
ATOM      1  N   UNL     1       7.617  -1.852  -0.082  0.00  0.00    -0.230 N 
ATOM      2  C   UNL     1       8.258  -3.037  -0.094  0.00  0.00    +0.268 C 
ATOM      3  O   UNL     1       7.621  -4.074  -0.093  0.00  0.00    -0.268 OA
ATOM      4  H   UNL     1       8.125  -1.026  -0.083  0.00  0.00    +0.173 HD
ENDROOT
BRANCH   2   5
ATOM      5  C   UNL     1       9.725  -3.078  -0.109  0.00  0.00    +0.095 A 
ATOM      6  C   UNL     1      10.543  -4.166  -0.128  0.00  0.00    +0.068 A 
ATOM      7  C   UNL     1      11.940  -3.992  -0.140  0.00  0.00    +0.008 A 
ATOM      8  C   UNL     1      12.948  -4.991  -0.160  0.00  0.00    +0.013 A 
ATOM      9  C   UNL     1      14.262  -4.652  -0.169  0.00  0.00    +0.039 A 
ATOM     10  C   UNL     1      14.672  -3.321  -0.159  0.00  0.00    +0.124 A 
ATOM     11  C   UNL     1      13.722  -2.317  -0.140  0.00  0.00    +0.054 A 
ATOM     12  C   UNL     1      12.384  -2.649  -0.131  0.00  0.00    +0.024 A 
ATOM     13  S   UNL     1      10.875  -1.714  -0.114  0.00  0.00    -0.082 S 
ATOM     14  F   UNL     1      15.988  -3.014  -0.167  0.00  0.00    -0.205 F 
ATOM     15 CL   UNL     1       9.865  -5.764  -0.137  0.00  0.00    -0.082 Cl
ENDBRANCH   2   5
BRANCH   1  18
ATOM     16  C   UNL     1       5.575  -0.628  -0.055  0.00  0.00    +0.253 C 
ATOM     17  O   UNL     1       6.213   0.410  -0.056  0.00  0.00    -0.269 OA
ATOM     18  N   UNL     1       6.216  -1.813  -0.068  0.00  0.00    -0.231 N 
ATOM     19  H   UNL     1       5.708  -2.639  -0.067  0.00  0.00    +0.173 HD
BRANCH  16  21
ATOM     20  C   UNL     1       3.515   0.605  -0.029  0.00  0.00    +0.051 C 
ATOM     21  C   UNL     1       4.160  -0.588  -0.041  0.00  0.00    +0.072 C 
BRANCH  20  24
ATOM     22  C   UNL     1      -0.016   1.347   0.009  0.00  0.00    +0.042 A 
ATOM     23  C   UNL     1       1.318   1.781  -0.001  0.00  0.00    +0.049 A 
ATOM     24  C   UNL     1       2.100   0.644  -0.015  0.00  0.00    +0.128 A 
ATOM     25  O   UNL     1       1.275  -0.424  -0.012  0.00  0.00    -0.464 OA
ATOM     26  C   UNL     1       0.002  -0.004   0.002  0.00  0.00    +0.195 A 
ENDBRANCH  20  24
ENDBRANCH  16  21
ENDBRANCH   1  18
TORSDOF 4
