REMARK  Name = ZINC20574992
REMARK  9 active torsions:
REMARK  status: ('A' for Active; 'I' for Inactive)
REMARK    1  A    between atoms: C_1  and  C_2
REMARK    2  A    between atoms: C_4  and  C_29
REMARK    3  A    between atoms: C_5  and  N_9
REMARK    4  A    between atoms: C_6  and  C_8
REMARK    5  A    between atoms: C_10  and  C_12
REMARK    6  A    between atoms: C_12  and  N_13
REMARK    7  A    between atoms: C_14  and  N_28
REMARK    8  A    between atoms: C_15  and  C_18
REMARK    9  A    between atoms: N_20  and  C_21
REMARK                            x       y       z     vdW  Elec       q    Type
REMARK                         _______ _______ _______ _____ _____    ______ ____
ROOT
ATOM      1  N   UNL     1      -5.954   4.167  -1.036  0.00  0.00    -0.222 N 
ATOM      2  C   UNL     1      -6.887   3.675  -0.187  0.00  0.00    +0.148 A 
ATOM      3  C   UNL     1      -7.788   2.960  -0.966  0.00  0.00    +0.188 A 
ATOM      4  N   UNL     1      -7.383   3.036  -2.248  0.00  0.00    -0.123 NA
ATOM      5  N   UNL     1      -6.311   3.743  -2.324  0.00  0.00    -0.063 NA
ENDROOT
BRANCH   3   6
ATOM      6  C   UNL     1      -8.974   2.246  -0.478  0.00  0.00    +0.272 C 
ATOM      7  O   UNL     1      -9.239   2.249   0.710  0.00  0.00    -0.268 OA
ATOM      8  N   UNL     1      -9.769   1.588  -1.344  0.00  0.00    -0.279 N 
ATOM      9  H   UNL     1      -9.565   1.636  -2.424  0.00  0.00    +0.155 HD
BRANCH   8  10
ATOM     10  C   UNL     1     -10.854   0.843  -0.870  0.00  0.00    +0.048 A 
ATOM     11  C   UNL     1     -11.511   1.231   0.290  0.00  0.00    +0.024 A 
ATOM     12  C   UNL     1     -12.585   0.496   0.752  0.00  0.00    +0.002 A 
ATOM     13  C   UNL     1     -13.001  -0.631   0.067  0.00  0.00    +0.001 A 
ATOM     14  C   UNL     1     -12.346  -1.024  -1.085  0.00  0.00    +0.017 A 
ATOM     15  C   UNL     1     -11.274  -0.290  -1.556  0.00  0.00    +0.039 A 
ATOM     16 BR   UNL     1     -10.378  -0.829  -3.132  0.00  0.00    -0.048 Br
ENDBRANCH   8  10
ENDBRANCH   3   6
BRANCH   2  17
ATOM     17  N   UNL     1      -6.934   3.850   1.181  0.00  0.00    -0.341 N 
ATOM     18  H   UNL     1      -7.748   3.397   1.765  0.00  0.00    +0.144 HD
ATOM     19  H   UNL     1      -6.157   4.442   1.686  0.00  0.00    +0.144 HD
ENDBRANCH   2  17
BRANCH   1  20
ATOM     20  C   UNL     1      -4.797   4.991  -0.679  0.00  0.00    +0.243 C 
BRANCH  20  22
ATOM     21  N   UNL     1      -2.437   4.641  -0.024  0.00  0.00    -0.284 N 
ATOM     22  C   UNL     1      -3.620   4.099  -0.379  0.00  0.00    +0.239 C 
ATOM     23  O   UNL     1      -3.736   2.895  -0.456  0.00  0.00    -0.273 OA
ATOM     24  H   UNL     1      -2.350   5.729   0.113  0.00  0.00    +0.155 HD
BRANCH  21  29
ATOM     25  C   UNL     1       2.087   1.309   0.759  0.00  0.00    +0.044 C 
ATOM     26  C   UNL     1       0.885   2.194   0.551  0.00  0.00    -0.050 A 
ATOM     27  C   UNL     1       0.173   2.124  -0.632  0.00  0.00    +0.008 A 
ATOM     28  C   UNL     1      -0.925   2.938  -0.828  0.00  0.00    -0.029 A 
ATOM     29  C   UNL     1      -1.321   3.819   0.169  0.00  0.00    +0.039 A 
ATOM     30  C   UNL     1      -0.605   3.887   1.357  0.00  0.00    -0.029 A 
ATOM     31  C   UNL     1       0.496   3.074   1.545  0.00  0.00    +0.008 A 
ATOM     32  C   UNL     1      -1.028   4.846   2.439  0.00  0.00    +0.045 C 
ATOM     33  C   UNL     1      -1.696   2.865  -2.121  0.00  0.00    +0.045 C 
ENDBRANCH  21  29
ENDBRANCH  20  22
ENDBRANCH   1  20
TORSDOF 6
