REMARK  Name = ZINC62037812
REMARK  8 active torsions:
REMARK  status: ('A' for Active; 'I' for Inactive)
REMARK    1  A    between atoms: C_1  and  C_2
REMARK    2  A    between atoms: C_5  and  C_8
REMARK    3  A    between atoms: C_8  and  N_9
REMARK    4  A    between atoms: N_9  and  S_10
REMARK    5  A    between atoms: S_10  and  C_13
REMARK    6  A    between atoms: C_16  and  C_19
REMARK    7  A    between atoms: C_19  and  C_21
REMARK    8  A    between atoms: C_19  and  N_22
REMARK                            x       y       z     vdW  Elec       q    Type
REMARK                         _______ _______ _______ _____ _____    ______ ____
ROOT
ATOM      1  S   UNL     1       1.789  -6.262   0.517  0.00  0.00    +0.059 S 
ATOM      2  O   UNL     1       3.197  -6.415   0.406  0.00  0.00    -0.153 OA
ATOM      3  O   UNL     1       1.089  -6.513   1.728  0.00  0.00    -0.153 OA
ENDROOT
BRANCH   1   4
ATOM      4  C   UNL     1       1.070  -7.306  -0.706  0.00  0.00    +0.105 A 
ATOM      5  C   UNL     1      -0.227  -7.759  -0.553  0.00  0.00    +0.029 A 
ATOM      6  C   UNL     1      -0.791  -8.578  -1.512  0.00  0.00    +0.004 A 
ATOM      7  C   UNL     1      -0.058  -8.945  -2.626  0.00  0.00    -0.062 A 
ATOM      8  C   UNL     1       1.239  -8.492  -2.779  0.00  0.00    +0.004 A 
ATOM      9  C   UNL     1       1.801  -7.669  -1.822  0.00  0.00    +0.029 A 
BRANCH   7  10
ATOM     10  C   UNL     1      -0.673  -9.839  -3.671  0.00  0.00    -0.047 C 
ATOM     11  C   UNL     1      -1.150  -8.991  -4.852  0.00  0.00    -0.009 C 
BRANCH  10  12
ATOM     12  N   UNL     1       0.329 -10.807  -4.138  0.00  0.00    +0.382 N 
ATOM     13  H   UNL     1       0.644 -11.367  -3.360  0.00  0.00    -0.089 HD
ATOM     14  H   UNL     1      -0.083 -11.406  -4.838  0.00  0.00    -0.089 HD
ATOM     15  H   UNL     1       1.113 -10.314  -4.537  0.00  0.00    -0.089 HD
ENDBRANCH  10  12
ENDBRANCH   7  10
ENDBRANCH   1   4
BRANCH   1  16
ATOM     16  N   UNL     1       1.447  -4.699   0.089  0.00  0.00    -0.186 NA
ATOM     17  H   UNL     1       2.166  -4.095  -0.154  0.00  0.00    +0.148 HD
BRANCH  16  18
ATOM     18  C   UNL     1       0.059  -4.229   0.077  0.00  0.00    +0.142 C 
BRANCH  18  23
ATOM     19  C   UNL     1      -0.018   1.503   0.010  0.00  0.00    +0.065 C 
ATOM     20  C   UNL     1       0.002  -0.004   0.002  0.00  0.00    +0.038 A 
ATOM     21  C   UNL     1       0.005  -0.681  -1.203  0.00  0.00    +0.023 A 
ATOM     22  C   UNL     1       0.024  -2.067  -1.200  0.00  0.00    +0.008 A 
ATOM     23  C   UNL     1       0.039  -2.724   0.021  0.00  0.00    -0.014 A 
ATOM     24  C   UNL     1       0.035  -1.980   1.186  0.00  0.00    +0.116 A 
ATOM     25  N   UNL     1       0.022  -0.662   1.145  0.00  0.00    -0.260 NA
ENDBRANCH  18  23
ENDBRANCH  16  18
ENDBRANCH   1  16
TORSDOF 6
