REMARK  Name = ZINC37553053
REMARK  7 active torsions:
REMARK  status: ('A' for Active; 'I' for Inactive)
REMARK    1  A    between atoms: C_1  and  C_2
REMARK    2  A    between atoms: C_4  and  C_17
REMARK    3  A    between atoms: C_7  and  N_8
REMARK    4  A    between atoms: N_8  and  S_9
REMARK    5  A    between atoms: S_9  and  N_12
REMARK    6  A    between atoms: C_18  and  C_19
REMARK    7  A    between atoms: C_19  and  N_20
REMARK                            x       y       z     vdW  Elec       q    Type
REMARK                         _______ _______ _______ _____ _____    ______ ____
ROOT
ATOM      1  C   UNL     1       0.161   1.700   0.150  0.00  0.00    +0.046 C 
ATOM      2  C   UNL     1       0.271   0.203   0.024  0.00  0.00    -0.027 A 
ATOM      3  C   UNL     1       0.448  -0.373  -1.216  0.00  0.00    +0.022 A 
ATOM      4  C   UNL     1       0.550  -1.760  -1.332  0.00  0.00    +0.025 A 
ATOM      5  C   UNL     1       0.472  -2.561  -0.191  0.00  0.00    +0.019 A 
ATOM      6  C   UNL     1       0.294  -1.980   1.046  0.00  0.00    +0.026 A 
ATOM      7  C   UNL     1       0.199  -0.597   1.159  0.00  0.00    +0.052 A 
ENDROOT
BRANCH   7   8
ATOM      8  N   UNL     1       0.025  -0.012   2.413  0.00  0.00    -0.206 N 
ATOM      9  H   UNL     1      -0.525   0.782   2.506  0.00  0.00    +0.175 HD
BRANCH   8  10
ATOM     10  S   UNL     1       0.759  -0.671   3.744  0.00  0.00    +0.112 S 
ATOM     11  O   UNL     1       0.515   0.218   4.825  0.00  0.00    -0.138 OA
ATOM     12  O   UNL     1       0.376  -2.039   3.782  0.00  0.00    -0.138 OA
BRANCH  10  13
ATOM     13  N   UNL     1       2.391  -0.644   3.467  0.00  0.00    -0.164 NA
ATOM     14  C   UNL     1       3.168  -1.710   2.818  0.00  0.00    +0.111 C 
ATOM     15  C   UNL     1       4.644  -1.257   2.802  0.00  0.00    +0.018 C 
ATOM     16  C   UNL     1       4.699  -0.214   3.949  0.00  0.00    +0.018 C 
ATOM     17  C   UNL     1       3.305   0.456   3.825  0.00  0.00    +0.111 C 
ENDBRANCH  10  13
ENDBRANCH   8  10
ENDBRANCH   7   8
BRANCH   4  18
ATOM     18  C   UNL     1       0.734  -2.361  -2.619  0.00  0.00    -0.068 C 
ATOM     19  C   UNL     1       0.885  -2.853  -3.674  0.00  0.00    -0.117 C 
BRANCH  19  20
ATOM     20  C   UNL     1       1.074  -3.470  -4.997  0.00  0.00    +0.005 C 
BRANCH  20  21
ATOM     21  N   UNL     1       1.150  -4.930  -4.849  0.00  0.00    +0.385 N 
ATOM     22  H   UNL     1       1.280  -5.353  -5.756  0.00  0.00    -0.089 HD
ATOM     23  H   UNL     1       1.929  -5.167  -4.253  0.00  0.00    -0.089 HD
ATOM     24  H   UNL     1       0.295  -5.272  -4.438  0.00  0.00    -0.089 HD
ENDBRANCH  20  21
ENDBRANCH  19  20
ENDBRANCH   4  18
TORSDOF 6
