REMARK  Name = ZINC63503406
REMARK  10 active torsions:
REMARK  status: ('A' for Active; 'I' for Inactive)
REMARK    1  A    between atoms: C_1  and  C_2
REMARK    2  A    between atoms: C_6  and  O_9
REMARK    3  A    between atoms: C_7  and  C_8
REMARK    4  A    between atoms: O_9  and  C_10
REMARK    5  A    between atoms: C_10  and  C_11
REMARK    6  A    between atoms: C_13  and  C_19
REMARK    7  A    between atoms: C_16  and  O_17
REMARK    8  A    between atoms: O_17  and  C_18
REMARK    9  A    between atoms: C_26  and  O_31
REMARK   10  A    between atoms: O_31  and  C_32
REMARK                            x       y       z     vdW  Elec       q    Type
REMARK                         _______ _______ _______ _____ _____    ______ ____
ROOT
ATOM      1  C   UNL     1       0.083  -4.787   3.662  0.00  0.00    +0.032 A 
ATOM      2  C   UNL     1       0.071  -3.954   4.764  0.00  0.00    +0.015 A 
ATOM      3  C   UNL     1       0.084  -4.491   6.038  0.00  0.00    -0.028 A 
ATOM      4  C   UNL     1       0.109  -5.862   6.213  0.00  0.00    +0.009 A 
ATOM      5  C   UNL     1       0.120  -6.699   5.115  0.00  0.00    +0.046 A 
ATOM      6  C   UNL     1       0.102  -6.164   3.835  0.00  0.00    +0.126 A 
ENDROOT
BRANCH   3   7
ATOM      7  C   UNL     1       0.072  -3.579   7.239  0.00  0.00    +0.111 C 
ATOM      8  C   UNL     1      -1.344  -3.502   7.813  0.00  0.00    +0.128 C 
ATOM      9  C   UNL     1      -1.235  -2.707   9.110  0.00  0.00    -0.035 C 
ATOM     10  C   UNL     1      -2.106  -1.714   9.016  0.00  0.00    +0.003 A 
ATOM     11  C   UNL     1      -2.520  -0.672   9.969  0.00  0.00    +0.055 A 
ATOM     12  C   UNL     1      -3.450   0.221   9.533  0.00  0.00    +0.121 A 
ATOM     13  C   UNL     1      -4.019   0.198   8.251  0.00  0.00    +0.047 A 
ATOM     14  C   UNL     1      -3.716  -0.720   7.298  0.00  0.00    +0.029 A 
ATOM     15  C   UNL     1      -2.724  -1.743   7.653  0.00  0.00    +0.043 A 
ATOM     16  N   UNL     1      -2.261  -2.758   6.951  0.00  0.00    -0.376 N 
ATOM     17  C   UNL     1      -0.209  -3.049  10.163  0.00  0.00    +0.048 C 
ATOM     18  C   UNL     1       1.130  -3.215   9.421  0.00  0.00    +0.086 C 
ATOM     19  N   UNL     1       0.966  -4.116   8.277  0.00  0.00    -0.307 NA
ATOM     20  H   UNL     1       0.662  -5.030   8.579  0.00  0.00    +0.123 HD
ATOM     21  H   UNL     1      -2.478  -2.976   6.031  0.00  0.00    +0.160 HD
BRANCH  12  22
ATOM     22  O   UNL     1      -3.852   1.194  10.392  0.00  0.00    -0.495 OA
ATOM     23  C   UNL     1      -4.829   2.120   9.912  0.00  0.00    +0.277 C 
ENDBRANCH  12  22
ENDBRANCH   3   7
BRANCH   6  24
ATOM     24  O   UNL     1       0.107  -6.986   2.753  0.00  0.00    -0.495 OA
ATOM     25  C   UNL     1       0.127  -8.392   3.006  0.00  0.00    +0.277 C 
ENDBRANCH   6  24
BRANCH   1  26
ATOM     26  C   UNL     1       0.069  -4.202   2.274  0.00  0.00    +0.268 C 
BRANCH  26  27
ATOM     27  O   UNL     1       0.050  -2.776   2.358  0.00  0.00    -0.487 OA
BRANCH  27  33
ATOM     28  C   UNL     1      -0.018   1.503   0.010  0.00  0.00    +0.044 C 
ATOM     29  C   UNL     1       0.002  -0.004   0.002  0.00  0.00    -0.044 A 
ATOM     30  C   UNL     1       0.006  -0.688  -1.200  0.00  0.00    +0.004 A 
ATOM     31  C   UNL     1       0.024  -2.071  -1.211  0.00  0.00    +0.004 A 
ATOM     32  C   UNL     1       0.039  -2.772  -0.020  0.00  0.00    +0.046 A 
ATOM     33  C   UNL     1       0.035  -2.088   1.186  0.00  0.00    +0.124 A 
ATOM     34  C   UNL     1       0.023  -0.700   1.195  0.00  0.00    -0.006 A 
ATOM     35  C   UNL     1       0.026   0.046   2.504  0.00  0.00    +0.048 C 
ENDBRANCH  27  33
ENDBRANCH  26  27
ENDBRANCH   1  26
TORSDOF 6
