REMARK  Name = ZINC36644572
REMARK  6 active torsions:
REMARK  status: ('A' for Active; 'I' for Inactive)
REMARK    1  A    between atoms: C_1  and  C_2
REMARK    2  A    between atoms: C_2  and  C_4
REMARK    3  A    between atoms: C_2  and  N_10
REMARK    4  A    between atoms: C_11  and  C_13
REMARK    5  A    between atoms: C_18  and  N_19
REMARK    6  A    between atoms: C_20  and  C_22
REMARK                            x       y       z     vdW  Elec       q    Type
REMARK                         _______ _______ _______ _____ _____    ______ ____
ROOT
ATOM      1  C   UNL     1       2.776  -1.403  -2.345  0.00  0.00    +0.058 A 
ATOM      2  C   UNL     1       2.043  -1.815  -3.460  0.00  0.00    +0.015 A 
ATOM      3  C   UNL     1       2.652  -1.893  -4.693  0.00  0.00    +0.001 A 
ATOM      4  C   UNL     1       3.991  -1.565  -4.834  0.00  0.00    +0.002 A 
ATOM      5  C   UNL     1       4.729  -1.157  -3.741  0.00  0.00    +0.024 A 
ATOM      6  C   UNL     1       4.130  -1.066  -2.492  0.00  0.00    +0.046 A 
ENDROOT
BRANCH   1   8
ATOM      7  N   UNL     1       0.802  -1.525  -0.906  0.00  0.00    -0.305 N 
ATOM      8  C   UNL     1       2.129  -1.317  -1.022  0.00  0.00    +0.246 C 
ATOM      9  O   UNL     1       2.792  -1.057  -0.037  0.00  0.00    -0.270 OA
ATOM     10  H   UNL     1       0.273  -1.732  -1.692  0.00  0.00    +0.150 HD
BRANCH   7  12
ATOM     11  C   UNL     1      -0.191   0.019   0.710  0.00  0.00    +0.033 C 
ATOM     12  C   UNL     1       0.160  -1.439   0.408  0.00  0.00    +0.100 C 
BRANCH  12  13
ATOM     13  C   UNL     1      -1.098  -2.269   0.407  0.00  0.00    -0.027 A 
ATOM     14  C   UNL     1      -1.919  -2.279  -0.705  0.00  0.00    +0.005 A 
ATOM     15  C   UNL     1      -3.073  -3.040  -0.705  0.00  0.00    +0.000 A 
ATOM     16  C   UNL     1      -3.405  -3.792   0.406  0.00  0.00    +0.000 A 
ATOM     17  C   UNL     1      -2.584  -3.784   1.517  0.00  0.00    +0.000 A 
ATOM     18  C   UNL     1      -1.428  -3.026   1.516  0.00  0.00    +0.005 A 
ENDBRANCH  12  13
ENDBRANCH   7  12
ENDBRANCH   1   8
BRANCH   6  19
ATOM     19  N   UNL     1       4.870  -0.649  -1.389  0.00  0.00    -0.284 N 
ATOM     20  C   UNL     1       6.124  -1.109  -1.206  0.00  0.00    +0.225 C 
ATOM     21  O   UNL     1       6.634  -1.827  -2.039  0.00  0.00    -0.275 OA
ATOM     22  H   UNL     1       4.484  -0.026  -0.752  0.00  0.00    +0.155 HD
BRANCH  20  23
ATOM     23  C   UNL     1       6.891  -0.731   0.035  0.00  0.00    +0.116 C 
ATOM     24  C   UNL     1       7.043   0.789   0.097  0.00  0.00    +0.113 C 
ATOM     25  C   UNL     1       8.016   1.251  -0.954  0.00  0.00    +0.218 C 
ATOM     26  O   UNL     1       7.835   2.312  -1.513  0.00  0.00    -0.275 OA
ATOM     27  N   UNL     1       9.084   0.500  -1.280  0.00  0.00    -0.285 N 
ATOM     28  C   UNL     1       9.299  -0.734  -0.659  0.00  0.00    +0.037 A 
ATOM     29  C   UNL     1       8.255  -1.371  -0.004  0.00  0.00    -0.014 A 
ATOM     30  C   UNL     1       8.467  -2.589   0.611  0.00  0.00    +0.006 A 
ATOM     31  C   UNL     1       9.720  -3.174   0.574  0.00  0.00    +0.000 A 
ATOM     32  C   UNL     1      10.762  -2.541  -0.078  0.00  0.00    +0.002 A 
ATOM     33  C   UNL     1      10.555  -1.324  -0.696  0.00  0.00    +0.023 A 
ATOM     34  H   UNL     1       9.708   0.817  -1.952  0.00  0.00    +0.155 HD
ENDBRANCH  20  23
ENDBRANCH   6  19
TORSDOF 5
