REMARK  Name = ZINC18194593
REMARK  4 active torsions:
REMARK  status: ('A' for Active; 'I' for Inactive)
REMARK    1  A    between atoms: C_1  and  C_2
REMARK    2  A    between atoms: C_5  and  N_8
REMARK    3  A    between atoms: C_12  and  C_13
REMARK    4  A    between atoms: C_18  and  O_19
REMARK                            x       y       z     vdW  Elec       q    Type
REMARK                         _______ _______ _______ _____ _____    ______ ____
ROOT
ATOM      1  N   UNL     1      -3.703   7.360   0.393  0.00  0.00    -0.217 N 
ATOM      2  C   UNL     1      -3.623   6.143   0.971  0.00  0.00    +0.262 C 
ATOM      3  O   UNL     1      -4.562   5.684   1.594  0.00  0.00    -0.269 OA
ATOM      4  C   UNL     1      -2.365   5.385   0.826  0.00  0.00    +0.100 C 
ATOM      5  C   UNL     1      -2.208   4.133   1.390  0.00  0.00    +0.029 C 
ATOM      6  C   UNL     1      -1.280   6.025   0.057  0.00  0.00    +0.255 C 
ATOM      7  O   UNL     1      -0.212   5.465  -0.102  0.00  0.00    -0.270 OA
ATOM      8  N   UNL     1      -1.507   7.247  -0.469  0.00  0.00    -0.263 N 
ATOM      9  C   UNL     1      -2.677   7.878  -0.297  0.00  0.00    +0.150 C 
ATOM     10  S   UNL     1      -2.872   9.428  -0.995  0.00  0.00    -0.018 S 
ATOM     11  H   UNL     1      -0.806   7.680  -0.981  0.00  0.00    +0.157 HD
ENDROOT
BRANCH   1  16
ATOM     12  C   UNL     1      -8.497  10.356   0.895  0.00  0.00    +0.044 C 
ATOM     13  C   UNL     1      -7.224   9.560   0.761  0.00  0.00    -0.050 A 
ATOM     14  C   UNL     1      -7.060   8.694  -0.304  0.00  0.00    +0.005 A 
ATOM     15  C   UNL     1      -5.894   7.963  -0.429  0.00  0.00    +0.024 A 
ATOM     16  C   UNL     1      -4.887   8.099   0.517  0.00  0.00    +0.043 A 
ATOM     17  C   UNL     1      -5.057   8.966   1.589  0.00  0.00    +0.024 A 
ATOM     18  C   UNL     1      -6.222   9.698   1.705  0.00  0.00    +0.005 A 
ENDBRANCH   1  16
BRANCH   5  19
ATOM     19  C   UNL     1      -1.035   3.325   1.062  0.00  0.00    +0.019 A 
ATOM     20  C   UNL     1      -0.657   3.138  -0.277  0.00  0.00    +0.031 A 
ATOM     21  C   UNL     1       0.449   2.376  -0.576  0.00  0.00    +0.042 A 
ATOM     22  C   UNL     1       1.194   1.791   0.439  0.00  0.00    +0.023 A 
ATOM     23  C   UNL     1       0.835   1.966   1.761  0.00  0.00    +0.047 A 
ATOM     24  C   UNL     1      -0.279   2.725   2.086  0.00  0.00    +0.124 A 
ATOM     25 CL   UNL     1       0.916   2.143  -2.232  0.00  0.00    -0.084 Cl
BRANCH  24  26
ATOM     26  O   UNL     1      -0.635   2.892   3.384  0.00  0.00    -0.506 OA
ATOM     27  H   UNL     1      -0.232   3.664   3.805  0.00  0.00    +0.292 HD
ENDBRANCH  24  26
ENDBRANCH   5  19
TORSDOF 3
