REMARK  Name = ZINC08309202
REMARK  7 active torsions:
REMARK  status: ('A' for Active; 'I' for Inactive)
REMARK    1  A    between atoms: C_1  and  C_2
REMARK    2  A    between atoms: C_2  and  C_4
REMARK    3  A    between atoms: C_2  and  N_48
REMARK    4  A    between atoms: N_6  and  C_7
REMARK    5  A    between atoms: C_8  and  C_12
REMARK    6  A    between atoms: N_17  and  C_20
REMARK    7  A    between atoms: C_25  and  O_26
REMARK                            x       y       z     vdW  Elec       q    Type
REMARK                         _______ _______ _______ _____ _____    ______ ____
ROOT
ATOM      1  C   UNL     1      -2.750  -0.122   1.159  0.00  0.00    -0.004 C 
ATOM      2  C   UNL     1      -2.471   0.865   0.024  0.00  0.00    +0.017 C 
ENDROOT
BRANCH   2   8
ATOM      3  C   UNL     1      -3.352   2.851   1.093  0.00  0.00    -0.059 C 
ATOM      4  C   UNL     1      -4.418   3.943   0.982  0.00  0.00    +0.086 C 
ATOM      5  N   UNL     1      -5.753   3.329   1.027  0.00  0.00    -0.331 N 
ATOM      6  C   UNL     1      -5.924   2.367  -0.071  0.00  0.00    +0.086 C 
ATOM      7  C   UNL     1      -4.857   1.274   0.041  0.00  0.00    -0.059 C 
ATOM      8  N   UNL     1      -3.522   1.904  -0.028  0.00  0.00    +0.389 N 
ATOM      9  H   UNL     1      -3.440   2.417  -0.914  0.00  0.00    -0.081 HD
BRANCH   5  10
ATOM     10  C   UNL     1      -6.756   4.304   1.000  0.00  0.00    +0.072 A 
ATOM     11  C   UNL     1      -6.432   5.627   0.736  0.00  0.00    +0.027 A 
ATOM     12  C   UNL     1      -7.425   6.588   0.705  0.00  0.00    +0.002 A 
ATOM     13  C   UNL     1      -8.740   6.236   0.946  0.00  0.00    +0.004 A 
ATOM     14  C   UNL     1      -9.069   4.920   1.215  0.00  0.00    +0.047 A 
ATOM     15  C   UNL     1      -8.081   3.951   1.244  0.00  0.00    +0.138 A 
BRANCH  15  16
ATOM     16  O   UNL     1      -8.403   2.656   1.509  0.00  0.00    -0.505 OA
ATOM     17  H   UNL     1      -8.304   2.409   2.438  0.00  0.00    +0.292 HD
ENDBRANCH  15  16
ENDBRANCH   5  10
ENDBRANCH   2   8
BRANCH   2  18
ATOM     18  C   UNL     1      -2.451   0.128  -1.290  0.00  0.00    +0.204 C 
ATOM     19  O   UNL     1      -3.316   0.336  -2.115  0.00  0.00    -0.277 OA
ATOM     20  N   UNL     1      -1.474  -0.763  -1.548  0.00  0.00    -0.281 N 
ATOM     21  H   UNL     1      -0.782  -0.930  -0.889  0.00  0.00    +0.155 HD
BRANCH  20  22
ATOM     22  C   UNL     1      -1.459  -1.446  -2.755  0.00  0.00    +0.084 A 
ATOM     23  C   UNL     1      -0.544  -2.392  -3.201  0.00  0.00    +0.065 A 
ATOM     24  C   UNL     1      -0.775  -2.952  -4.511  0.00  0.00    +0.022 A 
ATOM     25  C   UNL     1      -1.845  -2.503  -5.191  0.00  0.00    +0.048 A 
ATOM     26  S   UNL     1      -2.572  -1.320  -4.076  0.00  0.00    -0.081 S 
BRANCH  23  27
ATOM     27  C   UNL     1       0.597  -2.805  -2.378  0.00  0.00    +0.244 C 
ATOM     28  O   UNL     1       0.761  -2.317  -1.276  0.00  0.00    -0.270 OA
ATOM     29  N   UNL     1       1.465  -3.726  -2.843  0.00  0.00    -0.325 N 
ATOM     30  H   UNL     1       1.334  -4.116  -3.722  0.00  0.00    +0.145 HD
ATOM     31  H   UNL     1       2.220  -4.000  -2.299  0.00  0.00    +0.145 HD
ENDBRANCH  23  27
ENDBRANCH  20  22
ENDBRANCH   2  18
TORSDOF 6
