REMARK  Name = ZINC58843068
REMARK  7 active torsions:
REMARK  status: ('A' for Active; 'I' for Inactive)
REMARK    1  A    between atoms: C_1  and  C_2
REMARK    2  A    between atoms: C_2  and  C_4
REMARK    3  A    between atoms: C_2  and  N_14
REMARK    4  A    between atoms: C_7  and  S_10
REMARK    5  A    between atoms: S_10  and  N_13
REMARK    6  A    between atoms: N_17  and  C_18
REMARK    7  A    between atoms: C_21  and  C_24
REMARK                            x       y       z     vdW  Elec       q    Type
REMARK                         _______ _______ _______ _____ _____    ______ ____
ROOT
ATOM      1  N   UNL     1       0.689  -0.471  -1.205  0.00  0.00    -0.293 N 
ATOM      2  C   UNL     1       0.006  -0.610  -2.358  0.00  0.00    +0.304 C 
ATOM      3  O   UNL     1      -1.180  -0.345  -2.397  0.00  0.00    -0.252 OA
ATOM      4  N   UNL     1       0.637  -1.043  -3.467  0.00  0.00    -0.269 N 
ATOM      5  H   UNL     1       1.635  -0.683  -1.173  0.00  0.00    +0.151 HD
ATOM      6  H   UNL     1       1.596  -1.190  -3.454  0.00  0.00    +0.156 HD
ENDROOT
BRANCH   4   7
ATOM      7  C   UNL     1      -0.090  -1.279  -4.638  0.00  0.00    +0.035 A 
ATOM      8  C   UNL     1      -1.172  -0.468  -4.959  0.00  0.00    +0.024 A 
ATOM      9  C   UNL     1      -1.891  -0.700  -6.112  0.00  0.00    +0.010 A 
ATOM     10  C   UNL     1      -1.531  -1.748  -6.958  0.00  0.00    -0.018 A 
ATOM     11  C   UNL     1      -0.445  -2.559  -6.635  0.00  0.00    +0.010 A 
ATOM     12  C   UNL     1       0.274  -2.321  -5.483  0.00  0.00    +0.024 A 
BRANCH  10  13
ATOM     13  C   UNL     1      -2.302  -1.999  -8.200  0.00  0.00    -0.018 A 
ATOM     14  C   UNL     1      -3.385  -1.185  -8.527  0.00  0.00    +0.008 A 
ATOM     15  C   UNL     1      -4.099  -1.423  -9.684  0.00  0.00    +0.001 A 
ATOM     16  C   UNL     1      -3.742  -2.467 -10.518  0.00  0.00    +0.000 A 
ATOM     17  C   UNL     1      -2.669  -3.279 -10.198  0.00  0.00    +0.001 A 
ATOM     18  C   UNL     1      -1.944  -3.046  -9.046  0.00  0.00    +0.008 A 
ENDBRANCH  10  13
ENDBRANCH   4   7
BRANCH   1  20
ATOM     19  C   UNL     1      -0.028   1.529   0.006  0.00  0.00    +0.033 C 
ATOM     20  C   UNL     1       0.003  -0.001   0.001  0.00  0.00    +0.102 C 
BRANCH  20  21
ATOM     21  C   UNL     1       0.739  -0.492   1.221  0.00  0.00    -0.027 A 
ATOM     22  C   UNL     1       2.121  -0.493   1.242  0.00  0.00    +0.007 A 
ATOM     23  C   UNL     1       2.795  -0.944   2.361  0.00  0.00    +0.029 A 
ATOM     24  C   UNL     1       2.087  -1.393   3.460  0.00  0.00    +0.105 A 
ATOM     25  C   UNL     1       0.705  -1.391   3.440  0.00  0.00    +0.029 A 
ATOM     26  C   UNL     1       0.031  -0.937   2.322  0.00  0.00    +0.007 A 
BRANCH  24  27
ATOM     27  S   UNL     1       2.947  -1.969   4.886  0.00  0.00    +0.056 S 
ATOM     28  O   UNL     1       2.060  -2.844   5.569  0.00  0.00    -0.153 OA
ATOM     29  O   UNL     1       4.234  -2.379   4.447  0.00  0.00    -0.153 OA
BRANCH  27  30
ATOM     30  N   UNL     1       3.180  -0.663   5.878  0.00  0.00    -0.204 NA
ATOM     31  H   UNL     1       3.221  -0.785   6.840  0.00  0.00    +0.144 HD
ATOM     32  H   UNL     1       3.275   0.224   5.498  0.00  0.00    +0.144 HD
ENDBRANCH  27  30
ENDBRANCH  24  27
ENDBRANCH  20  21
ENDBRANCH   1  20
TORSDOF 6
