REMARK  Name = ZINC08917752
REMARK  8 active torsions:
REMARK  status: ('A' for Active; 'I' for Inactive)
REMARK    1  A    between atoms: C_1  and  C_2
REMARK    2  A    between atoms: C_5  and  N_9
REMARK    3  A    between atoms: C_6  and  C_8
REMARK    4  A    between atoms: C_14  and  C_15
REMARK    5  A    between atoms: C_14  and  N_70
REMARK    6  A    between atoms: C_26  and  C_33
REMARK    7  A    between atoms: C_28  and  C_32
REMARK    8  A    between atoms: C_29  and  O_31
REMARK                            x       y       z     vdW  Elec       q    Type
REMARK                         _______ _______ _______ _____ _____    ______ ____
ROOT
ATOM      1  C   UNL     1      -6.826   2.473  -3.075  0.00  0.00    +0.090 C 
ATOM      2  C   UNL     1      -7.749   2.195  -4.271  0.00  0.00    +0.071 C 
ATOM      3  C   UNL     1      -7.784   3.543  -4.994  0.00  0.00    +0.187 C 
ATOM      4  C   UNL     1      -8.856   4.464  -4.391  0.00  0.00    +0.076 C 
ATOM      5  C   UNL     1     -10.161   3.693  -4.413  0.00  0.00    -0.061 C 
ATOM      6  C   UNL     1     -11.120   4.131  -5.172  0.00  0.00    -0.027 C 
ATOM      7  C   UNL     1     -12.424   3.400  -5.338  0.00  0.00    +0.027 C 
ATOM      8  C   UNL     1     -12.144   1.907  -5.113  0.00  0.00    +0.008 C 
ATOM      9  C   UNL     1     -11.569   1.756  -3.705  0.00  0.00    -0.001 C 
ATOM     10  C   UNL     1     -10.220   2.445  -3.574  0.00  0.00    +0.018 C 
ATOM     11  C   UNL     1      -9.055   1.538  -3.931  0.00  0.00    +0.132 C 
ATOM     12  C   UNL     1     -10.085   2.860  -2.099  0.00  0.00    +0.018 C 
ATOM     13  C   UNL     1     -11.509   0.283  -3.332  0.00  0.00    +0.008 C 
ATOM     14  O   UNL     1      -6.494   4.161  -4.671  0.00  0.00    -0.460 OA
ATOM     15  C   UNL     1      -5.967   3.632  -3.558  0.00  0.00    +0.309 C 
ATOM     16  O   UNL     1      -4.955   4.014  -3.009  0.00  0.00    -0.251 OA
ENDROOT
BRANCH  11  17
ATOM     17  O   UNL     1      -8.806   0.647  -2.828  0.00  0.00    -0.391 OA
ATOM     18  H   UNL     1      -8.156  -0.043  -3.019  0.00  0.00    +0.210 HD
ENDBRANCH  11  17
BRANCH   1  19
ATOM     19  C   UNL     1      -5.929   1.263  -2.784  0.00  0.00    -0.064 C 
BRANCH  19  25
ATOM     20  N   UNL     1      -3.901   0.882   0.902  0.00  0.00    -0.333 N 
ATOM     21  C   UNL     1      -3.093   1.003  -0.320  0.00  0.00    +0.086 C 
ATOM     22  C   UNL     1      -3.951   0.640  -1.534  0.00  0.00    -0.060 C 
ATOM     23  C   UNL     1      -5.927   1.409  -0.367  0.00  0.00    -0.060 C 
ATOM     24  C   UNL     1      -5.069   1.772   0.847  0.00  0.00    +0.086 C 
ATOM     25  N   UNL     1      -5.109   1.556  -1.589  0.00  0.00    +0.382 N 
ATOM     26  H   UNL     1      -4.768   2.523  -1.648  0.00  0.00    -0.082 HD
BRANCH  20  31
ATOM     27  C   UNL     1      -0.764   1.910   5.513  0.00  0.00    +0.044 C 
ATOM     28  C   UNL     1      -1.600   1.638   4.289  0.00  0.00    -0.050 A 
ATOM     29  C   UNL     1      -1.812   2.641   3.361  0.00  0.00    +0.005 A 
ATOM     30  C   UNL     1      -2.578   2.395   2.238  0.00  0.00    +0.023 A 
ATOM     31  C   UNL     1      -3.131   1.136   2.039  0.00  0.00    +0.033 A 
ATOM     32  C   UNL     1      -2.920   0.132   2.975  0.00  0.00    -0.029 A 
ATOM     33  C   UNL     1      -2.153   0.385   4.096  0.00  0.00    +0.008 A 
ATOM     34  C   UNL     1      -3.521  -1.234   2.766  0.00  0.00    +0.045 C 
ENDBRANCH  20  31
ENDBRANCH  19  25
ENDBRANCH   1  19
TORSDOF 4
