REMARK  Name = ZINC20686794
REMARK  10 active torsions:
REMARK  status: ('A' for Active; 'I' for Inactive)
REMARK    1  A    between atoms: C_1  and  C_2
REMARK    2  A    between atoms: C_6  and  N_9
REMARK    3  A    between atoms: C_7  and  C_8
REMARK    4  A    between atoms: C_10  and  C_12
REMARK    5  A    between atoms: C_12  and  N_13
REMARK    6  A    between atoms: N_13  and  C_14
REMARK    7  A    between atoms: N_13  and  C_15
REMARK    8  A    between atoms: C_15  and  C_17
REMARK    9  A    between atoms: C_15  and  C_18
REMARK   10  A    between atoms: N_23  and  C_24
REMARK                            x       y       z     vdW  Elec       q    Type
REMARK                         _______ _______ _______ _____ _____    ______ ____
ROOT
ATOM      1  C   UNL     1      -8.320   0.903   2.049  0.00  0.00    +0.017 C 
ATOM      2  C   UNL     1      -8.021  -0.597   1.996  0.00  0.00    -0.004 C 
ENDROOT
BRANCH   1   3
ATOM      3  C   UNL     1      -7.025   1.673   2.056  0.00  0.00    +0.207 C 
ATOM      4  O   UNL     1      -6.702   2.308   3.037  0.00  0.00    -0.277 OA
ATOM      5  N   UNL     1      -6.226   1.657   0.971  0.00  0.00    -0.242 N 
ATOM      6  C   UNL     1      -5.067   2.347   0.977  0.00  0.00    +0.306 C 
ATOM      7  O   UNL     1      -4.744   2.982   1.961  0.00  0.00    -0.252 OA
ATOM      8  N   UNL     1      -4.268   2.331  -0.108  0.00  0.00    -0.294 N 
ATOM      9  H   UNL     1      -6.518   1.082   0.080  0.00  0.00    +0.159 HD
ATOM     10  H   UNL     1      -4.561   1.755  -0.999  0.00  0.00    +0.151 HD
BRANCH   8  11
ATOM     11  C   UNL     1      -3.009   3.080  -0.101  0.00  0.00    +0.037 C 
ATOM     12  C   UNL     1      -2.299   2.895  -1.444  0.00  0.00    +0.029 C 
ATOM     13  C   UNL     1      -0.984   3.678  -1.437  0.00  0.00    -0.008 C 
ATOM     14  C   UNL     1      -0.088   3.159  -0.310  0.00  0.00    +0.007 C 
ATOM     15  C   UNL     1      -0.798   3.344   1.032  0.00  0.00    -0.008 C 
ATOM     16  C   UNL     1      -2.113   2.562   1.025  0.00  0.00    +0.029 C 
ATOM     17  C   UNL     1      -1.090   4.830   1.255  0.00  0.00    +0.007 C 
ATOM     18  C   UNL     1      -1.986   5.348   0.128  0.00  0.00    -0.008 C 
ATOM     19  C   UNL     1      -1.276   5.163  -1.214  0.00  0.00    +0.007 C 
ATOM     20  C   UNL     1      -3.301   4.565   0.121  0.00  0.00    +0.029 C 
ENDBRANCH   8  11
ENDBRANCH   1   3
BRANCH   1  21
ATOM     21  N   UNL     1      -9.078   1.208   3.270  0.00  0.00    +0.391 N 
ATOM     22  C   UNL     1     -10.472   0.760   3.150  0.00  0.00    -0.094 C 
ATOM     23  H   UNL     1      -9.083   2.300   3.400  0.00  0.00    -0.080 HD
BRANCH  21  24
ATOM     24  C   UNL     1      -8.435   0.616   4.450  0.00  0.00    +0.020 C 
BRANCH  24  26
ATOM     25  N   UNL     1      -8.662   0.740   6.910  0.00  0.00    -0.287 N 
ATOM     26  C   UNL     1      -9.090   1.147   5.699  0.00  0.00    +0.201 C 
ATOM     27  O   UNL     1     -10.004   1.940   5.614  0.00  0.00    -0.278 OA
ATOM     28  H   UNL     1      -7.896  -0.046   6.987  0.00  0.00    +0.155 HD
BRANCH  25  34
ATOM     29  C   UNL     1      -9.493   0.511  11.751  0.00  0.00    +0.044 C 
ATOM     30  C   UNL     1      -9.609   1.227  10.430  0.00  0.00    -0.046 A 
ATOM     31  C   UNL     1     -10.240   2.456  10.363  0.00  0.00    +0.004 A 
ATOM     32  C   UNL     1     -10.349   3.116   9.153  0.00  0.00    +0.002 A 
ATOM     33  C   UNL     1      -9.826   2.550   8.006  0.00  0.00    +0.023 A 
ATOM     34  C   UNL     1      -9.192   1.316   8.070  0.00  0.00    +0.036 A 
ATOM     35  C   UNL     1      -9.090   0.653   9.286  0.00  0.00    -0.026 A 
ATOM     36  C   UNL     1      -8.408  -0.689   9.358  0.00  0.00    +0.046 C 
ENDBRANCH  25  34
ENDBRANCH  24  26
ENDBRANCH  21  24
ENDBRANCH   1  21
TORSDOF 6
