REMARK  Name = ZINC58994687
REMARK  9 active torsions:
REMARK  status: ('A' for Active; 'I' for Inactive)
REMARK    1  A    between atoms: C_1  and  C_2
REMARK    2  A    between atoms: C_4  and  C_13
REMARK    3  A    between atoms: C_6  and  S_9
REMARK    4  A    between atoms: C_7  and  C_8
REMARK    5  A    between atoms: S_9  and  N_12
REMARK    6  A    between atoms: N_15  and  C_16
REMARK    7  A    between atoms: C_16  and  C_17
REMARK    8  A    between atoms: C_16  and  C_18
REMARK    9  A    between atoms: C_19  and  C_27
REMARK                            x       y       z     vdW  Elec       q    Type
REMARK                         _______ _______ _______ _____ _____    ______ ____
ROOT
ATOM      1  C   UNL     1       0.029  -2.818  -2.485  0.00  0.00    +0.245 C 
ATOM      2  O   UNL     1       0.046  -4.034  -2.487  0.00  0.00    -0.270 OA
ATOM      3  N   UNL     1       0.013  -2.143  -3.651  0.00  0.00    -0.302 N 
ATOM      4  H   UNL     1      -0.000  -1.173  -3.649  0.00  0.00    +0.150 HD
ENDROOT
BRANCH   1   8
ATOM      5  C   UNL     1      -0.018   1.503   0.010  0.00  0.00    +0.044 C 
ATOM      6  C   UNL     1       0.002  -0.004   0.002  0.00  0.00    -0.045 A 
ATOM      7  C   UNL     1       0.006  -0.686  -1.198  0.00  0.00    +0.016 A 
ATOM      8  C   UNL     1       0.025  -2.081  -1.203  0.00  0.00    +0.039 A 
ATOM      9  C   UNL     1       0.041  -2.778   0.006  0.00  0.00    +0.041 A 
ATOM     10  C   UNL     1       0.037  -2.084   1.198  0.00  0.00    +0.109 A 
ATOM     11  C   UNL     1       0.023  -0.701   1.197  0.00  0.00    -0.021 A 
ATOM     12  C   UNL     1       0.025   0.051   2.503  0.00  0.00    +0.046 C 
BRANCH  10  13
ATOM     13  S   UNL     1       0.056  -2.962   2.726  0.00  0.00    +0.056 S 
ATOM     14  O   UNL     1      -0.974  -2.401   3.529  0.00  0.00    -0.153 OA
ATOM     15  O   UNL     1       0.100  -4.344   2.400  0.00  0.00    -0.153 OA
BRANCH  13  16
ATOM     16  N   UNL     1       1.488  -2.607   3.477  0.00  0.00    -0.204 NA
ATOM     17  H   UNL     1       1.540  -2.603   4.446  0.00  0.00    +0.144 HD
ATOM     18  H   UNL     1       2.276  -2.403   2.948  0.00  0.00    +0.144 HD
ENDBRANCH  13  16
ENDBRANCH  10  13
ENDBRANCH   1   8
BRANCH   3  19
ATOM     19  C   UNL     1       0.017  -2.873  -4.921  0.00  0.00    +0.137 C 
ATOM     20  C   UNL     1      -1.417  -3.256  -5.293  0.00  0.00    +0.036 C 
BRANCH  19  21
ATOM     21  C   UNL     1       0.599  -1.999  -6.002  0.00  0.00    +0.129 A 
ATOM     22  C   UNL     1       1.497  -2.401  -6.912  0.00  0.00    +0.000 A 
ATOM     23  C   UNL     1       1.776  -1.231  -7.755  0.00  0.00    +0.023 A 
ATOM     24  C   UNL     1       2.602  -0.996  -8.853  0.00  0.00    +0.012 A 
ATOM     25  C   UNL     1       2.631   0.246  -9.425  0.00  0.00    +0.001 A 
ATOM     26  C   UNL     1       1.846   1.272  -8.918  0.00  0.00    +0.004 A 
ATOM     27  C   UNL     1       1.024   1.058  -7.833  0.00  0.00    +0.047 A 
ATOM     28  C   UNL     1       0.978  -0.197  -7.237  0.00  0.00    +0.136 A 
ATOM     29  O   UNL     1       0.290  -0.705  -6.195  0.00  0.00    -0.458 OA
ATOM     30  C   UNL     1       2.098  -3.776  -7.045  0.00  0.00    +0.048 C 
ENDBRANCH  19  21
ENDBRANCH   3  19
TORSDOF 5
