REMARK  Name = ZINC48487737
REMARK  4 active torsions:
REMARK  status: ('A' for Active; 'I' for Inactive)
REMARK    1  A    between atoms: C_1  and  N_2
REMARK    2  A    between atoms: N_5  and  C_6
REMARK    3  A    between atoms: C_6  and  C_7
REMARK    4  A    between atoms: N_9  and  C_10
REMARK                            x       y       z     vdW  Elec       q    Type
REMARK                         _______ _______ _______ _____ _____    ______ ____
ROOT
ATOM      1  C   UNL     1      -2.100  -4.269   0.005  0.00  0.00    +0.234 C 
ATOM      2  O   UNL     1      -0.952  -4.658  -0.012  0.00  0.00    -0.274 OA
ATOM      3  N   UNL     1      -3.113  -5.159   0.004  0.00  0.00    -0.283 N 
ATOM      4  H   UNL     1      -4.029  -4.850   0.083  0.00  0.00    +0.155 HD
ENDROOT
BRANCH   3   5
ATOM      5  C   UNL     1      -2.843  -6.527  -0.112  0.00  0.00    +0.047 A 
ATOM      6  C   UNL     1      -1.699  -7.061   0.466  0.00  0.00    +0.024 A 
ATOM      7  C   UNL     1      -1.435  -8.412   0.351  0.00  0.00    +0.002 A 
ATOM      8  C   UNL     1      -2.308  -9.233  -0.340  0.00  0.00    +0.001 A 
ATOM      9  C   UNL     1      -3.448  -8.704  -0.916  0.00  0.00    +0.017 A 
ATOM     10  C   UNL     1      -3.721  -7.354  -0.799  0.00  0.00    +0.039 A 
ATOM     11 BR   UNL     1      -5.285  -6.634  -1.582  0.00  0.00    -0.048 Br
ENDBRANCH   3   5
BRANCH   1  12
ATOM     12  C   UNL     1      -2.395  -2.792   0.027  0.00  0.00    +0.202 C 
BRANCH  12  17
ATOM     13  C   UNL     1      -0.015   1.459   0.058  0.00  0.00    +0.129 C 
ATOM     14  N   UNL     1       0.004  -0.005   0.039  0.00  0.00    -0.302 N 
ATOM     15  C   UNL     1      -1.154  -0.695   0.042  0.00  0.00    +0.300 C 
ATOM     16  O   UNL     1      -2.215  -0.101   0.060  0.00  0.00    -0.253 OA
ATOM     17  N   UNL     1      -1.136  -2.042   0.024  0.00  0.00    -0.291 N 
ATOM     18  H   UNL     1       0.851  -0.479   0.024  0.00  0.00    +0.150 HD
ATOM     19  H   UNL     1      -0.290  -2.516   0.009  0.00  0.00    +0.151 HD
ENDBRANCH  12  17
ENDBRANCH   1  12
TORSDOF 3
