REMARK  Name = ZINC01701354
REMARK  5 active torsions:
REMARK  status: ('A' for Active; 'I' for Inactive)
REMARK    1  A    between atoms: C_1  and  N_2
REMARK    2  A    between atoms: N_10  and  C_13
REMARK    3  A    between atoms: C_15  and  O_25
REMARK    4  A    between atoms: C_17  and  O_24
REMARK    5  A    between atoms: C_19  and  O_23
REMARK                            x       y       z     vdW  Elec       q    Type
REMARK                         _______ _______ _______ _____ _____    ______ ____
ROOT
ATOM      1  C   UNL     1      -5.937  -4.239  -0.978  0.00  0.00    +0.127 C 
ATOM      2  N   UNL     1      -5.234  -3.027  -0.547  0.00  0.00    -0.330 N 
ATOM      3  C   UNL     1      -3.863  -2.928  -0.711  0.00  0.00    +0.151 A 
ATOM      4  C   UNL     1      -3.173  -1.774  -0.303  0.00  0.00    +0.148 A 
ATOM      5  C   UNL     1      -1.782  -1.730  -0.494  0.00  0.00    +0.169 A 
ATOM      6  N   UNL     1      -1.173  -2.773  -1.049  0.00  0.00    -0.198 NA
ATOM      7  C   UNL     1      -1.861  -3.835  -1.417  0.00  0.00    +0.226 A 
ATOM      8  N   UNL     1      -3.170  -3.921  -1.257  0.00  0.00    -0.200 NA
ATOM      9 CL   UNL     1      -1.016  -5.170  -2.136  0.00  0.00    -0.041 Cl
ATOM     10  N   UNL     1      -1.372  -0.511  -0.015  0.00  0.00    -0.285 N 
ATOM     11  C   UNL     1      -2.478   0.139   0.447  0.00  0.00    +0.203 A 
ATOM     12  N   UNL     1      -3.534  -0.601   0.272  0.00  0.00    -0.231 NA
ATOM     13  H   UNL     1      -5.595  -2.238  -1.044  0.00  0.00    +0.147 HD
ENDROOT
BRANCH  10  14
ATOM     14  C   UNL     1       0.002  -0.004   0.002  0.00  0.00    +0.253 C 
ATOM     15  C   UNL     1       0.718  -0.510   1.257  0.00  0.00    +0.195 C 
ATOM     16  C   UNL     1       2.133   0.073   1.299  0.00  0.00    +0.178 C 
ATOM     17  C   UNL     1       2.046   1.601   1.256  0.00  0.00    +0.171 C 
ATOM     18  C   UNL     1       1.279   2.026   0.001  0.00  0.00    +0.196 C 
ATOM     19  O   UNL     1      -0.017   1.425   0.010  0.00  0.00    -0.351 OA
BRANCH  17  20
ATOM     20  O   UNL     1       1.361   2.073   2.418  0.00  0.00    -0.387 OA
ATOM     21  H   UNL     1       1.269   3.035   2.457  0.00  0.00    +0.210 HD
ENDBRANCH  17  20
BRANCH  16  22
ATOM     22  O   UNL     1       2.783  -0.335   2.504  0.00  0.00    -0.386 OA
ATOM     23  H   UNL     1       3.686  -0.001   2.597  0.00  0.00    +0.210 HD
ENDBRANCH  16  22
BRANCH  15  24
ATOM     24  O   UNL     1       0.789  -1.937   1.224  0.00  0.00    -0.385 OA
ATOM     25  H   UNL     1       1.231  -2.327   1.990  0.00  0.00    +0.210 HD
ENDBRANCH  15  24
ENDBRANCH  10  14
TORSDOF 4
