REMARK  Name = ZINC51711127
REMARK  9 active torsions:
REMARK  status: ('A' for Active; 'I' for Inactive)
REMARK    1  A    between atoms: C_1  and  C_2
REMARK    2  A    between atoms: C_2  and  C_3
REMARK    3  A    between atoms: C_3  and  C_4
REMARK    4  A    between atoms: C_4  and  C_5
REMARK    5  A    between atoms: C_4  and  N_6
REMARK    6  A    between atoms: C_7  and  C_9
REMARK    7  A    between atoms: N_17  and  C_18
REMARK    8  A    between atoms: C_18  and  C_19
REMARK    9  A    between atoms: C_23  and  C_28
REMARK                            x       y       z     vdW  Elec       q    Type
REMARK                         _______ _______ _______ _____ _____    ______ ____
ROOT
ATOM      1  C   UNL     1       0.346  -4.236  -2.612  0.00  0.00    +0.092 C 
ATOM      2  C   UNL     1       0.936  -5.633  -2.409  0.00  0.00    +0.016 C 
ATOM      3  C   UNL     1       1.569  -6.116  -3.717  0.00  0.00    +0.020 C 
ATOM      4  C   UNL     1       0.490  -6.199  -4.801  0.00  0.00    +0.109 C 
ATOM      5  N   UNL     1      -0.182  -4.896  -4.901  0.00  0.00    -0.285 N 
ATOM      6  C   UNL     1      -0.747  -4.298  -3.684  0.00  0.00    +0.122 C 
ATOM      7  C   UNL     1      -0.278  -4.262  -6.086  0.00  0.00    +0.303 C 
ATOM      8  O   UNL     1      -0.914  -3.230  -6.174  0.00  0.00    -0.253 OA
ATOM      9  N   UNL     1       0.333  -4.772  -7.175  0.00  0.00    -0.294 N 
ATOM     10  H   UNL     1       0.778  -5.632  -7.122  0.00  0.00    +0.151 HD
ENDROOT
BRANCH   1  12
ATOM     11  N   UNL     1      -0.831  -2.534  -1.256  0.00  0.00    -0.312 N 
ATOM     12  C   UNL     1      -0.248  -3.748  -1.316  0.00  0.00    +0.218 C 
ATOM     13  O   UNL     1      -0.202  -4.448  -0.326  0.00  0.00    -0.275 OA
ATOM     14  H   UNL     1      -0.869  -1.975  -2.048  0.00  0.00    +0.149 HD
BRANCH  11  15
ATOM     15  C   UNL     1      -1.409  -2.060   0.004  0.00  0.00    +0.070 C 
ATOM     16  C   UNL     1      -2.837  -2.591   0.142  0.00  0.00    +0.028 C 
BRANCH  15  17
ATOM     17  C   UNL     1      -1.430  -0.530   0.011  0.00  0.00    +0.022 C 
BRANCH  17  19
ATOM     18  C   UNL     1      -0.017   1.530   0.007  0.00  0.00    +0.004 C 
ATOM     19  C   UNL     1       0.005  -0.000  -0.001  0.00  0.00    -0.002 C 
ENDBRANCH  17  19
ENDBRANCH  15  17
ENDBRANCH  11  15
ENDBRANCH   1  12
BRANCH   9  20
ATOM     20  C   UNL     1       0.323  -4.027  -8.436  0.00  0.00    +0.160 C 
BRANCH  20  21
ATOM     21  C   UNL     1       1.067  -4.809  -9.487  0.00  0.00    +0.051 A 
ATOM     22  C   UNL     1       2.370  -4.654  -9.810  0.00  0.00    +0.115 A 
ATOM     23  N   UNL     1       2.650  -5.551 -10.804  0.00  0.00    -0.308 N 
ATOM     24  C   UNL     1       3.790  -5.832 -11.500  0.00  0.00    +0.096 A 
ATOM     25  C   UNL     1       3.796  -6.789 -12.452  0.00  0.00    -0.034 A 
ATOM     26  C   UNL     1       2.625  -7.510 -12.740  0.00  0.00    +0.008 A 
ATOM     27  C   UNL     1       1.482  -7.239 -12.053  0.00  0.00    +0.045 A 
ATOM     28  C   UNL     1       1.492  -6.238 -11.062  0.00  0.00    +0.115 A 
ATOM     29  N   UNL     1       0.551  -5.775 -10.251  0.00  0.00    -0.342 N 
ATOM     30  C   UNL     1       5.064  -7.085 -13.210  0.00  0.00    +0.045 C 
ATOM     31  H   UNL     1      -0.367  -6.087 -10.219  0.00  0.00    +0.167 HD
ENDBRANCH  20  21
ENDBRANCH   9  20
TORSDOF 6
