REMARK  Name = ZINC20682492
REMARK  6 active torsions:
REMARK  status: ('A' for Active; 'I' for Inactive)
REMARK    1  A    between atoms: C_6  and  C_7
REMARK    2  A    between atoms: N_9  and  C_10
REMARK    3  A    between atoms: C_10  and  C_11
REMARK    4  A    between atoms: C_24  and  C_27
REMARK    5  A    between atoms: C_30  and  O_34
REMARK    6  A    between atoms: C_32  and  O_33
REMARK                            x       y       z     vdW  Elec       q    Type
REMARK                         _______ _______ _______ _____ _____    ______ ____
ROOT
ATOM      1  C   UNL     1       2.460  -0.545  -0.004  0.00  0.00    +0.015 A 
ATOM      2  C   UNL     1       3.670  -1.197  -0.032  0.00  0.00    +0.024 A 
ATOM      3  C   UNL     1       4.862  -0.477  -0.051  0.00  0.00    +0.031 A 
ATOM      4  C   UNL     1       4.820   0.926  -0.034  0.00  0.00    -0.019 A 
ATOM      5  C   UNL     1       3.613   1.580  -0.019  0.00  0.00    +0.019 A 
ATOM      6  C   UNL     1       2.419   0.852  -0.006  0.00  0.00    +0.037 A 
ATOM      7  C   UNL     1       6.111   1.646  -0.013  0.00  0.00    +0.049 C 
ATOM      8  C   UNL     1       6.277   3.038  -0.531  0.00  0.00    -0.023 C 
ATOM      9  C   UNL     1       7.497   3.174  -1.035  0.00  0.00    -0.030 C 
ATOM     10  C   UNL     1       8.267   1.858  -0.904  0.00  0.00    +0.033 C 
ATOM     11  C   UNL     1       7.124   0.835  -0.875  0.00  0.00    +0.029 C 
ATOM     12  C   UNL     1       7.366  -0.453  -0.109  0.00  0.00    +0.108 C 
ATOM     13  N   UNL     1       6.072  -1.168  -0.108  0.00  0.00    -0.336 N 
ATOM     14  H   UNL     1       6.050  -2.267  -0.154  0.00  0.00    +0.147 HD
ENDROOT
BRANCH  12  15
ATOM     15  C   UNL     1       7.791  -0.146   1.304  0.00  0.00    +0.015 A 
ATOM     16  C   UNL     1       6.841  -0.031   2.301  0.00  0.00    +0.012 A 
ATOM     17  C   UNL     1       7.228   0.245   3.599  0.00  0.00    +0.046 A 
ATOM     18  C   UNL     1       8.572   0.419   3.901  0.00  0.00    +0.120 A 
ATOM     19  C   UNL     1       9.526   0.310   2.902  0.00  0.00    +0.091 A 
ATOM     20  C   UNL     1       9.135   0.027   1.602  0.00  0.00    +0.125 A 
BRANCH  20  21
ATOM     21  O   UNL     1      10.069  -0.082   0.620  0.00  0.00    -0.506 OA
ATOM     22  H   UNL     1      11.134   0.056   0.856  0.00  0.00    +0.292 HD
ENDBRANCH  20  21
BRANCH  18  23
ATOM     23  O   UNL     1       8.951   0.696   5.176  0.00  0.00    -0.507 OA
ATOM     24  H   UNL     1      10.016   0.834   5.416  0.00  0.00    +0.292 HD
ENDBRANCH  18  23
ENDBRANCH  12  15
BRANCH   6  25
ATOM     25  C   UNL     1       1.122   1.556   0.010  0.00  0.00    +0.244 C 
ATOM     26  O   UNL     1       1.090   2.771   0.013  0.00  0.00    -0.270 OA
ATOM     27  N   UNL     1      -0.027   0.851   0.022  0.00  0.00    -0.309 N 
ATOM     28  H   UNL     1       0.003  -0.248   0.025  0.00  0.00    +0.149 HD
BRANCH  27  29
ATOM     29  C   UNL     1      -1.314   1.550   0.033  0.00  0.00    +0.136 C 
BRANCH  29  30
ATOM     30  C   UNL     1      -2.450   0.525   0.039  0.00  0.00    +0.135 C 
ATOM     31  C   UNL     1      -3.823   1.244   0.014  0.00  0.00    +0.035 C 
ATOM     32  C   UNL     1      -4.720   0.142  -0.615  0.00  0.00    +0.031 C 
ATOM     33  C   UNL     1      -3.751  -0.553  -1.595  0.00  0.00    +0.160 C 
ATOM     34  O   UNL     1      -2.417  -0.264  -1.161  0.00  0.00    -0.375 OA
ENDBRANCH  29  30
ENDBRANCH  27  29
ENDBRANCH   6  25
TORSDOF 6
