REMARK  Name = ZINC37692899
REMARK  6 active torsions:
REMARK  status: ('A' for Active; 'I' for Inactive)
REMARK    1  A    between atoms: C_1  and  N_2
REMARK    2  A    between atoms: N_2  and  C_3
REMARK    3  A    between atoms: N_2  and  C_4
REMARK    4  A    between atoms: C_7  and  N_10
REMARK    5  A    between atoms: N_10  and  C_11
REMARK    6  A    between atoms: C_18  and  O_20
REMARK                            x       y       z     vdW  Elec       q    Type
REMARK                         _______ _______ _______ _____ _____    ______ ____
ROOT
ATOM      1  N   UNL     1      -0.005  -2.763  -4.836  0.00  0.00    -0.337 N 
ATOM      2  H   UNL     1       0.005  -3.733  -4.842  0.00  0.00    +0.146 HD
ENDROOT
BRANCH   1   3
ATOM      3  C   UNL     1      -0.021  -2.023  -6.101  0.00  0.00    +0.121 C 
ATOM      4  C   UNL     1       1.435  -1.646  -6.495  0.00  0.00    +0.190 C 
ATOM      5  S   UNL     1       1.197  -1.345  -8.301  0.00  0.00    -0.027 S 
ATOM      6  O   UNL     1       0.666  -0.041  -8.492  0.00  0.00    -0.174 OA
ATOM      7  O   UNL     1       2.372  -1.735  -8.998  0.00  0.00    -0.174 OA
ATOM      8  C   UNL     1      -0.128  -2.588  -8.602  0.00  0.00    +0.199 C 
ATOM      9  C   UNL     1      -0.653  -2.893  -7.187  0.00  0.00    +0.157 C 
BRANCH   9  10
ATOM     10  O   UNL     1      -0.390  -4.265  -6.886  0.00  0.00    -0.388 OA
ATOM     11  H   UNL     1      -0.759  -4.886  -7.529  0.00  0.00    +0.210 HD
ENDBRANCH   9  10
ENDBRANCH   1   3
BRANCH   1  15
ATOM     12  C   UNL     1       0.000  -0.698  -1.214  0.00  0.00    +0.029 A 
ATOM     13  C   UNL     1       0.013  -2.086  -1.222  0.00  0.00    +0.025 A 
ATOM     14  C   UNL     1       0.011  -2.770  -2.421  0.00  0.00    +0.025 A 
ATOM     15  C   UNL     1      -0.004  -2.069  -3.620  0.00  0.00    +0.028 A 
ATOM     16  C   UNL     1      -0.017  -0.681  -3.613  0.00  0.00    +0.025 A 
ATOM     17  C   UNL     1      -0.021   0.003  -2.413  0.00  0.00    +0.025 A 
BRANCH  12  19
ATOM     18  C   UNL     1      -0.018   1.461   0.010  0.00  0.00    +0.129 C 
ATOM     19  N   UNL     1       0.002  -0.004   0.002  0.00  0.00    -0.336 N 
ATOM     20  C   UNL     1       0.024  -0.743   1.267  0.00  0.00    +0.129 C 
ENDBRANCH  12  19
ENDBRANCH   1  15
TORSDOF 4
