REMARK  Name = ZINC59138192
REMARK  5 active torsions:
REMARK  status: ('A' for Active; 'I' for Inactive)
REMARK    1  A    between atoms: C_3  and  O_22
REMARK    2  A    between atoms: C_6  and  C_7
REMARK    3  A    between atoms: N_9  and  N_10
REMARK    4  A    between atoms: C_11  and  C_12
REMARK    5  A    between atoms: C_15  and  N_17
REMARK                            x       y       z     vdW  Elec       q    Type
REMARK                         _______ _______ _______ _____ _____    ______ ____
ROOT
ATOM      1  C   UNL     1      -1.264  -0.761   0.011  0.00  0.00    +0.263 C 
ATOM      2  O   UNL     1      -2.327  -0.169   0.024  0.00  0.00    -0.268 OA
ATOM      3  N   UNL     1      -1.244  -2.109   0.003  0.00  0.00    -0.203 N 
ATOM      4  H   UNL     1      -0.397  -2.581  -0.008  0.00  0.00    +0.178 HD
ENDROOT
BRANCH   1  10
ATOM      5  C   UNL     1      -0.017   1.393   0.010  0.00  0.00    +0.016 A 
ATOM      6  C   UNL     1       1.167   2.096   0.002  0.00  0.00    +0.046 A 
ATOM      7  C   UNL     1       2.380   1.418  -0.013  0.00  0.00    +0.117 A 
ATOM      8  C   UNL     1       2.404   0.028  -0.021  0.00  0.00    +0.046 A 
ATOM      9  C   UNL     1       1.224  -0.682  -0.014  0.00  0.00    +0.016 A 
ATOM     10  C   UNL     1       0.002  -0.004   0.002  0.00  0.00    +0.039 A 
BRANCH   7  11
ATOM     11  O   UNL     1       3.545   2.114  -0.020  0.00  0.00    -0.507 OA
ATOM     12  H   UNL     1       3.891   2.311   0.861  0.00  0.00    +0.292 HD
ENDBRANCH   7  11
ENDBRANCH   1  10
BRANCH   3  13
ATOM     13  N   UNL     1      -2.447  -2.828   0.011  0.00  0.00    -0.184 NA
ATOM     14  C   UNL     1      -2.427  -4.130   0.004  0.00  0.00    +0.176 C 
BRANCH  14  15
ATOM     15  C   UNL     1      -3.682  -4.881   0.012  0.00  0.00    +0.150 A 
ATOM     16  C   UNL     1      -3.803  -6.242   0.012  0.00  0.00    +0.053 A 
ATOM     17  C   UNL     1      -5.177  -6.528   0.022  0.00  0.00    +0.066 A 
ATOM     18  C   UNL     1      -5.833  -5.337   0.029  0.00  0.00    +0.189 A 
ATOM     19  O   UNL     1      -4.924  -4.348   0.028  0.00  0.00    -0.440 OA
BRANCH  18  20
ATOM     20  N   UNL     1      -7.210  -5.172   0.039  0.00  0.00    -0.301 N 
ATOM     21  C   UNL     1      -8.203  -6.255   0.051  0.00  0.00    +0.108 C 
ATOM     22  C   UNL     1      -9.599  -5.598   0.034  0.00  0.00    +0.020 C 
ATOM     23  C   UNL     1      -9.313  -4.192  -0.559  0.00  0.00    +0.020 C 
ATOM     24  C   UNL     1      -7.919  -3.880   0.046  0.00  0.00    +0.108 C 
ENDBRANCH  18  20
ENDBRANCH  14  15
ENDBRANCH   3  13
TORSDOF 5
