REMARK  Name = ZINC42523124
REMARK  5 active torsions:
REMARK  status: ('A' for Active; 'I' for Inactive)
REMARK    1  A    between atoms: C_1  and  C_2
REMARK    2  A    between atoms: C_2  and  C_4
REMARK    3  A    between atoms: C_2  and  S_7
REMARK    4  A    between atoms: S_7  and  N_10
REMARK    5  A    between atoms: N_10  and  C_11
REMARK                            x       y       z     vdW  Elec       q    Type
REMARK                         _______ _______ _______ _____ _____    ______ ____
ROOT
ATOM      1  N   UNL     1       2.358   0.139   1.419  0.00  0.00    -0.101 NA
ENDROOT
BRANCH   1   2
ATOM      2  C   UNL     1       3.300  -0.106   2.421  0.00  0.00    +0.089 A 
ATOM      3  C   UNL     1       3.000  -0.979   3.459  0.00  0.00    +0.043 A 
ATOM      4  C   UNL     1       3.934  -1.219   4.449  0.00  0.00    +0.020 A 
ATOM      5  C   UNL     1       5.167  -0.592   4.406  0.00  0.00    +0.016 A 
ATOM      6  C   UNL     1       5.468   0.277   3.374  0.00  0.00    +0.018 A 
ATOM      7  C   UNL     1       4.541   0.517   2.378  0.00  0.00    +0.042 A 
ATOM      8 BR   UNL     1       4.958   1.699   0.962  0.00  0.00    -0.048 Br
ATOM      9 BR   UNL     1       3.527  -2.406   5.864  0.00  0.00    -0.050 Br
ENDBRANCH   1   2
BRANCH   1  10
ATOM     10  S   UNL     1       0.879  -0.605   1.472  0.00  0.00    +0.076 S 
ATOM     11  O   UNL     1       0.263  -0.103   2.649  0.00  0.00    -0.153 OA
ATOM     12  O   UNL     1       1.166  -1.990   1.338  0.00  0.00    -0.153 OA
BRANCH  10  14
ATOM     13  C   UNL     1      -0.019   1.526   0.010  0.00  0.00    +0.046 C 
ATOM     14  C   UNL     1       0.002  -0.004   0.002  0.00  0.00    +0.262 C 
BRANCH  14  15
ATOM     15  C   UNL     1      -1.412  -0.526   0.013  0.00  0.00    +0.381 C 
ATOM     16  O   UNL     1      -1.732  -1.433  -0.736  0.00  0.00    -0.244 OA
ATOM     17  O   UNL     1      -2.235  -0.040   0.770  0.00  0.00    -0.244 OA
ENDBRANCH  14  15
ENDBRANCH  10  14
ENDBRANCH   1  10
TORSDOF 4
