REMARK  Name = ZINC13154121
REMARK  8 active torsions:
REMARK  status: ('A' for Active; 'I' for Inactive)
REMARK    1  A    between atoms: C_1  and  C_2
REMARK    2  A    between atoms: C_6  and  N_8
REMARK    3  A    between atoms: N_8  and  C_9
REMARK    4  A    between atoms: C_9  and  C_11
REMARK    5  A    between atoms: C_9  and  C_18
REMARK    6  A    between atoms: C_14  and  O_17
REMARK    7  A    between atoms: C_24  and  C_29
REMARK    8  A    between atoms: C_27  and  O_28
REMARK                            x       y       z     vdW  Elec       q    Type
REMARK                         _______ _______ _______ _____ _____    ______ ____
ROOT
ATOM      1  C   UNL     1       0.161  -4.093   2.526  0.00  0.00    +0.136 C 
ENDROOT
BRANCH   1   2
ATOM      2  C   UNL     1      -0.881  -4.585   1.555  0.00  0.00    +0.021 A 
ATOM      3  C   UNL     1      -1.423  -3.703   0.625  0.00  0.00    +0.010 A 
ATOM      4  C   UNL     1      -2.365  -4.116  -0.267  0.00  0.00    +0.010 A 
ATOM      5  C   UNL     1      -2.801  -5.451  -0.250  0.00  0.00    +0.004 A 
ATOM      6  C   UNL     1      -3.774  -5.916  -1.156  0.00  0.00    +0.012 A 
ATOM      7  C   UNL     1      -4.149  -7.227  -1.082  0.00  0.00    +0.023 A 
ATOM      8  C   UNL     1      -3.571  -8.062  -0.129  0.00  0.00    +0.039 A 
ATOM      9  N   UNL     1      -2.666  -7.626   0.713  0.00  0.00    -0.248 NA
ATOM     10  C   UNL     1      -2.255  -6.355   0.694  0.00  0.00    +0.113 A 
ATOM     11  C   UNL     1      -1.276  -5.892   1.598  0.00  0.00    +0.148 A 
ATOM     12  C   UNL     1      -3.999  -9.506  -0.062  0.00  0.00    +0.065 C 
BRANCH  11  13
ATOM     13  O   UNL     1      -0.733  -6.740   2.509  0.00  0.00    -0.504 OA
ATOM     14  H   UNL     1      -1.212  -6.775   3.349  0.00  0.00    +0.292 HD
ENDBRANCH  11  13
ENDBRANCH   1   2
BRANCH   1  15
ATOM     15  C   UNL     1       1.534  -4.346   1.960  0.00  0.00    -0.023 A 
ATOM     16  C   UNL     1       2.021  -3.542   0.946  0.00  0.00    +0.009 A 
ATOM     17  C   UNL     1       3.280  -3.772   0.425  0.00  0.00    +0.046 A 
ATOM     18  C   UNL     1       4.056  -4.809   0.921  0.00  0.00    +0.117 A 
ATOM     19  C   UNL     1       3.565  -5.614   1.939  0.00  0.00    +0.046 A 
ATOM     20  C   UNL     1       2.308  -5.377   2.460  0.00  0.00    +0.009 A 
BRANCH  18  21
ATOM     21  O   UNL     1       5.294  -5.037   0.410  0.00  0.00    -0.507 OA
ATOM     22  H   UNL     1       6.001  -4.556   0.861  0.00  0.00    +0.292 HD
ENDBRANCH  18  21
ENDBRANCH   1  15
BRANCH   1  23
ATOM     23  N   UNL     1      -0.019  -2.656   2.749  0.00  0.00    -0.320 N 
ATOM     24  H   UNL     1       0.487  -2.017   2.224  0.00  0.00    +0.148 HD
BRANCH  23  30
ATOM     25  C   UNL     1      -1.888   1.032   5.162  0.00  0.00    +0.063 C 
ATOM     26  C   UNL     1      -1.834  -0.450   4.891  0.00  0.00    +0.014 A 
ATOM     27  C   UNL     1      -2.661  -1.302   5.595  0.00  0.00    +0.021 A 
ATOM     28  C   UNL     1      -2.607  -2.666   5.341  0.00  0.00    +0.005 A 
ATOM     29  C   UNL     1      -1.720  -3.125   4.384  0.00  0.00    +0.041 A 
ATOM     30  C   UNL     1      -0.916  -2.209   3.713  0.00  0.00    +0.097 A 
ATOM     31  N   UNL     1      -1.001  -0.915   3.980  0.00  0.00    -0.347 N 
ATOM     32  H   UNL     1      -0.434  -0.294   3.496  0.00  0.00    +0.167 HD
ENDBRANCH  23  30
ENDBRANCH   1  23
TORSDOF 6
