REMARK  Name = ZINC39724388
REMARK  8 active torsions:
REMARK  status: ('A' for Active; 'I' for Inactive)
REMARK    1  A    between atoms: C_1  and  C_2
REMARK    2  A    between atoms: C_7  and  C_14
REMARK    3  A    between atoms: C_14  and  C_15
REMARK    4  A    between atoms: C_15  and  N_16
REMARK    5  A    between atoms: N_16  and  C_17
REMARK    6  A    between atoms: C_17  and  N_19
REMARK    7  A    between atoms: N_19  and  C_20
REMARK    8  A    between atoms: C_23  and  N_26
REMARK                            x       y       z     vdW  Elec       q    Type
REMARK                         _______ _______ _______ _____ _____    ______ ____
ROOT
ATOM      1  C   UNL     1      -1.447  -6.369   2.750  0.00  0.00    +0.104 C 
ENDROOT
BRANCH   1   2
ATOM      2  N   UNL     1      -2.352  -7.513   2.616  0.00  0.00    -0.326 N 
ATOM      3  H   UNL     1      -2.889  -7.615   1.815  0.00  0.00    +0.148 HD
BRANCH   2   4
ATOM      4  C   UNL     1      -2.439  -8.423   3.607  0.00  0.00    +0.135 C 
ATOM      5  S   UNL     1      -1.491  -8.242   5.021  0.00  0.00    -0.019 S 
BRANCH   4   6
ATOM      6  N   UNL     1      -3.272  -9.475   3.484  0.00  0.00    -0.297 N 
ATOM      7  H   UNL     1      -3.751  -9.620   2.653  0.00  0.00    +0.154 HD
BRANCH   6   8
ATOM      8  C   UNL     1      -3.445 -10.359   4.555  0.00  0.00    +0.033 A 
ATOM      9  C   UNL     1      -3.560  -9.869   5.849  0.00  0.00    +0.025 A 
ATOM     10  C   UNL     1      -3.731 -10.744   6.904  0.00  0.00    +0.034 A 
ATOM     11  C   UNL     1      -3.787 -12.106   6.672  0.00  0.00    +0.126 A 
ATOM     12  C   UNL     1      -3.673 -12.597   5.385  0.00  0.00    +0.034 A 
ATOM     13  C   UNL     1      -3.508 -11.727   4.325  0.00  0.00    +0.025 A 
BRANCH  11  14
ATOM     14  N   UNL     1      -3.970 -13.041   7.805  0.00  0.00    +0.056 N 
ATOM     15  O   UNL     1      -4.069 -12.614   8.932  0.00  0.00    -0.126 OA
ATOM     16  O   UNL     1      -4.019 -14.232   7.604  0.00  0.00    -0.126 OA
ENDBRANCH  11  14
ENDBRANCH   6   8
ENDBRANCH   4   6
ENDBRANCH   2   4
ENDBRANCH   1   2
BRANCH   1  17
ATOM     17  C   UNL     1      -1.539  -5.496   1.496  0.00  0.00    +0.035 C 
BRANCH  17  24
ATOM     18  C   UNL     1       4.343  -2.441  -2.006  0.00  0.00    +0.044 C 
ATOM     19  C   UNL     1       3.378  -3.023  -1.006  0.00  0.00    -0.049 A 
ATOM     20  C   UNL     1       3.862  -3.920  -0.053  0.00  0.00    +0.004 A 
ATOM     21  C   UNL     1       3.041  -4.478   0.874  0.00  0.00    +0.010 A 
ATOM     22  C   UNL     1       1.621  -4.124   0.863  0.00  0.00    -0.007 A 
ATOM     23  C   UNL     1       0.760  -4.659   1.774  0.00  0.00    -0.005 C 
ATOM     24  C   UNL     1      -0.694  -4.236   1.689  0.00  0.00    +0.100 C 
ATOM     25  C   UNL     1      -1.069  -3.256   0.601  0.00  0.00    +0.224 C 
ATOM     26  O   UNL     1      -2.222  -2.882   0.487  0.00  0.00    -0.275 OA
ATOM     27  N   UNL     1      -0.141  -2.806  -0.227  0.00  0.00    -0.284 N 
ATOM     28  C   UNL     1       1.138  -3.175  -0.155  0.00  0.00    +0.041 A 
ATOM     29  C   UNL     1       2.073  -2.651  -1.067  0.00  0.00    +0.027 A 
ATOM     30  H   UNL     1      -0.403  -2.177  -0.918  0.00  0.00    +0.155 HD
ENDBRANCH  17  24
ENDBRANCH   1  17
TORSDOF 7
