REMARK  Name = ZINC10217671
REMARK  4 active torsions:
REMARK  status: ('A' for Active; 'I' for Inactive)
REMARK    1  A    between atoms: C_6  and  N_7
REMARK    2  A    between atoms: C_8  and  C_10
REMARK    3  A    between atoms: N_15  and  S_16
REMARK    4  A    between atoms: S_16  and  C_19
REMARK                            x       y       z     vdW  Elec       q    Type
REMARK                         _______ _______ _______ _____ _____    ______ ____
ROOT
ATOM      1  C   UNL     1       4.201  -1.387   0.138  0.00  0.00    +0.166 C 
ATOM      2  C   UNL     1       5.011  -1.142  -1.160  0.00  0.00    +0.031 C 
ATOM      3  C   UNL     1       5.555  -2.564  -1.460  0.00  0.00    +0.019 C 
ATOM      4  C   UNL     1       4.399  -3.479  -1.004  0.00  0.00    +0.110 C 
ATOM      5  N   UNL     1       3.591  -2.716  -0.042  0.00  0.00    -0.164 NA
ENDROOT
BRANCH   1   7
ATOM      6  N   UNL     1       3.404   0.808   0.956  0.00  0.00    -0.284 N 
ATOM      7  C   UNL     1       3.133  -0.336   0.296  0.00  0.00    +0.236 C 
ATOM      8  O   UNL     1       2.028  -0.519  -0.171  0.00  0.00    -0.274 OA
ATOM      9  H   UNL     1       4.306   0.988   1.264  0.00  0.00    +0.155 HD
BRANCH   6  15
ATOM     10  C   UNL     1       1.091   1.280   1.450  0.00  0.00    +0.024 A 
ATOM     11  C   UNL     1       0.083   2.195   1.683  0.00  0.00    +0.019 A 
ATOM     12  C   UNL     1       0.370   3.538   1.673  0.00  0.00    +0.039 A 
ATOM     13  C   UNL     1       1.668   4.039   1.421  0.00  0.00    +0.080 A 
ATOM     14  C   UNL     1       2.677   3.081   1.181  0.00  0.00    +0.052 A 
ATOM     15  C   UNL     1       2.383   1.736   1.197  0.00  0.00    +0.036 A 
ATOM     16  N   UNL     1       1.764   5.385   1.446  0.00  0.00    -0.247 NA
ATOM     17  C   UNL     1       0.739   6.155   1.684  0.00  0.00    +0.157 A 
ATOM     18  S   UNL     1      -0.562   5.030   1.916  0.00  0.00    -0.075 S 
ENDBRANCH   6  15
ENDBRANCH   1   7
BRANCH   5  19
ATOM     19  S   UNL     1       2.222  -3.260   0.714  0.00  0.00    +0.068 S 
ATOM     20  O   UNL     1       2.428  -4.640   0.984  0.00  0.00    -0.152 OA
ATOM     21  O   UNL     1       1.921  -2.320   1.736  0.00  0.00    -0.152 OA
BRANCH  19  22
ATOM     22  C   UNL     1       0.908  -3.168  -0.458  0.00  0.00    +0.144 A 
ATOM     23  C   UNL     1       0.566  -4.051  -1.427  0.00  0.00    +0.038 A 
ATOM     24  C   UNL     1      -0.519  -3.770  -2.237  0.00  0.00    +0.030 A 
ATOM     25  C   UNL     1      -1.201  -2.613  -2.045  0.00  0.00    +0.080 A 
ATOM     26  S   UNL     1      -0.311  -1.883  -0.679  0.00  0.00    -0.057 S 
ATOM     27 CL   UNL     1      -2.580  -2.001  -2.902  0.00  0.00    -0.076 Cl
ENDBRANCH  19  22
ENDBRANCH   5  19
TORSDOF 4
