REMARK  Name = ZINC01454208
REMARK  3 active torsions:
REMARK  status: ('A' for Active; 'I' for Inactive)
REMARK    1  A    between atoms: C_8  and  C_13
REMARK    2  A    between atoms: N_15  and  C_16
REMARK    3  A    between atoms: C_17  and  C_25
REMARK                            x       y       z     vdW  Elec       q    Type
REMARK                         _______ _______ _______ _____ _____    ______ ____
ROOT
ATOM      1  C   UNL     1      -2.366   2.062   0.026  0.00  0.00    +0.259 C 
ATOM      2  O   UNL     1      -2.527   0.860   0.020  0.00  0.00    -0.271 OA
ATOM      3  N   UNL     1      -1.119   2.575   0.022  0.00  0.00    -0.276 N 
ATOM      4  H   UNL     1      -0.991   3.537   0.026  0.00  0.00    +0.155 HD
ENDROOT
BRANCH   1  12
ATOM      5  C   UNL     1      -6.202   6.298  -2.334  0.00  0.00    +0.000 A 
ATOM      6  C   UNL     1      -7.314   5.886  -1.622  0.00  0.00    +0.001 A 
ATOM      7  C   UNL     1      -7.233   4.790  -0.787  0.00  0.00    +0.015 A 
ATOM      8  C   UNL     1      -6.026   4.104  -0.665  0.00  0.00    +0.062 A 
ATOM      9  C   UNL     1      -4.906   4.520  -1.387  0.00  0.00    -0.029 A 
ATOM     10  C   UNL     1      -5.003   5.619  -2.218  0.00  0.00    +0.004 A 
ATOM     11  C   UNL     1      -3.599   3.782  -1.266  0.00  0.00    +0.090 C 
ATOM     12  C   UNL     1      -3.559   2.983   0.037  0.00  0.00    +0.266 C 
ATOM     13  O   UNL     1      -4.780   2.195   0.157  0.00  0.00    -0.448 OA
ATOM     14  C   UNL     1      -5.918   2.931   0.233  0.00  0.00    +0.340 C 
ATOM     15  O   UNL     1      -6.809   2.641   1.006  0.00  0.00    -0.245 OA
ENDBRANCH   1  12
BRANCH   3  16
ATOM     16  C   UNL     1      -0.021   1.728   0.011  0.00  0.00    +0.084 A 
ATOM     17  C   UNL     1       1.325   2.063   0.001  0.00  0.00    +0.068 A 
ATOM     18  C   UNL     1       2.288   0.974  -0.014  0.00  0.00    -0.023 A 
ATOM     19  C   UNL     1       1.753  -0.266  -0.016  0.00  0.00    -0.004 A 
ATOM     20  S   UNL     1       0.002  -0.004   0.002  0.00  0.00    -0.077 S 
ATOM     21  C   UNL     1       2.492  -1.568  -0.031  0.00  0.00    +0.043 C 
ATOM     22  C   UNL     1       3.951  -1.292  -0.422  0.00  0.00    +0.005 C 
ATOM     23  C   UNL     1       4.473  -0.121   0.416  0.00  0.00    +0.005 C 
ATOM     24  C   UNL     1       3.798   1.178  -0.027  0.00  0.00    +0.037 C 
BRANCH  17  25
ATOM     25  C   UNL     1       1.761   3.463   0.004  0.00  0.00    +0.244 C 
ATOM     26  O   UNL     1       1.952   4.038   1.059  0.00  0.00    -0.270 OA
ATOM     27  N   UNL     1       1.950   4.113  -1.162  0.00  0.00    -0.325 N 
ATOM     28  H   UNL     1       1.797   3.654  -2.003  0.00  0.00    +0.145 HD
ATOM     29  H   UNL     1       2.238   5.039  -1.160  0.00  0.00    +0.145 HD
ENDBRANCH  17  25
ENDBRANCH   3  16
TORSDOF 3
