REMARK  Name = ZINC40320936
REMARK  5 active torsions:
REMARK  status: ('A' for Active; 'I' for Inactive)
REMARK    1  A    between atoms: C_1  and  C_2
REMARK    2  A    between atoms: C_2  and  N_3
REMARK    3  A    between atoms: C_5  and  N_20
REMARK    4  A    between atoms: C_7  and  C_8
REMARK    5  A    between atoms: C_15  and  C_17
REMARK                            x       y       z     vdW  Elec       q    Type
REMARK                         _______ _______ _______ _____ _____    ______ ____
ROOT
ATOM      1  C   UNL     1      -1.728  -0.436  -2.257  0.00  0.00    +0.264 C 
ATOM      2  O   UNL     1      -2.519  -0.421  -3.181  0.00  0.00    -0.268 OA
ATOM      3  N   UNL     1      -0.486   0.060  -2.425  0.00  0.00    -0.285 N 
ATOM      4  C   UNL     1       0.416   0.224  -1.277  0.00  0.00    +0.109 C 
ATOM      5  C   UNL     1       0.919   1.670  -1.248  0.00  0.00    +0.019 C 
ATOM      6  C   UNL     1       1.552   2.013  -2.599  0.00  0.00    +0.004 C 
ATOM      7  C   UNL     1       0.500   1.890  -3.703  0.00  0.00    +0.032 C 
ATOM      8  C   UNL     1      -0.006   0.441  -3.760  0.00  0.00    +0.162 C 
ENDROOT
BRANCH   1  13
ATOM      9  N   UNL     1      -3.399  -1.010  -0.440  0.00  0.00    -0.342 N 
ATOM     10  C   UNL     1      -3.365  -1.616   0.777  0.00  0.00    +0.109 A 
ATOM     11  C   UNL     1      -2.085  -1.983   1.046  0.00  0.00    +0.043 A 
ATOM     12  C   UNL     1      -1.290  -1.593  -0.041  0.00  0.00    +0.055 A 
ATOM     13  C   UNL     1      -2.126  -0.993  -0.960  0.00  0.00    +0.106 A 
BRANCH  11  14
ATOM     14  N   UNL     1      -1.636  -2.638   2.208  0.00  0.00    -0.357 N 
ATOM     15  H   UNL     1      -2.266  -2.868   2.909  0.00  0.00    +0.142 HD
ATOM     16  H   UNL     1      -0.697  -2.860   2.309  0.00  0.00    +0.142 HD
ENDBRANCH  11  14
BRANCH   9  18
ATOM     17  C   UNL     1      -5.189  -1.526  -2.024  0.00  0.00    +0.027 C 
ATOM     18  C   UNL     1      -4.595  -0.469  -1.091  0.00  0.00    +0.118 C 
ENDBRANCH   9  18
ENDBRANCH   1  13
BRANCH   8  19
ATOM     19  C   UNL     1      -1.137   0.337  -4.752  0.00  0.00    +0.231 C 
ATOM     20  O   UNL     1      -2.067   1.114  -4.694  0.00  0.00    -0.274 OA
ATOM     21  N   UNL     1      -1.114  -0.618  -5.702  0.00  0.00    -0.328 N 
ATOM     22  H   UNL     1      -0.370  -1.239  -5.748  0.00  0.00    +0.145 HD
ATOM     23  H   UNL     1      -1.842  -0.684  -6.340  0.00  0.00    +0.145 HD
ENDBRANCH   8  19
TORSDOF 4
