REMARK  Name = ZINC64409698
REMARK  6 active torsions:
REMARK  status: ('A' for Active; 'I' for Inactive)
REMARK    1  A    between atoms: C_7  and  C_10
REMARK    2  A    between atoms: C_10  and  C_11
REMARK    3  A    between atoms: N_16  and  C_19
REMARK    4  A    between atoms: C_23  and  S_26
REMARK    5  A    between atoms: S_26  and  C_27
REMARK    6  A    between atoms: C_27  and  C_28
REMARK                            x       y       z     vdW  Elec       q    Type
REMARK                         _______ _______ _______ _____ _____    ______ ____
ROOT
ATOM      1  C   UNL     1       0.460  -3.646  -1.440  0.00  0.00    +0.220 C 
ATOM      2  O   UNL     1       1.006  -3.075  -2.360  0.00  0.00    -0.275 OA
ATOM      3  N   UNL     1      -0.353  -4.693  -1.684  0.00  0.00    -0.299 N 
ATOM      4  C   UNL     1      -1.030  -5.396  -0.584  0.00  0.00    +0.123 C 
ATOM      5  C   UNL     1      -2.524  -5.487  -0.911  0.00  0.00    +0.105 C 
ATOM      6  N   UNL     1      -2.696  -6.097  -2.236  0.00  0.00    -0.275 NA
ATOM      7  C   UNL     1      -2.099  -5.263  -3.288  0.00  0.00    +0.105 C 
ATOM      8  C   UNL     1      -0.592  -5.159  -3.059  0.00  0.00    +0.123 C 
ENDROOT
BRANCH   6   9
ATOM      9  C   UNL     1      -4.114  -6.360  -2.514  0.00  0.00    +0.201 C 
ATOM     10  N   UNL     1      -4.871  -5.095  -2.696  0.00  0.00    -0.229 NA
ATOM     11  N   UNL     1      -5.848  -5.085  -3.755  0.00  0.00    -0.232 NA
ATOM     12  C   UNL     1      -5.979  -6.343  -4.536  0.00  0.00    +0.187 C 
ATOM     13  S   UNL     1      -4.339  -7.121  -4.184  0.00  0.00    -0.094 S 
ATOM     14  H   UNL     1      -5.279  -4.790  -1.825  0.00  0.00    +0.143 HD
ATOM     15  H   UNL     1      -6.747  -4.776  -3.415  0.00  0.00    +0.143 HD
BRANCH  12  16
ATOM     16  S   UNL     1      -6.179  -5.999  -6.306  0.00  0.00    -0.121 S 
BRANCH  16  17
ATOM     17  C   UNL     1      -4.690  -5.059  -6.742  0.00  0.00    +0.167 C 
BRANCH  17  18
ATOM     18  C   UNL     1      -4.730  -4.705  -8.206  0.00  0.00    +0.220 C 
ATOM     19  O   UNL     1      -5.670  -5.053  -8.888  0.00  0.00    -0.275 OA
ATOM     20  N   UNL     1      -3.721  -4.002  -8.757  0.00  0.00    -0.329 N 
ATOM     21  H   UNL     1      -2.969  -3.724  -8.211  0.00  0.00    +0.145 HD
ATOM     22  H   UNL     1      -3.746  -3.774  -9.700  0.00  0.00    +0.145 HD
ENDBRANCH  17  18
ENDBRANCH  16  17
ENDBRANCH  12  16
ENDBRANCH   6   9
BRANCH   1  23
ATOM     23  C   UNL     1       0.691  -3.186  -0.024  0.00  0.00    +0.129 C 
BRANCH  23  30
ATOM     24  C   UNL     1      -0.016   1.348   0.009  0.00  0.00    +0.001 A 
ATOM     25  C   UNL     1       1.166   2.101   0.002  0.00  0.00    +0.002 A 
ATOM     26  C   UNL     1       2.391   1.535  -0.013  0.00  0.00    +0.026 A 
ATOM     27  C   UNL     1       2.529   0.120  -0.022  0.00  0.00    +0.043 A 
ATOM     28  N   UNL     1       3.587  -0.654  -0.037  0.00  0.00    -0.380 N 
ATOM     29  C   UNL     1       3.143  -2.053  -0.041  0.00  0.00    +0.145 C 
ATOM     30  C   UNL     1       1.631  -2.008  -0.025  0.00  0.00    -0.033 C 
ATOM     31  C   UNL     1       1.295  -0.698  -0.014  0.00  0.00    -0.001 A 
ATOM     32  C   UNL     1       0.002  -0.004   0.002  0.00  0.00    +0.010 A 
ATOM     33  H   UNL     1       4.509  -0.353  -0.045  0.00  0.00    +0.160 HD
ENDBRANCH  23  30
ENDBRANCH   1  23
TORSDOF 6
