REMARK  Name = ZINC05560717
REMARK  4 active torsions:
REMARK  status: ('A' for Active; 'I' for Inactive)
REMARK    1  A    between atoms: N_5  and  N_6
REMARK    2  A    between atoms: N_6  and  C_7
REMARK    3  A    between atoms: C_7  and  N_9
REMARK    4  A    between atoms: C_10  and  C_12
REMARK                            x       y       z     vdW  Elec       q    Type
REMARK                         _______ _______ _______ _____ _____    ______ ____
ROOT
ATOM      1  N   UNL     1      -1.995  -3.010  -0.198  0.00  0.00    -0.266 N 
ATOM      2  C   UNL     1      -1.817  -4.342  -0.308  0.00  0.00    +0.225 C 
ATOM      3  O   UNL     1      -0.696  -4.804  -0.322  0.00  0.00    -0.275 OA
ATOM      4  H   UNL     1      -2.891  -2.640  -0.187  0.00  0.00    +0.157 HD
ENDROOT
BRANCH   2   5
ATOM      5  C   UNL     1      -3.010  -5.255  -0.415  0.00  0.00    +0.048 C 
ATOM      6  C   UNL     1      -3.883  -5.102   0.832  0.00  0.00    +0.019 C 
ATOM      7  C   UNL     1      -5.095  -6.029   0.724  0.00  0.00    -0.009 C 
ATOM      8  C   UNL     1      -4.619  -7.479   0.610  0.00  0.00    +0.007 C 
ATOM      9  C   UNL     1      -3.746  -7.633  -0.637  0.00  0.00    -0.009 C 
ATOM     10  C   UNL     1      -2.534  -6.705  -0.529  0.00  0.00    +0.019 C 
ATOM     11  C   UNL     1      -4.561  -7.264  -1.878  0.00  0.00    +0.007 C 
ATOM     12  C   UNL     1      -5.037  -5.815  -1.764  0.00  0.00    -0.009 C 
ATOM     13  C   UNL     1      -5.910  -5.661  -0.517  0.00  0.00    +0.007 C 
ATOM     14  C   UNL     1      -3.825  -4.887  -1.656  0.00  0.00    +0.019 C 
ENDBRANCH   2   5
BRANCH   1  15
ATOM     15  C   UNL     1      -0.927  -2.193  -0.102  0.00  0.00    +0.155 C 
ATOM     16  S   UNL     1       0.655  -2.846  -0.122  0.00  0.00    -0.017 S 
BRANCH  15  17
ATOM     17  N   UNL     1      -1.105  -0.862   0.008  0.00  0.00    -0.232 N 
ATOM     18  H   UNL     1      -2.000  -0.498   0.098  0.00  0.00    +0.175 HD
BRANCH  17  23
ATOM     19  C   UNL     1       1.147  -0.162  -0.712  0.00  0.00    +0.244 A 
ATOM     20  N   UNL     1       1.915   0.858  -0.441  0.00  0.00    -0.137 NA
ATOM     21  N   UNL     1       1.319   1.640   0.387  0.00  0.00    -0.137 NA
ATOM     22  C   UNL     1       0.144   1.154   0.683  0.00  0.00    +0.244 A 
ATOM     23  N   UNL     1       0.002  -0.004  -0.006  0.00  0.00    -0.235 N 
ENDBRANCH  17  23
ENDBRANCH  15  17
ENDBRANCH   1  15
TORSDOF 4
