REMARK  Name = ZINC61591250
REMARK  1 active torsions:
REMARK  status: ('A' for Active; 'I' for Inactive)
REMARK    1  A    between atoms: C_10  and  N_12
REMARK                            x       y       z     vdW  Elec       q    Type
REMARK                         _______ _______ _______ _____ _____    ______ ____
ROOT
ATOM      1  C   UNL     1      -0.017   1.375   0.010  0.00  0.00    +0.000 A 
ATOM      2  C   UNL     1       1.174   2.078   0.002  0.00  0.00    +0.000 A 
ATOM      3  C   UNL     1       2.372   1.395  -0.010  0.00  0.00    +0.006 A 
ATOM      4  C   UNL     1       2.393   0.006  -0.017  0.00  0.00    -0.021 A 
ATOM      5  C   UNL     1       1.208  -0.694  -0.015  0.00  0.00    -0.042 A 
ATOM      6  C   UNL     1       0.002  -0.004   0.002  0.00  0.00    +0.004 A 
ATOM      7  C   UNL     1       1.155  -2.199  -0.038  0.00  0.00    +0.035 C 
ATOM      8  C   UNL     1       2.501  -2.790   0.375  0.00  0.00    +0.007 C 
ATOM      9  C   UNL     1       3.599  -2.130  -0.467  0.00  0.00    +0.030 C 
ATOM     10  C   UNL     1       3.737  -0.675  -0.023  0.00  0.00    +0.124 C 
ENDROOT
BRANCH  10  11
ATOM     11  N   UNL     1       4.631   0.029  -0.946  0.00  0.00    -0.264 N 
ATOM     12  C   UNL     1       4.414   0.200  -2.263  0.00  0.00    +0.344 A 
ATOM     13  O   UNL     1       3.449  -0.201  -2.884  0.00  0.00    -0.245 OA
ATOM     14  N   UNL     1       5.450   0.893  -2.778  0.00  0.00    -0.249 N 
ATOM     15  H   UNL     1       5.562   1.161  -3.703  0.00  0.00    +0.191 HD
ATOM     16  N   UNL     1       6.336   1.153  -1.721  0.00  0.00    -0.275 N 
ATOM     17  C   UNL     1       5.797   0.611  -0.610  0.00  0.00    +0.177 A 
ATOM     18  S   UNL     1       6.480   0.653   0.959  0.00  0.00    -0.011 S 
ATOM     19  H   UNL     1       7.176   1.635  -1.778  0.00  0.00    +0.189 HD
ENDBRANCH  10  11
TORSDOF 1
