REMARK  Name = ZINC44879654
REMARK  9 active torsions:
REMARK  status: ('A' for Active; 'I' for Inactive)
REMARK    1  A    between atoms: C_1  and  C_2
REMARK    2  A    between atoms: C_2  and  C_3
REMARK    3  A    between atoms: C_2  and  C_4
REMARK    4  A    between atoms: C_4  and  C_6
REMARK    5  A    between atoms: C_4  and  C_10
REMARK    6  A    between atoms: N_7  and  O_8
REMARK    7  A    between atoms: N_12  and  C_13
REMARK    8  A    between atoms: C_13  and  C_14
REMARK    9  A    between atoms: N_19  and  C_21
REMARK                            x       y       z     vdW  Elec       q    Type
REMARK                         _______ _______ _______ _____ _____    ______ ____
ROOT
ATOM      1  C   UNL     1      -1.438  -1.821   0.205  0.00  0.00    +0.224 C 
ATOM      2  O   UNL     1      -1.889  -2.517  -0.681  0.00  0.00    -0.275 OA
ATOM      3  N   UNL     1      -0.994  -2.385   1.345  0.00  0.00    -0.315 N 
ATOM      4  H   UNL     1      -0.561  -1.839   2.020  0.00  0.00    +0.149 HD
ENDROOT
BRANCH   1   5
ATOM      5  C   UNL     1      -1.375  -0.326   0.030  0.00  0.00    +0.144 C 
BRANCH   5   6
ATOM      6  C   UNL     1      -2.445   0.112  -0.937  0.00  0.00    +0.144 C 
ATOM      7  N   UNL     1      -2.162   0.263  -2.188  0.00  0.00    -0.076 NA
ATOM      8  N   UNL     1      -3.724   0.352  -0.486  0.00  0.00    -0.343 N 
ATOM      9  H   UNL     1      -3.936   0.238   0.454  0.00  0.00    +0.144 HD
ATOM     10  H   UNL     1      -4.413   0.634  -1.108  0.00  0.00    +0.144 HD
BRANCH   7  11
ATOM     11  O   UNL     1      -3.168   0.675  -3.097  0.00  0.00    -0.408 OA
ATOM     12  H   UNL     1      -2.862   0.760  -4.010  0.00  0.00    +0.328 HD
ENDBRANCH   7  11
ENDBRANCH   5   6
BRANCH   5  14
ATOM     13  C   UNL     1       0.047   1.579  -0.741  0.00  0.00    +0.008 C 
ATOM     14  C   UNL     1      -0.001   0.066  -0.518  0.00  0.00    +0.002 C 
ATOM     15  C   UNL     1       1.082  -0.337   0.485  0.00  0.00    +0.008 C 
ENDBRANCH   5  14
ENDBRANCH   1   5
BRANCH   3  16
ATOM     16  C   UNL     1      -1.165  -3.824   1.566  0.00  0.00    +0.106 C 
BRANCH  16  17
ATOM     17  C   UNL     1      -0.579  -4.204   2.927  0.00  0.00    -0.011 C 
ATOM     18  C   UNL     1       0.935  -3.976   2.913  0.00  0.00    +0.001 C 
ATOM     19  C   UNL     1       1.523  -4.433   4.252  0.00  0.00    -0.018 C 
ATOM     20  C   UNL     1       1.160  -5.901   4.487  0.00  0.00    -0.079 C 
ATOM     21  N   UNL     1      -0.300  -6.048   4.516  0.00  0.00    +0.378 N 
ATOM     22  C   UNL     1      -0.865  -5.680   3.212  0.00  0.00    -0.074 C 
ATOM     23  C   UNL     1      -0.644  -7.444   4.820  0.00  0.00    -0.096 C 
ATOM     24  H   UNL     1      -0.684  -5.447   5.229  0.00  0.00    -0.082 HD
ENDBRANCH  16  17
ENDBRANCH   3  16
TORSDOF 6
