REMARK  Name = ZINC37606996
REMARK  3 active torsions:
REMARK  status: ('A' for Active; 'I' for Inactive)
REMARK    1  A    between atoms: C_4  and  N_7
REMARK    2  A    between atoms: N_11  and  C_14
REMARK    3  A    between atoms: C_17  and  N_20
REMARK                            x       y       z     vdW  Elec       q    Type
REMARK                         _______ _______ _______ _____ _____    ______ ____
ROOT
ATOM      1  N   UNL     1       3.622  -0.651  -0.021  0.00  0.00    -0.246 N 
ATOM      2  C   UNL     1       3.815  -2.111  -0.064  0.00  0.00    +0.212 C 
ATOM      3  C   UNL     1       5.322  -2.270  -0.086  0.00  0.00    +0.245 C 
ATOM      4  O   UNL     1       5.948  -3.308  -0.124  0.00  0.00    -0.273 OA
ATOM      5  N   UNL     1       5.821  -1.019  -0.058  0.00  0.00    -0.193 N 
ATOM      6  C   UNL     1       4.849  -0.100  -0.025  0.00  0.00    +0.320 C 
ATOM      7  O   UNL     1       5.052   1.098   0.000  0.00  0.00    -0.251 OA
ENDROOT
BRANCH   1  11
ATOM      8  C   UNL     1      -0.016   1.377   0.077  0.00  0.00    +0.000 A 
ATOM      9  C   UNL     1       1.170   2.088   0.077  0.00  0.00    +0.002 A 
ATOM     10  C   UNL     1       2.378   1.418   0.045  0.00  0.00    +0.023 A 
ATOM     11  C   UNL     1       2.400   0.030   0.012  0.00  0.00    +0.038 A 
ATOM     12  C   UNL     1       1.207  -0.680   0.012  0.00  0.00    +0.023 A 
ATOM     13  C   UNL     1       0.003  -0.005   0.044  0.00  0.00    +0.002 A 
ENDBRANCH   1  11
BRANCH   5  14
ATOM     14  C   UNL     1       7.192  -0.717  -0.065  0.00  0.00    +0.046 A 
ATOM     15  C   UNL     1       7.611   0.604  -0.155  0.00  0.00    +0.026 A 
ATOM     16  C   UNL     1       8.959   0.902  -0.163  0.00  0.00    +0.024 A 
ATOM     17  C   UNL     1       9.896  -0.120  -0.080  0.00  0.00    +0.025 A 
ATOM     18  C   UNL     1       9.477  -1.441   0.010  0.00  0.00    +0.024 A 
ATOM     19  C   UNL     1       8.128  -1.738   0.023  0.00  0.00    +0.026 A 
BRANCH  17  20
ATOM     20  N   UNL     1      11.262   0.181  -0.089  0.00  0.00    -0.358 N 
ATOM     21  H   UNL     1      11.555   1.104  -0.152  0.00  0.00    +0.142 HD
ATOM     22  H   UNL     1      11.916  -0.533  -0.031  0.00  0.00    +0.142 HD
ENDBRANCH  17  20
ENDBRANCH   5  14
TORSDOF 3
