REMARK  Name = ZINC32631716
REMARK  7 active torsions:
REMARK  status: ('A' for Active; 'I' for Inactive)
REMARK    1  A    between atoms: C_1  and  C_2
REMARK    2  A    between atoms: C_5  and  C_28
REMARK    3  A    between atoms: C_6  and  S_8
REMARK    4  A    between atoms: S_8  and  N_11
REMARK    5  A    between atoms: N_11  and  C_12
REMARK    6  A    between atoms: C_16  and  S_18
REMARK    7  A    between atoms: S_18  and  N_21
REMARK                            x       y       z     vdW  Elec       q    Type
REMARK                         _______ _______ _______ _____ _____    ______ ____
ROOT
ATOM      1  C   UNL     1       0.149  -0.054  -0.019  0.00  0.00    +0.050 A 
ATOM      2  C   UNL     1       1.318  -0.798  -0.116  0.00  0.00    +0.024 A 
ATOM      3  C   UNL     1       2.542  -0.159  -0.142  0.00  0.00    +0.004 A 
ATOM      4  C   UNL     1       2.604   1.221  -0.071  0.00  0.00    +0.028 A 
ATOM      5  C   UNL     1       1.442   1.965   0.025  0.00  0.00    +0.107 A 
ATOM      6  C   UNL     1       0.215   1.331   0.051  0.00  0.00    +0.053 A 
ENDROOT
BRANCH   5   7
ATOM      7  S   UNL     1       1.527   3.723   0.114  0.00  0.00    +0.061 S 
ATOM      8  O   UNL     1       2.763   4.100  -0.479  0.00  0.00    -0.153 OA
ATOM      9  O   UNL     1       0.278   4.214  -0.352  0.00  0.00    -0.153 OA
BRANCH   7  10
ATOM     10  N   UNL     1       1.628   4.128   1.716  0.00  0.00    -0.166 NA
ATOM     11  C   UNL     1       0.420   4.379   2.520  0.00  0.00    +0.128 C 
ATOM     12  C   UNL     1       0.383   3.344   3.653  0.00  0.00    +0.121 C 
ATOM     13  N   UNL     1       1.682   3.246   4.305  0.00  0.00    -0.313 N 
ATOM     14  C   UNL     1       2.838   3.608   3.747  0.00  0.00    +0.229 C 
ATOM     15  O   UNL     1       3.865   3.405   4.360  0.00  0.00    -0.274 OA
ATOM     16  C   UNL     1       2.927   4.257   2.393  0.00  0.00    +0.205 C 
ATOM     17  H   UNL     1       1.755   2.850   5.329  0.00  0.00    +0.149 HD
ENDBRANCH   7  10
ENDBRANCH   5   7
BRANCH   1  18
ATOM     18  N   UNL     1      -1.090  -0.698   0.006  0.00  0.00    -0.216 N 
ATOM     19  H   UNL     1      -1.847  -0.404   0.748  0.00  0.00    +0.174 HD
BRANCH  18  20
ATOM     20  S   UNL     1      -1.420  -1.903  -1.080  0.00  0.00    +0.073 S 
ATOM     21  O   UNL     1      -0.351  -2.836  -0.989  0.00  0.00    -0.150 OA
ATOM     22  O   UNL     1      -2.776  -2.276  -0.874  0.00  0.00    -0.150 OA
BRANCH  20  28
ATOM     23  C   UNL     1       0.732  -1.553  -5.831  0.00  0.00    +0.044 C 
ATOM     24  C   UNL     1      -0.308  -1.074  -4.851  0.00  0.00    -0.049 A 
ATOM     25  C   UNL     1      -1.194  -0.077  -5.216  0.00  0.00    +0.004 A 
ATOM     26  C   UNL     1      -2.148   0.362  -4.318  0.00  0.00    +0.005 A 
ATOM     27  C   UNL     1      -2.221  -0.199  -3.056  0.00  0.00    -0.024 A 
ATOM     28  C   UNL     1      -1.332  -1.192  -2.690  0.00  0.00    +0.112 A 
ATOM     29  C   UNL     1      -0.377  -1.631  -3.588  0.00  0.00    +0.032 A 
ATOM     30  C   UNL     1      -3.265   0.275  -2.079  0.00  0.00    +0.046 C 
ENDBRANCH  20  28
ENDBRANCH  18  20
ENDBRANCH   1  18
TORSDOF 5
