REMARK  Name = ZINC20295339
REMARK  3 active torsions:
REMARK  status: ('A' for Active; 'I' for Inactive)
REMARK    1  A    between atoms: C_3  and  C_9
REMARK    2  A    between atoms: C_4  and  O_8
REMARK    3  A    between atoms: C_15  and  C_17
REMARK                            x       y       z     vdW  Elec       q    Type
REMARK                         _______ _______ _______ _____ _____    ______ ____
ROOT
ATOM      1  C   UNL     1       3.691  -0.693  -0.036  0.00  0.00    +0.251 C 
ATOM      2  O   UNL     1       4.732  -0.074  -0.138  0.00  0.00    -0.270 OA
ATOM      3  N   UNL     1       3.711  -2.037   0.058  0.00  0.00    -0.286 N 
ATOM      4  C   UNL     1       2.527  -2.915   0.084  0.00  0.00    +0.109 C 
ATOM      5  C   UNL     1       3.043  -4.288  -0.420  0.00  0.00    +0.021 C 
ATOM      6  C   UNL     1       4.456  -4.341   0.220  0.00  0.00    +0.033 C 
ATOM      7  C   UNL     1       4.918  -2.870   0.160  0.00  0.00    +0.162 C 
ENDROOT
BRANCH   1  10
ATOM      8  C   UNL     1       0.161   0.259   0.812  0.00  0.00    +0.021 A 
ATOM      9  C   UNL     1       1.361  -0.419   0.797  0.00  0.00    +0.018 A 
ATOM     10  C   UNL     1       2.404   0.028  -0.017  0.00  0.00    +0.078 A 
ATOM     11  C   UNL     1       2.222   1.166  -0.816  0.00  0.00    +0.130 A 
ATOM     12  C   UNL     1       1.009   1.837  -0.789  0.00  0.00    +0.066 A 
ATOM     13  C   UNL     1      -0.016   1.384   0.021  0.00  0.00    +0.044 A 
ATOM     14 CL   UNL     1      -1.534   2.224   0.043  0.00  0.00    -0.083 Cl
BRANCH  11  15
ATOM     15  O   UNL     1       3.228   1.609  -1.610  0.00  0.00    -0.506 OA
ATOM     16  H   UNL     1       3.082   2.502  -2.236  0.00  0.00    +0.292 HD
ENDBRANCH  11  15
ENDBRANCH   1  10
BRANCH   7  17
ATOM     17  C   UNL     1       5.793  -2.654  -1.048  0.00  0.00    +0.231 C 
ATOM     18  O   UNL     1       5.449  -1.879  -1.915  0.00  0.00    -0.274 OA
ATOM     19  N   UNL     1       6.958  -3.321  -1.165  0.00  0.00    -0.328 N 
ATOM     20  H   UNL     1       7.597  -3.163  -2.046  0.00  0.00    +0.145 HD
ATOM     21  H   UNL     1       7.271  -4.024  -0.378  0.00  0.00    +0.145 HD
ENDBRANCH   7  17
TORSDOF 3
