REMARK  Name = ZINC39856290
REMARK  8 active torsions:
REMARK  status: ('A' for Active; 'I' for Inactive)
REMARK    1  A    between atoms: C_1  and  C_2
REMARK    2  A    between atoms: C_2  and  C_3
REMARK    3  A    between atoms: C_8  and  N_9
REMARK    4  A    between atoms: C_10  and  C_12
REMARK    5  A    between atoms: C_13  and  C_28
REMARK    6  A    between atoms: C_18  and  C_26
REMARK    7  A    between atoms: C_18  and  C_27
REMARK    8  A    between atoms: N_21  and  N_22
REMARK                            x       y       z     vdW  Elec       q    Type
REMARK                         _______ _______ _______ _____ _____    ______ ____
ROOT
ATOM      1  C   UNL     1       4.926  -0.226   1.137  0.00  0.00    +0.193 A 
ATOM      2  C   UNL     1       6.275  -0.390   1.288  0.00  0.00    +0.009 A 
ATOM      3  C   UNL     1       6.566  -0.040   2.612  0.00  0.00    +0.042 A 
ATOM      4  C   UNL     1       5.383   0.320   3.213  0.00  0.00    +0.116 A 
ATOM      5  O   UNL     1       4.412   0.210   2.310  0.00  0.00    -0.454 OA
ATOM      6  C   UNL     1       5.295   0.757   4.654  0.00  0.00    +0.081 C 
ATOM      7  C   UNL     1       6.524   0.253   5.414  0.00  0.00    -0.023 C 
ATOM      8  C   UNL     1       7.812   0.673   4.699  0.00  0.00    +0.064 C 
ATOM      9  C   UNL     1       7.852  -0.018   3.344  0.00  0.00    +0.071 C 
ATOM     10  N   UNL     1       8.934  -0.549   2.865  0.00  0.00    -0.183 NA
ATOM     11  C   UNL     1       6.518   0.839   6.827  0.00  0.00    +0.011 C 
ATOM     12  C   UNL     1       6.471  -1.274   5.502  0.00  0.00    +0.011 C 
ATOM     13  C   UNL     1       7.252  -0.854   0.239  0.00  0.00    +0.048 C 
ENDROOT
BRANCH  10  14
ATOM     14  N   UNL     1      10.125  -0.498   3.602  0.00  0.00    -0.191 N 
ATOM     15  C   UNL     1      11.249  -1.050   3.104  0.00  0.00    +0.317 C 
ATOM     16  O   UNL     1      12.283  -1.006   3.744  0.00  0.00    -0.251 OA
ATOM     17  N   UNL     1      11.229  -1.650   1.898  0.00  0.00    -0.312 N 
ATOM     18  H   UNL     1      10.139  -0.066   4.470  0.00  0.00    +0.179 HD
ATOM     19  H   UNL     1      10.404  -1.685   1.387  0.00  0.00    +0.147 HD
ATOM     20  H   UNL     1      12.038  -2.047   1.540  0.00  0.00    +0.147 HD
ENDBRANCH  10  14
BRANCH   1  22
ATOM     21  N   UNL     1       2.833  -0.269  -0.114  0.00  0.00    -0.279 N 
ATOM     22  C   UNL     1       4.165  -0.474  -0.092  0.00  0.00    +0.284 C 
ATOM     23  O   UNL     1       4.736  -0.867  -1.093  0.00  0.00    -0.266 OA
ATOM     24  H   UNL     1       2.387   0.106   0.662  0.00  0.00    +0.155 HD
BRANCH  21  30
ATOM     25  C   UNL     1       0.800  -1.085  -1.129  0.00  0.00    -0.026 A 
ATOM     26  C   UNL     1       0.070  -1.400  -2.258  0.00  0.00    +0.005 A 
ATOM     27  C   UNL     1       0.627  -1.234  -3.512  0.00  0.00    +0.000 A 
ATOM     28  C   UNL     1       1.917  -0.751  -3.641  0.00  0.00    +0.002 A 
ATOM     29  C   UNL     1       2.652  -0.433  -2.516  0.00  0.00    +0.023 A 
ATOM     30  C   UNL     1       2.093  -0.595  -1.254  0.00  0.00    +0.037 A 
BRANCH  25  32
ATOM     31  C   UNL     1      -0.422   0.057   0.703  0.00  0.00    +0.009 C 
ATOM     32  C   UNL     1       0.191  -1.266   0.238  0.00  0.00    +0.033 C 
ENDBRANCH  25  32
ENDBRANCH  21  30
ENDBRANCH   1  22
TORSDOF 4
