REMARK  Name = ZINC09092217
REMARK  7 active torsions:
REMARK  status: ('A' for Active; 'I' for Inactive)
REMARK    1  A    between atoms: C_1  and  C_2
REMARK    2  A    between atoms: C_8  and  N_10
REMARK    3  A    between atoms: C_11  and  C_13
REMARK    4  A    between atoms: C_13  and  S_14
REMARK    5  A    between atoms: S_14  and  C_15
REMARK    6  A    between atoms: C_18  and  C_21
REMARK    7  A    between atoms: N_19  and  N_20
REMARK                            x       y       z     vdW  Elec       q    Type
REMARK                         _______ _______ _______ _____ _____    ______ ____
ROOT
ATOM      1  C   UNL     1       2.675  -3.114   0.042  0.00  0.00    +0.209 A 
ATOM      2  N   UNL     1       3.757  -2.389  -0.133  0.00  0.00    -0.121 NA
ATOM      3  N   UNL     1       4.792  -3.150  -0.197  0.00  0.00    -0.127 NA
ATOM      4  C   UNL     1       4.433  -4.406  -0.066  0.00  0.00    +0.183 A 
ATOM      5  N   UNL     1       3.067  -4.421   0.097  0.00  0.00    -0.224 N 
ENDROOT
BRANCH   4   6
ATOM      6  C   UNL     1       5.329  -5.581  -0.083  0.00  0.00    +0.035 A 
ATOM      7  C   UNL     1       5.010  -6.694  -0.863  0.00  0.00    +0.013 A 
ATOM      8  C   UNL     1       5.850  -7.788  -0.875  0.00  0.00    +0.001 A 
ATOM      9  C   UNL     1       7.008  -7.784  -0.117  0.00  0.00    +0.001 A 
ATOM     10  C   UNL     1       7.330  -6.685   0.658  0.00  0.00    +0.016 A 
ATOM     11  C   UNL     1       6.501  -5.581   0.676  0.00  0.00    +0.029 A 
ATOM     12 BR   UNL     1       6.948  -4.076   1.730  0.00  0.00    -0.050 Br
ENDBRANCH   4   6
BRANCH   5  13
ATOM     13  N   UNL     1       2.269  -5.515   0.273  0.00  0.00    -0.295 N 
ATOM     14  H   UNL     1       2.018  -5.927  -0.614  0.00  0.00    +0.163 HD
ATOM     15  H   UNL     1       2.713  -6.194   0.874  0.00  0.00    +0.163 HD
ENDBRANCH   5  13
BRANCH   1  16
ATOM     16  S   UNL     1       1.026  -2.510   0.188  0.00  0.00    -0.075 S 
BRANCH  16  17
ATOM     17  C   UNL     1       1.326  -0.733   0.027  0.00  0.00    +0.173 C 
BRANCH  17  19
ATOM     18  N   UNL     1      -0.004   1.353   0.030  0.00  0.00    -0.312 N 
ATOM     19  C   UNL     1       0.018   0.009   0.124  0.00  0.00    +0.224 C 
ATOM     20  O   UNL     1      -1.016  -0.604   0.286  0.00  0.00    -0.275 OA
ATOM     21  H   UNL     1       0.823   1.843  -0.100  0.00  0.00    +0.149 HD
BRANCH  18  28
ATOM     22  C   UNL     1      -0.807   3.172  -2.076  0.00  0.00    +0.009 C 
ATOM     23  C   UNL     1      -1.154   3.415  -0.606  0.00  0.00    +0.006 C 
ATOM     24  C   UNL     1      -2.483   4.168  -0.514  0.00  0.00    +0.005 C 
ATOM     25  C   UNL     1      -2.830   4.411   0.956  0.00  0.00    +0.000 C 
ATOM     26  C   UNL     1      -2.953   3.069   1.680  0.00  0.00    +0.002 C 
ATOM     27  C   UNL     1      -1.624   2.317   1.588  0.00  0.00    +0.022 C 
ATOM     28  C   UNL     1      -1.276   2.073   0.118  0.00  0.00    +0.076 C 
ENDBRANCH  18  28
ENDBRANCH  17  19
ENDBRANCH  16  17
ENDBRANCH   1  16
TORSDOF 6
