REMARK  Name = ZINC38656632
REMARK  11 active torsions:
REMARK  status: ('A' for Active; 'I' for Inactive)
REMARK    1  A    between atoms: C_1  and  C_2
REMARK    2  A    between atoms: C_2  and  C_14
REMARK    3  A    between atoms: C_4  and  N_11
REMARK    4  A    between atoms: C_7  and  C_9
REMARK    5  A    between atoms: C_7  and  C_10
REMARK    6  A    between atoms: C_14  and  N_15
REMARK    7  A    between atoms: N_18  and  C_19
REMARK    8  A    between atoms: C_21  and  C_27
REMARK    9  A    between atoms: C_21  and  C_28
REMARK   10  A    between atoms: C_23  and  C_25
REMARK   11  A    between atoms: C_23  and  C_26
REMARK                            x       y       z     vdW  Elec       q    Type
REMARK                         _______ _______ _______ _____ _____    ______ ____
ROOT
ATOM      1  N   UNL     1       0.470   0.226  -2.425  0.00  0.00    -0.299 N 
ATOM      2  C   UNL     1       1.023   0.004  -3.635  0.00  0.00    +0.300 C 
ATOM      3  O   UNL     1       2.086  -0.580  -3.719  0.00  0.00    -0.253 OA
ATOM      4  N   UNL     1       0.396   0.427  -4.750  0.00  0.00    -0.297 N 
ATOM      5  H   UNL     1      -0.378   0.691  -2.358  0.00  0.00    +0.150 HD
ATOM      6  H   UNL     1      -0.453   0.893  -4.682  0.00  0.00    +0.151 HD
ENDROOT
BRANCH   4   7
ATOM      7  C   UNL     1       0.998   0.185  -6.067  0.00  0.00    +0.072 C 
ATOM      8  C   UNL     1       1.964   1.325  -6.395  0.00  0.00    +0.009 C 
ATOM      9  C   UNL     1       2.590   1.093  -7.770  0.00  0.00    -0.072 C 
ATOM     10  N   UNL     1       1.585   0.899  -8.805  0.00  0.00    +0.386 N 
ATOM     11  C   UNL     1       0.492  -0.017  -8.521  0.00  0.00    -0.072 C 
ATOM     12  C   UNL     1      -0.102   0.169  -7.128  0.00  0.00    +0.009 C 
ATOM     13  C   UNL     1       0.909  -1.476  -8.720  0.00  0.00    -0.010 C 
ATOM     14  C   UNL     1      -0.634   0.274  -9.542  0.00  0.00    -0.010 C 
ATOM     15  C   UNL     1       3.585  -0.066  -7.710  0.00  0.00    -0.010 C 
ATOM     16  C   UNL     1       3.390   2.366  -8.130  0.00  0.00    -0.010 C 
ATOM     17  H   UNL     1       1.187   1.812  -9.040  0.00  0.00    -0.084 HD
ATOM     18  H   UNL     1       2.057   0.584  -9.656  0.00  0.00    -0.084 HD
ENDBRANCH   4   7
BRANCH   1  19
ATOM     19  C   UNL     1       1.152  -0.235  -1.213  0.00  0.00    +0.112 C 
BRANCH  19  21
ATOM     20  C   UNL     1       0.180   1.671   0.024  0.00  0.00    +0.013 C 
ATOM     21  C   UNL     1       0.309   0.146   0.030  0.00  0.00    -0.014 C 
ATOM     22  C   UNL     1      -1.051  -0.515  -0.131  0.00  0.00    +0.035 C 
ATOM     23  C   UNL     1      -1.881  -0.509   1.141  0.00  0.00    +0.119 C 
ATOM     24  C   UNL     1      -1.114  -1.084   2.319  0.00  0.00    +0.034 C 
ATOM     25  C   UNL     1       0.251  -0.450   2.529  0.00  0.00    -0.032 C 
ATOM     26  C   UNL     1       1.062  -0.338   1.253  0.00  0.00    +0.014 C 
ATOM     27  C   UNL     1       1.038  -1.367   3.499  0.00  0.00    +0.011 C 
ATOM     28  C   UNL     1       0.118   0.910   3.220  0.00  0.00    +0.011 C 
BRANCH  23  29
ATOM     29  N   UNL     1      -2.431   0.810   1.435  0.00  0.00    -0.202 NA
ATOM     30  C   UNL     1      -3.669   0.968   1.507  0.00  0.00    +0.235 C 
ATOM     31  O   UNL     1      -4.865   1.121   1.577  0.00  0.00    -0.210 OA
ENDBRANCH  23  29
ENDBRANCH  19  21
ENDBRANCH   1  19
TORSDOF 4
