REMARK  Name = ZINC31863267
REMARK  5 active torsions:
REMARK  status: ('A' for Active; 'I' for Inactive)
REMARK    1  A    between atoms: C_1  and  C_2
REMARK    2  A    between atoms: C_5  and  C_8
REMARK    3  A    between atoms: C_8  and  C_9
REMARK    4  A    between atoms: C_9  and  C_10
REMARK    5  A    between atoms: C_18  and  N_19
REMARK                            x       y       z     vdW  Elec       q    Type
REMARK                         _______ _______ _______ _____ _____    ______ ____
ROOT
ATOM      1  C   UNL     1       2.041   0.768  -0.013  0.00  0.00    +0.138 A 
ATOM      2  N   UNL     1       1.192   1.764   0.000  0.00  0.00    -0.134 NA
ATOM      3  N   UNL     1      -0.016   1.318   0.009  0.00  0.00    -0.128 NA
ATOM      4  C   UNL     1       0.002  -0.004   0.002  0.00  0.00    +0.182 A 
ATOM      5  N   UNL     1       1.320  -0.385  -0.013  0.00  0.00    -0.284 N 
ATOM      6  C   UNL     1       1.659  -1.708  -0.024  0.00  0.00    +0.109 A 
ATOM      7  C   UNL     1       0.705  -2.663  -0.020  0.00  0.00    +0.036 A 
ATOM      8  C   UNL     1      -0.655  -2.310  -0.006  0.00  0.00    +0.043 A 
ATOM      9  C   UNL     1      -1.011  -0.990   0.006  0.00  0.00    +0.071 A 
ATOM     10 BR   UNL     1       1.201  -4.488  -0.036  0.00  0.00    -0.049 Br
ENDROOT
BRANCH   9  11
ATOM     11  N   UNL     1      -2.357  -0.621   0.021  0.00  0.00    -0.355 N 
ATOM     12  H   UNL     1      -3.139  -1.395   0.025  0.00  0.00    +0.142 HD
ATOM     13  H   UNL     1      -2.636   0.443   0.030  0.00  0.00    +0.142 HD
ENDBRANCH   9  11
BRANCH   1  14
ATOM     14  C   UNL     1       3.544   0.879  -0.027  0.00  0.00    +0.081 C 
BRANCH  14  15
ATOM     15  C   UNL     1       4.039   0.925  -1.474  0.00  0.00    +0.043 C 
BRANCH  15  20
ATOM     16  C   UNL     1       9.801   1.351  -1.528  0.00  0.00    +0.044 C 
ATOM     17  C   UNL     1       8.299   1.240  -1.514  0.00  0.00    -0.050 A 
ATOM     18  C   UNL     1       7.697  -0.005  -1.514  0.00  0.00    +0.003 A 
ATOM     19  C   UNL     1       6.319  -0.107  -1.501  0.00  0.00    +0.004 A 
ATOM     20  C   UNL     1       5.542   1.036  -1.488  0.00  0.00    -0.047 A 
ATOM     21  C   UNL     1       6.142   2.281  -1.493  0.00  0.00    +0.004 A 
ATOM     22  C   UNL     1       7.521   2.383  -1.501  0.00  0.00    +0.003 A 
ENDBRANCH  15  20
ENDBRANCH  14  15
ENDBRANCH   1  14
TORSDOF 4
