REMARK  Name = ZINC20294142
REMARK  3 active torsions:
REMARK  status: ('A' for Active; 'I' for Inactive)
REMARK    1  A    between atoms: C_3  and  N_9
REMARK    2  A    between atoms: C_4  and  N_8
REMARK    3  A    between atoms: C_13  and  C_15
REMARK                            x       y       z     vdW  Elec       q    Type
REMARK                         _______ _______ _______ _____ _____    ______ ____
ROOT
ATOM      1  C   UNL     1      -1.647  -1.994  -3.328  0.00  0.00    +0.022 A 
ATOM      2  C   UNL     1      -1.064  -1.550  -2.155  0.00  0.00    +0.026 A 
ATOM      3  C   UNL     1      -1.725  -0.627  -1.359  0.00  0.00    +0.051 A 
ATOM      4  C   UNL     1      -2.973  -0.141  -1.749  0.00  0.00    +0.047 A 
ATOM      5  C   UNL     1      -3.548  -0.587  -2.928  0.00  0.00    +0.044 A 
ATOM      6  C   UNL     1      -2.885  -1.513  -3.715  0.00  0.00    +0.043 A 
ATOM      7 CL   UNL     1      -3.607  -2.070  -5.192  0.00  0.00    -0.083 Cl
ENDROOT
BRANCH   3   8
ATOM      8  N   UNL     1      -1.138  -0.179  -0.168  0.00  0.00    -0.317 N 
ATOM      9  C   UNL     1      -0.764  -1.322   0.704  0.00  0.00    +0.106 C 
ATOM     10  C   UNL     1       0.295  -0.710   1.655  0.00  0.00    +0.021 C 
ATOM     11  C   UNL     1       1.076   0.251   0.731  0.00  0.00    +0.033 C 
ATOM     12  C   UNL     1       0.120   0.550  -0.439  0.00  0.00    +0.159 C 
BRANCH  12  13
ATOM     13  C   UNL     1      -0.150   2.030  -0.516  0.00  0.00    +0.231 C 
ATOM     14  O   UNL     1      -1.281   2.448  -0.384  0.00  0.00    -0.274 OA
ATOM     15  N   UNL     1       0.864   2.890  -0.737  0.00  0.00    -0.328 N 
ATOM     16  H   UNL     1       0.666   3.971  -0.793  0.00  0.00    +0.145 HD
ATOM     17  H   UNL     1       1.889   2.511  -0.861  0.00  0.00    +0.145 HD
ENDBRANCH  12  13
ENDBRANCH   3   8
BRANCH   4  18
ATOM     18  N   UNL     1      -3.642   0.795  -0.951  0.00  0.00    -0.357 N 
ATOM     19  H   UNL     1      -4.626   1.177  -1.260  0.00  0.00    +0.142 HD
ATOM     20  H   UNL     1      -3.184   1.148  -0.016  0.00  0.00    +0.142 HD
ENDBRANCH   4  18
TORSDOF 3
