REMARK  Name = ZINC45068887
REMARK  4 active torsions:
REMARK  status: ('A' for Active; 'I' for Inactive)
REMARK    1  A    between atoms: C_3  and  N_22
REMARK    2  A    between atoms: C_4  and  S_8
REMARK    3  A    between atoms: S_8  and  N_11
REMARK    4  A    between atoms: C_15  and  C_17
REMARK                            x       y       z     vdW  Elec       q    Type
REMARK                         _______ _______ _______ _____ _____    ______ ____
ROOT
ATOM      1  S   UNL     1       3.980  -1.026  -0.182  0.00  0.00    +0.063 S 
ATOM      2  O   UNL     1       4.321  -0.172   0.902  0.00  0.00    -0.153 OA
ATOM      3  O   UNL     1       4.257  -2.420  -0.170  0.00  0.00    -0.153 OA
ENDROOT
BRANCH   1   7
ATOM      4  C   UNL     1      -0.488  -0.600  -0.812  0.00  0.00    +0.017 A 
ATOM      5  C   UNL     1       0.299   0.529  -0.697  0.00  0.00    +0.026 A 
ATOM      6  C   UNL     1       1.669   0.402  -0.503  0.00  0.00    +0.051 A 
ATOM      7  C   UNL     1       2.243  -0.861  -0.426  0.00  0.00    +0.127 A 
ATOM      8  C   UNL     1       1.451  -1.986  -0.542  0.00  0.00    +0.045 A 
ATOM      9  C   UNL     1       0.087  -1.856  -0.735  0.00  0.00    +0.020 A 
ATOM     10 BR   UNL     1      -0.995  -3.400  -0.893  0.00  0.00    -0.050 Br
BRANCH   6  11
ATOM     11  N   UNL     1       2.468   1.542  -0.387  0.00  0.00    -0.356 N 
ATOM     12  H   UNL     1       2.079   2.422  -0.512  0.00  0.00    +0.142 HD
ATOM     13  H   UNL     1       3.412   1.454  -0.181  0.00  0.00    +0.142 HD
ENDBRANCH   6  11
ENDBRANCH   1   7
BRANCH   1  14
ATOM     14  N   UNL     1       4.725  -0.407  -1.525  0.00  0.00    -0.173 NA
ATOM     15  C   UNL     1       4.558  -0.900  -2.904  0.00  0.00    +0.110 C 
ATOM     16  C   UNL     1       4.912   0.311  -3.804  0.00  0.00    +0.019 C 
ATOM     17  C   UNL     1       6.074   0.961  -3.008  0.00  0.00    +0.022 C 
ATOM     18  C   UNL     1       5.657   0.730  -1.540  0.00  0.00    +0.083 C 
BRANCH  18  19
ATOM     19  C   UNL     1       6.891   0.402  -0.697  0.00  0.00    +0.008 C 
ATOM     20  C   UNL     1       6.529   0.430   0.802  0.00  0.00    +0.005 C 
ATOM     21  C   UNL     1       7.781   1.037   1.484  0.00  0.00    +0.000 C 
ATOM     22  C   UNL     1       8.232   2.118   0.470  0.00  0.00    +0.000 C 
ATOM     23  C   UNL     1       7.974   1.475  -0.908  0.00  0.00    +0.005 C 
ENDBRANCH  18  19
ENDBRANCH   1  14
TORSDOF 4
