REMARK  Name = ZINC06498873
REMARK  6 active torsions:
REMARK  status: ('A' for Active; 'I' for Inactive)
REMARK    1  A    between atoms: C_1  and  C_2
REMARK    2  A    between atoms: C_2  and  C_3
REMARK    3  A    between atoms: C_2  and  C_4
REMARK    4  A    between atoms: C_11  and  N_23
REMARK    5  A    between atoms: C_12  and  C_21
REMARK    6  A    between atoms: C_13  and  C_15
REMARK                            x       y       z     vdW  Elec       q    Type
REMARK                         _______ _______ _______ _____ _____    ______ ____
ROOT
ATOM      1  C   UNL     1      -1.412  -0.526   0.013  0.00  0.00    +0.073 A 
ATOM      2  C   UNL     1      -1.990  -1.334  -0.957  0.00  0.00    +0.050 A 
ATOM      3  C   UNL     1      -3.280  -1.587  -0.583  0.00  0.00    +0.222 A 
ATOM      4  N   UNL     1      -3.496  -0.956   0.582  0.00  0.00    -0.246 N 
ATOM      5  H   UNL     1      -4.324  -0.958   1.087  0.00  0.00    +0.192 HD
ATOM      6  N   UNL     1      -2.309  -0.299   0.943  0.00  0.00    -0.175 NA
ATOM      7  O   UNL     1      -4.121  -2.350  -1.325  0.00  0.00    -0.423 OA
ATOM      8  C   UNL     1      -3.750  -2.641  -2.588  0.00  0.00    +0.200 C 
ATOM      9  C   UNL     1      -2.502  -2.448  -3.069  0.00  0.00    +0.098 C 
ATOM     10  C   UNL     1      -1.387  -1.885  -2.223  0.00  0.00    +0.103 C 
ENDROOT
BRANCH  10  11
ATOM     11  C   UNL     1      -0.403  -2.976  -1.885  0.00  0.00    -0.016 A 
ATOM     12  C   UNL     1       0.930  -2.857  -2.249  0.00  0.00    +0.007 A 
ATOM     13  C   UNL     1       1.799  -3.885  -1.917  0.00  0.00    +0.020 A 
ATOM     14  C   UNL     1       1.311  -4.987  -1.240  0.00  0.00    +0.111 A 
ATOM     15  N   UNL     1       0.037  -5.066  -0.911  0.00  0.00    -0.263 NA
ATOM     16  C   UNL     1      -0.817  -4.105  -1.204  0.00  0.00    +0.115 A 
ENDBRANCH  10  11
BRANCH   1  18
ATOM     17  C   UNL     1      -0.019   1.526   0.010  0.00  0.00    +0.014 C 
ATOM     18  C   UNL     1       0.002  -0.004   0.002  0.00  0.00    +0.034 C 
ATOM     19  C   UNL     1       0.742  -0.511   1.242  0.00  0.00    +0.014 C 
ENDBRANCH   1  18
BRANCH   8  20
ATOM     20  N   UNL     1      -4.695  -3.164  -3.435  0.00  0.00    -0.328 N 
ATOM     21  H   UNL     1      -5.600  -3.314  -3.119  0.00  0.00    +0.145 HD
ATOM     22  H   UNL     1      -4.459  -3.383  -4.350  0.00  0.00    +0.145 HD
ENDBRANCH   8  20
BRANCH   9  23
ATOM     23  C   UNL     1      -2.228  -2.791  -4.432  0.00  0.00    +0.101 C 
ATOM     24  N   UNL     1      -2.010  -3.063  -5.513  0.00  0.00    -0.191 NA
ENDBRANCH   9  23
TORSDOF 4
