REMARK  Name = ZINC05343188
REMARK  8 active torsions:
REMARK  status: ('A' for Active; 'I' for Inactive)
REMARK    1  A    between atoms: C_1  and  C_2
REMARK    2  A    between atoms: C_5  and  C_8
REMARK    3  A    between atoms: C_11  and  C_22
REMARK    4  A    between atoms: N_18  and  C_19
REMARK    5  A    between atoms: C_19  and  C_20
REMARK    6  A    between atoms: C_20  and  O_21
REMARK    7  A    between atoms: C_25  and  C_29
REMARK    8  A    between atoms: C_27  and  O_28
REMARK                            x       y       z     vdW  Elec       q    Type
REMARK                         _______ _______ _______ _____ _____    ______ ____
ROOT
ATOM      1  C   UNL     1       0.059  -4.275  -0.021  0.00  0.00    +0.141 C 
ATOM      2  C   UNL     1       1.455  -4.775   0.233  0.00  0.00    +0.035 A 
ATOM      3  C   UNL     1       2.751  -4.818  -0.172  0.00  0.00    +0.075 A 
ATOM      4  N   UNL     1       3.422  -5.579   0.741  0.00  0.00    -0.276 N 
ATOM      5  H   UNL     1       4.370  -5.782   0.708  0.00  0.00    +0.189 HD
ATOM      6  N   UNL     1       2.612  -5.986   1.653  0.00  0.00    -0.168 NA
ATOM      7  C   UNL     1       1.393  -5.541   1.419  0.00  0.00    +0.153 A 
ATOM      8  C   UNL     1      -0.001  -5.523   1.897  0.00  0.00    +0.268 C 
ATOM      9  O   UNL     1      -0.398  -6.087   2.898  0.00  0.00    -0.268 OA
ATOM     10  N   UNL     1      -0.772  -4.796   1.070  0.00  0.00    -0.283 N 
ENDROOT
BRANCH   3  11
ATOM     11  C   UNL     1       3.324  -4.166  -1.371  0.00  0.00    +0.043 A 
ATOM     12  C   UNL     1       3.835  -4.940  -2.412  0.00  0.00    +0.034 A 
ATOM     13  C   UNL     1       4.368  -4.327  -3.528  0.00  0.00    +0.045 A 
ATOM     14  C   UNL     1       4.396  -2.945  -3.618  0.00  0.00    -0.029 A 
ATOM     15  C   UNL     1       3.892  -2.169  -2.591  0.00  0.00    +0.050 A 
ATOM     16  C   UNL     1       3.349  -2.770  -1.468  0.00  0.00    +0.126 A 
ATOM     17  C   UNL     1       4.981  -2.284  -4.840  0.00  0.00    +0.045 C 
ATOM     18 CL   UNL     1       5.005  -5.290  -4.824  0.00  0.00    -0.083 Cl
BRANCH  16  19
ATOM     19  O   UNL     1       2.848  -2.008  -0.461  0.00  0.00    -0.506 OA
ATOM     20  H   UNL     1       3.497  -1.775   0.217  0.00  0.00    +0.292 HD
ENDBRANCH  16  19
ENDBRANCH   3  11
BRANCH   1  25
ATOM     21  C   UNL     1      -0.018   1.503   0.010  0.00  0.00    +0.044 C 
ATOM     22  C   UNL     1       0.002  -0.004   0.002  0.00  0.00    -0.050 A 
ATOM     23  C   UNL     1       0.006  -0.689  -1.199  0.00  0.00    +0.004 A 
ATOM     24  C   UNL     1       0.025  -2.071  -1.206  0.00  0.00    +0.006 A 
ATOM     25  C   UNL     1       0.040  -2.768  -0.013  0.00  0.00    -0.022 A 
ATOM     26  C   UNL     1       0.037  -2.084   1.188  0.00  0.00    +0.006 A 
ATOM     27  C   UNL     1       0.023  -0.702   1.195  0.00  0.00    +0.004 A 
ENDBRANCH   1  25
BRANCH  10  28
ATOM     28  C   UNL     1      -2.209  -4.560   1.231  0.00  0.00    +0.137 C 
BRANCH  28  29
ATOM     29  C   UNL     1      -2.991  -5.660   0.509  0.00  0.00    +0.175 C 
BRANCH  29  30
ATOM     30  O   UNL     1      -2.740  -6.916   1.142  0.00  0.00    -0.393 OA
ATOM     31  H   UNL     1      -3.205  -7.661   0.736  0.00  0.00    +0.209 HD
ENDBRANCH  29  30
ENDBRANCH  28  29
ENDBRANCH  10  28
TORSDOF 6
