REMARK  Name = ZINC43489919
REMARK  7 active torsions:
REMARK  status: ('A' for Active; 'I' for Inactive)
REMARK    1  A    between atoms: C_1  and  C_2
REMARK    2  A    between atoms: C_2  and  C_4
REMARK    3  A    between atoms: C_2  and  O_11
REMARK    4  A    between atoms: N_9  and  C_10
REMARK    5  A    between atoms: O_11  and  C_12
REMARK    6  A    between atoms: C_15  and  C_19
REMARK    7  A    between atoms: C_19  and  O_20
REMARK                            x       y       z     vdW  Elec       q    Type
REMARK                         _______ _______ _______ _____ _____    ______ ____
ROOT
ATOM      1  C   UNL     1       0.005   1.494   0.268  0.00  0.00    +0.062 C 
ATOM      2  C   UNL     1       0.005  -0.013   0.001  0.00  0.00    +0.256 C 
ENDROOT
BRANCH   2   3
ATOM      3  C   UNL     1       0.627  -0.284  -1.345  0.00  0.00    +0.261 C 
ATOM      4  O   UNL     1      -0.044  -0.756  -2.238  0.00  0.00    -0.271 OA
ATOM      5  N   UNL     1       1.928  -0.002  -1.556  0.00  0.00    -0.237 N 
ATOM      6  C   UNL     1       2.483  -0.245  -2.759  0.00  0.00    +0.306 C 
ATOM      7  O   UNL     1       1.811  -0.719  -3.654  0.00  0.00    -0.252 OA
ATOM      8  N   UNL     1       3.784   0.037  -2.970  0.00  0.00    -0.302 N 
ATOM      9  C   UNL     1       4.388  -0.228  -4.278  0.00  0.00    +0.129 C 
ATOM     10  H   UNL     1       2.464   0.375  -0.841  0.00  0.00    +0.159 HD
ATOM     11  H   UNL     1       4.321   0.414  -2.255  0.00  0.00    +0.150 HD
ENDBRANCH   2   3
BRANCH   2  12
ATOM     12  O   UNL     1      -1.339  -0.499   0.012  0.00  0.00    -0.478 OA
BRANCH  12  13
ATOM     13  C   UNL     1      -1.869  -0.818   1.222  0.00  0.00    +0.140 A 
ATOM     14  C   UNL     1      -1.155  -0.562   2.383  0.00  0.00    +0.047 A 
ATOM     15  C   UNL     1      -1.697  -0.886   3.612  0.00  0.00    +0.009 A 
ATOM     16  C   UNL     1      -2.950  -1.467   3.685  0.00  0.00    -0.021 A 
ATOM     17  C   UNL     1      -3.664  -1.724   2.530  0.00  0.00    +0.029 A 
ATOM     18  C   UNL     1      -3.129  -1.395   1.298  0.00  0.00    +0.083 A 
ATOM     19 CL   UNL     1      -4.029  -1.712  -0.152  0.00  0.00    -0.080 Cl
BRANCH  16  20
ATOM     20  C   UNL     1      -3.538  -1.820   5.027  0.00  0.00    +0.191 C 
BRANCH  20  21
ATOM     21  O   UNL     1      -4.286  -0.710   5.527  0.00  0.00    -0.390 OA
ATOM     22  H   UNL     1      -4.694  -0.867   6.390  0.00  0.00    +0.210 HD
ENDBRANCH  20  21
ENDBRANCH  16  20
ENDBRANCH  12  13
ENDBRANCH   2  12
TORSDOF 5
