REMARK  Name = ZINC48867363
REMARK  5 active torsions:
REMARK  status: ('A' for Active; 'I' for Inactive)
REMARK    1  A    between atoms: C_5  and  C_7
REMARK    2  A    between atoms: C_7  and  N_8
REMARK    3  A    between atoms: C_9  and  C_13
REMARK    4  A    between atoms: C_15  and  N_20
REMARK    5  A    between atoms: C_17  and  N_19
REMARK                            x       y       z     vdW  Elec       q    Type
REMARK                         _______ _______ _______ _____ _____    ______ ____
ROOT
ATOM      1  N   UNL     1       1.369  -2.435   1.430  0.00  0.00    -0.221 N 
ATOM      2  C   UNL     1       2.524  -2.698   2.089  0.00  0.00    +0.182 A 
ATOM      3  N   UNL     1       2.194  -3.179   3.269  0.00  0.00    -0.108 NA
ATOM      4  N   UNL     1       0.917  -3.234   3.391  0.00  0.00    -0.023 NA
ATOM      5  N   UNL     1       0.345  -2.796   2.323  0.00  0.00    -0.043 NA
ENDROOT
BRANCH   2   6
ATOM      6  C   UNL     1       3.897  -2.485   1.578  0.00  0.00    +0.024 A 
ATOM      7  C   UNL     1       4.115  -2.310   0.212  0.00  0.00    +0.034 A 
ATOM      8  C   UNL     1       5.403  -2.111  -0.264  0.00  0.00    +0.027 A 
ATOM      9  C   UNL     1       6.474  -2.085   0.619  0.00  0.00    +0.045 A 
ATOM     10  C   UNL     1       6.261  -2.259   1.980  0.00  0.00    +0.027 A 
ATOM     11  C   UNL     1       4.974  -2.453   2.462  0.00  0.00    +0.034 A 
BRANCH  10  12
ATOM     12  N   UNL     1       7.341  -2.233   2.865  0.00  0.00    -0.358 N 
ATOM     13  H   UNL     1       8.240  -2.094   2.529  0.00  0.00    +0.142 HD
ATOM     14  H   UNL     1       7.193  -2.355   3.816  0.00  0.00    +0.142 HD
ENDBRANCH  10  12
BRANCH   8  15
ATOM     15  N   UNL     1       5.621  -1.936  -1.632  0.00  0.00    -0.358 N 
ATOM     16  H   UNL     1       4.873  -1.954  -2.249  0.00  0.00    +0.142 HD
ATOM     17  H   UNL     1       6.522  -1.796  -1.965  0.00  0.00    +0.142 HD
ENDBRANCH   8  15
ENDBRANCH   2   6
BRANCH   1  18
ATOM     18  C   UNL     1       1.220  -1.887   0.079  0.00  0.00    +0.183 C 
BRANCH  18  23
ATOM     19  C   UNL     1      -2.334  -2.205  -1.155  0.00  0.00    +0.000 A 
ATOM     20  C   UNL     1      -2.900  -1.042  -0.669  0.00  0.00    +0.001 A 
ATOM     21  C   UNL     1      -2.134  -0.151   0.059  0.00  0.00    +0.015 A 
ATOM     22  C   UNL     1      -0.800  -0.425   0.302  0.00  0.00    +0.023 A 
ATOM     23  C   UNL     1      -0.234  -1.589  -0.184  0.00  0.00    -0.012 A 
ATOM     24  C   UNL     1      -1.001  -2.479  -0.913  0.00  0.00    +0.006 A 
ATOM     25 BR   UNL     1       0.249   0.793   1.298  0.00  0.00    -0.050 Br
ENDBRANCH  18  23
ENDBRANCH   1  18
TORSDOF 5
