REMARK  Name = ZINC37972359
REMARK  3 active torsions:
REMARK  status: ('A' for Active; 'I' for Inactive)
REMARK    1  A    between atoms: C_5  and  N_8
REMARK    2  A    between atoms: N_8  and  C_9
REMARK    3  A    between atoms: C_9  and  C_14
REMARK                            x       y       z     vdW  Elec       q    Type
REMARK                         _______ _______ _______ _____ _____    ______ ____
ROOT
ATOM      1  N   UNL     1       2.589  -1.691   1.826  0.00  0.00    +0.392 N 
ATOM      2  H   UNL     1       3.552  -1.750   2.121  0.00  0.00    -0.084 HD
ATOM      3  H   UNL     1       1.996  -1.583   2.635  0.00  0.00    -0.084 HD
ENDROOT
BRANCH   1   8
ATOM      4  C   UNL     1       1.032   1.730  -0.724  0.00  0.00    -0.000 C 
ATOM      5  C   UNL     1       2.559   1.911  -0.603  0.00  0.00    -0.000 C 
ATOM      6  C   UNL     1       2.917   1.983   0.857  0.00  0.00    -0.002 C 
ATOM      7  C   UNL     1       3.322   0.612   1.433  0.00  0.00    -0.016 C 
ATOM      8  C   UNL     1       2.420  -0.534   0.937  0.00  0.00    -0.070 C 
ATOM      9  C   UNL     1       0.965  -0.151   0.909  0.00  0.00    -0.016 C 
ATOM     10  C   UNL     1       0.618   0.352  -0.508  0.00  0.00    -0.002 C 
ENDBRANCH   1   8
BRANCH   1  11
ATOM     11  C   UNL     1       2.221  -2.918   1.108  0.00  0.00    +0.046 C 
ATOM     12  C   UNL     1       2.895  -2.904  -0.256  0.00  0.00    +0.010 C 
ATOM     13  C   UNL     1       1.908  -2.982  -1.442  0.00  0.00    +0.068 C 
ATOM     14  S   UNL     1       0.353  -2.370  -0.658  0.00  0.00    -0.162 S 
ATOM     15  C   UNL     1       0.679  -3.008   1.043  0.00  0.00    +0.068 C 
BRANCH  11  16
ATOM     16  C   UNL     1       2.739  -4.102   1.885  0.00  0.00    +0.346 C 
ATOM     17  O   UNL     1       3.437  -3.927   2.869  0.00  0.00    -0.248 OA
ATOM     18  O   UNL     1       2.459  -5.234   1.529  0.00  0.00    -0.248 OA
ENDBRANCH  11  16
ENDBRANCH   1  11
TORSDOF 3
