REMARK  Name = ZINC35782935
REMARK  6 active torsions:
REMARK  status: ('A' for Active; 'I' for Inactive)
REMARK    1  A    between atoms: C_1  and  C_2
REMARK    2  A    between atoms: C_6  and  N_21
REMARK    3  A    between atoms: C_7  and  S_8
REMARK    4  A    between atoms: S_8  and  N_11
REMARK    5  A    between atoms: C_13  and  C_20
REMARK    6  A    between atoms: C_17  and  C_19
REMARK                            x       y       z     vdW  Elec       q    Type
REMARK                         _______ _______ _______ _____ _____    ______ ____
ROOT
ATOM      1  S   UNL     1      -0.086   0.138   2.821  0.00  0.00    +0.063 S 
ATOM      2  O   UNL     1       0.698  -0.458   3.845  0.00  0.00    -0.153 OA
ATOM      3  O   UNL     1       0.162   1.451   2.338  0.00  0.00    -0.153 OA
ENDROOT
BRANCH   1   4
ATOM      4  N   UNL     1      -1.654   0.117   3.352  0.00  0.00    -0.169 NA
ATOM      5  C   UNL     1      -2.539   1.275   3.148  0.00  0.00    +0.141 C 
ATOM      6  C   UNL     1      -3.188   1.629   4.491  0.00  0.00    +0.131 C 
ATOM      7  O   UNL     1      -3.794   0.459   5.044  0.00  0.00    -0.374 OA
ATOM      8  C   UNL     1      -2.871  -0.593   5.341  0.00  0.00    +0.180 C 
ATOM      9  C   UNL     1      -2.207  -1.063   4.037  0.00  0.00    +0.102 C 
ATOM     10  C   UNL     1      -1.080  -2.047   4.357  0.00  0.00    +0.028 C 
ATOM     11  C   UNL     1      -4.256   2.704   4.274  0.00  0.00    +0.039 C 
ENDBRANCH   1   4
BRANCH   1  18
ATOM     12  C   UNL     1       1.562  -2.396   2.733  0.00  0.00    +0.046 C 
ATOM     13  C   UNL     1       0.787  -2.074   1.481  0.00  0.00    -0.022 A 
ATOM     14  C   UNL     1       0.855  -2.921   0.390  0.00  0.00    +0.005 A 
ATOM     15  C   UNL     1       0.147  -2.628  -0.761  0.00  0.00    +0.002 A 
ATOM     16  C   UNL     1      -0.632  -1.490  -0.824  0.00  0.00    +0.025 A 
ATOM     17  C   UNL     1      -0.704  -0.637   0.270  0.00  0.00    +0.051 A 
ATOM     18  C   UNL     1       0.006  -0.937   1.427  0.00  0.00    +0.129 A 
BRANCH  17  19
ATOM     19  N   UNL     1      -1.490   0.515   0.210  0.00  0.00    -0.356 N 
ATOM     20  H   UNL     1      -2.047   0.682  -0.567  0.00  0.00    +0.142 HD
ATOM     21  H   UNL     1      -1.480   1.148   0.945  0.00  0.00    +0.142 HD
ENDBRANCH  17  19
ENDBRANCH   1  18
TORSDOF 3
