REMARK  Name = ZINC43572635
REMARK  10 active torsions:
REMARK  status: ('A' for Active; 'I' for Inactive)
REMARK    1  A    between atoms: C_1  and  O_2
REMARK    2  A    between atoms: O_2  and  C_3
REMARK    3  A    between atoms: C_8  and  C_9
REMARK    4  A    between atoms: C_9  and  C_11
REMARK    5  A    between atoms: C_9  and  N_26
REMARK    6  A    between atoms: C_11  and  N_12
REMARK    7  A    between atoms: N_15  and  C_16
REMARK    8  A    between atoms: C_19  and  O_22
REMARK    9  A    between atoms: O_22  and  C_23
REMARK   10  A    between atoms: C_23  and  C_24
REMARK                            x       y       z     vdW  Elec       q    Type
REMARK                         _______ _______ _______ _____ _____    ______ ____
ROOT
ATOM      1  C   UNL     1       0.536  -2.908   1.623  0.00  0.00    +0.095 C 
ENDROOT
BRANCH   1   2
ATOM      2  N   UNL     1      -0.475  -3.445   2.537  0.00  0.00    -0.300 N 
ATOM      3  C   UNL     1      -0.245  -3.456   3.865  0.00  0.00    +0.304 C 
ATOM      4  O   UNL     1       0.802  -3.021   4.304  0.00  0.00    -0.253 OA
ATOM      5  N   UNL     1      -1.176  -3.950   4.706  0.00  0.00    -0.269 N 
ATOM      6  H   UNL     1      -1.310  -3.792   2.186  0.00  0.00    +0.150 HD
ATOM      7  H   UNL     1      -2.038  -4.233   4.363  0.00  0.00    +0.156 HD
BRANCH   5   8
ATOM      8  C   UNL     1      -0.898  -4.054   6.075  0.00  0.00    +0.035 A 
ATOM      9  C   UNL     1      -1.401  -5.122   6.807  0.00  0.00    +0.027 A 
ATOM     10  C   UNL     1      -1.126  -5.225   8.156  0.00  0.00    +0.047 A 
ATOM     11  C   UNL     1      -0.347  -4.262   8.781  0.00  0.00    +0.122 A 
ATOM     12  C   UNL     1       0.156  -3.195   8.051  0.00  0.00    +0.047 A 
ATOM     13  C   UNL     1      -0.114  -3.094   6.700  0.00  0.00    +0.027 A 
BRANCH  11  14
ATOM     14  O   UNL     1      -0.077  -4.363  10.110  0.00  0.00    -0.477 OA
BRANCH  14  15
ATOM     15  C   UNL     1       0.731  -3.337  10.688  0.00  0.00    +0.346 C 
BRANCH  15  16
ATOM     16  C   UNL     1       0.918  -3.609  12.122  0.00  0.00    +0.104 C 
ATOM     17  N   UNL     1       1.063  -3.819  13.229  0.00  0.00    -0.193 NA
ENDBRANCH  15  16
ENDBRANCH  14  15
ENDBRANCH  11  14
ENDBRANCH   5   8
ENDBRANCH   1   2
BRANCH   1  18
ATOM     18  C   UNL     1      -0.019  -2.897   0.198  0.00  0.00    -0.017 C 
BRANCH  18  24
ATOM     19  C   UNL     1      -0.953  -0.589  -0.101  0.00  0.00    +0.122 A 
ATOM     20  C   UNL     1      -2.025   0.289  -0.178  0.00  0.00    +0.046 A 
ATOM     21  C   UNL     1      -3.315  -0.183  -0.030  0.00  0.00    +0.004 A 
ATOM     22  C   UNL     1      -3.538  -1.529   0.194  0.00  0.00    +0.000 A 
ATOM     23  C   UNL     1      -2.472  -2.406   0.272  0.00  0.00    +0.005 A 
ATOM     24  C   UNL     1      -1.181  -1.940   0.119  0.00  0.00    -0.018 A 
BRANCH  19  26
ATOM     25  C   UNL     1       0.475   1.275  -0.470  0.00  0.00    +0.277 C 
ATOM     26  O   UNL     1       0.317  -0.127  -0.246  0.00  0.00    -0.495 OA
ENDBRANCH  19  26
ENDBRANCH  18  24
BRANCH  18  27
ATOM     27  N   UNL     1      -0.472  -4.247  -0.163  0.00  0.00    +0.385 N 
ATOM     28  C   UNL     1      -0.845  -4.296  -1.600  0.00  0.00    -0.078 C 
ATOM     29  C   UNL     1      -0.741  -5.803  -1.942  0.00  0.00    -0.020 C 
ATOM     30  C   UNL     1       0.488  -6.260  -1.122  0.00  0.00    -0.020 C 
ATOM     31  C   UNL     1       0.633  -5.216   0.001  0.00  0.00    -0.078 C 
ATOM     32  H   UNL     1      -1.258  -4.515   0.411  0.00  0.00    -0.081 HD
ENDBRANCH  18  27
ENDBRANCH   1  18
TORSDOF 9
