REMARK  Name = ZINC40724056
REMARK  6 active torsions:
REMARK  status: ('A' for Active; 'I' for Inactive)
REMARK    1  A    between atoms: C_1  and  C_2
REMARK    2  A    between atoms: C_4  and  O_10
REMARK    3  A    between atoms: C_6  and  C_9
REMARK    4  A    between atoms: O_10  and  C_11
REMARK    5  A    between atoms: C_12  and  N_18
REMARK    6  A    between atoms: C_13  and  N_17
REMARK                            x       y       z     vdW  Elec       q    Type
REMARK                         _______ _______ _______ _____ _____    ______ ____
ROOT
ATOM      1  C   UNL     1       1.107  -2.611  -3.195  0.00  0.00    +0.246 A 
ATOM      2  C   UNL     1       1.119  -3.190  -4.463  0.00  0.00    +0.127 A 
ATOM      3  C   UNL     1       2.256  -3.017  -5.257  0.00  0.00    +0.144 A 
ATOM      4  N   UNL     1       3.276  -2.312  -4.776  0.00  0.00    -0.219 NA
ATOM      5  C   UNL     1       3.223  -1.781  -3.570  0.00  0.00    +0.227 A 
ATOM      6  N   UNL     1       2.168  -1.917  -2.793  0.00  0.00    -0.199 NA
ENDROOT
BRANCH   3   7
ATOM      7  N   UNL     1       2.320  -3.573  -6.529  0.00  0.00    -0.341 N 
ATOM      8  H   UNL     1       1.572  -4.086  -6.872  0.00  0.00    +0.144 HD
ATOM      9  H   UNL     1       3.113  -3.448  -7.073  0.00  0.00    +0.144 HD
ENDBRANCH   3   7
BRANCH   2  10
ATOM     10  N   UNL     1       0.019  -3.927  -4.930  0.00  0.00    -0.351 N 
ATOM     11  H   UNL     1      -0.763  -4.039  -4.368  0.00  0.00    +0.143 HD
ATOM     12  H   UNL     1       0.042  -4.324  -5.815  0.00  0.00    +0.143 HD
ENDBRANCH   2  10
BRANCH   1  13
ATOM     13  O   UNL     1       0.028  -2.749  -2.385  0.00  0.00    -0.436 OA
BRANCH  13  17
ATOM     14  C   UNL     1      -0.518   1.448   0.045  0.00  0.00    +0.045 C 
ATOM     15  C   UNL     1      -0.236  -0.032   0.020  0.00  0.00    -0.028 A 
ATOM     16  C   UNL     1      -0.234  -0.714  -1.182  0.00  0.00    +0.051 A 
ATOM     17  C   UNL     1       0.025  -2.077  -1.204  0.00  0.00    +0.131 A 
ATOM     18  C   UNL     1       0.282  -2.752  -0.020  0.00  0.00    +0.051 A 
ATOM     19  C   UNL     1       0.279  -2.066   1.179  0.00  0.00    -0.028 A 
ATOM     20  C   UNL     1       0.026  -0.706   1.199  0.00  0.00    +0.047 A 
ATOM     21 CL   UNL     1       0.030   0.154   2.707  0.00  0.00    -0.083 Cl
ATOM     22  C   UNL     1       0.557  -2.799   2.466  0.00  0.00    +0.045 C 
ENDBRANCH  13  17
ENDBRANCH   1  13
TORSDOF 4
