REMARK  Name = ZINC04292919
REMARK  6 active torsions:
REMARK  status: ('A' for Active; 'I' for Inactive)
REMARK    1  A    between atoms: C_1  and  C_2
REMARK    2  A    between atoms: C_2  and  C_8
REMARK    3  A    between atoms: N_3  and  N_4
REMARK    4  A    between atoms: C_11  and  C_30
REMARK    5  A    between atoms: C_27  and  C_28
REMARK    6  A    between atoms: C_27  and  C_29
REMARK                            x       y       z     vdW  Elec       q    Type
REMARK                         _______ _______ _______ _____ _____    ______ ____
ROOT
ATOM      1  C   UNL     1       1.624   2.905   2.038  0.00  0.00    -0.028 C 
ATOM      2  C   UNL     1       0.644   3.635   1.550  0.00  0.00    -0.021 C 
ATOM      3  C   UNL     1      -0.738   3.111   1.296  0.00  0.00    +0.034 C 
ATOM      4  C   UNL     1      -0.729   1.579   1.267  0.00  0.00    -0.022 C 
ATOM      5  C   UNL     1       0.005   1.077   2.518  0.00  0.00    -0.000 C 
ATOM      6  C   UNL     1       1.485   1.454   2.391  0.00  0.00    +0.040 C 
ATOM      7  C   UNL     1      -0.108  -0.447   2.613  0.00  0.00    +0.005 C 
ATOM      8  C   UNL     1      -1.578  -0.857   2.745  0.00  0.00    +0.008 C 
ATOM      9  C   UNL     1      -2.446   0.395   2.637  0.00  0.00    +0.019 C 
ATOM     10  C   UNL     1      -2.166   1.062   1.285  0.00  0.00    +0.003 C 
ATOM     11  C   UNL     1      -3.162   2.202   1.083  0.00  0.00    +0.009 C 
ATOM     12  C   UNL     1      -4.557   1.607   0.862  0.00  0.00    +0.031 C 
ATOM     13  C   UNL     1      -4.827   0.554   1.915  0.00  0.00    -0.064 C 
ATOM     14  C   UNL     1      -3.911   0.038   2.701  0.00  0.00    -0.066 C 
ATOM     15  C   UNL     1      -4.515  -1.001   3.622  0.00  0.00    +0.032 C 
ATOM     16  C   UNL     1      -6.032  -0.706   3.600  0.00  0.00    +0.015 C 
ATOM     17  C   UNL     1      -6.189  -0.025   2.221  0.00  0.00    -0.013 C 
ATOM     18  C   UNL     1      -7.237   1.088   2.294  0.00  0.00    +0.015 C 
ATOM     19  C   UNL     1      -6.581  -1.054   1.159  0.00  0.00    +0.015 C 
ATOM     20  C   UNL     1      -0.013   1.086   0.008  0.00  0.00    +0.012 C 
ENDROOT
BRANCH   1  22
ATOM     21  C   UNL     1       3.114   5.002   1.908  0.00  0.00    +0.067 C 
ATOM     22  C   UNL     1       2.927   3.546   2.248  0.00  0.00    +0.059 C 
ATOM     23  N   UNL     1       3.920   2.859   2.728  0.00  0.00    -0.184 NA
BRANCH  23  24
ATOM     24  N   UNL     1       5.164   3.471   2.929  0.00  0.00    -0.191 N 
ATOM     25  C   UNL     1       6.193   2.759   3.427  0.00  0.00    +0.317 C 
ATOM     26  O   UNL     1       7.273   3.290   3.602  0.00  0.00    -0.251 OA
ATOM     27  N   UNL     1       6.027   1.456   3.732  0.00  0.00    -0.312 N 
ATOM     28  H   UNL     1       5.284   4.409   2.710  0.00  0.00    +0.179 HD
ATOM     29  H   UNL     1       5.165   1.032   3.593  0.00  0.00    +0.147 HD
ATOM     30  H   UNL     1       6.768   0.943   4.090  0.00  0.00    +0.147 HD
ENDBRANCH  23  24
ENDBRANCH   1  22
TORSDOF 2
