REMARK  Name = ZINC60340294
REMARK  8 active torsions:
REMARK  status: ('A' for Active; 'I' for Inactive)
REMARK    1  A    between atoms: C_1  and  C_2
REMARK    2  A    between atoms: C_2  and  C_3
REMARK    3  A    between atoms: C_3  and  N_4
REMARK    4  A    between atoms: C_14  and  S_15
REMARK    5  A    between atoms: S_15  and  C_16
REMARK    6  A    between atoms: C_16  and  C_17
REMARK    7  A    between atoms: C_17  and  C_18
REMARK    8  A    between atoms: C_18  and  C_19
REMARK                            x       y       z     vdW  Elec       q    Type
REMARK                         _______ _______ _______ _____ _____    ______ ____
ROOT
ATOM      1  N   UNL     1      -1.413  -1.998   0.005  0.00  0.00    -0.287 N 
ATOM      2  C   UNL     1      -1.410  -2.663  -1.174  0.00  0.00    +0.262 A 
ATOM      3  O   UNL     1      -1.423  -2.067  -2.235  0.00  0.00    -0.267 OA
ATOM      4  C   UNL     1      -1.390  -4.131  -1.126  0.00  0.00    +0.066 A 
ATOM      5  C   UNL     1      -1.384  -4.906  -2.286  0.00  0.00    +0.030 A 
ATOM      6  C   UNL     1      -1.365  -6.280  -2.182  0.00  0.00    +0.019 A 
ATOM      7  C   UNL     1      -1.351  -6.894  -0.935  0.00  0.00    +0.017 A 
ATOM      8  C   UNL     1      -1.356  -6.154   0.213  0.00  0.00    +0.029 A 
ATOM      9  C   UNL     1      -1.375  -4.758   0.141  0.00  0.00    +0.079 A 
ATOM     10  N   UNL     1      -1.381  -3.991   1.256  0.00  0.00    -0.223 NA
ATOM     11  C   UNL     1      -1.393  -2.682   1.187  0.00  0.00    +0.172 A 
ATOM     12 BR   UNL     1      -1.358  -7.339  -3.748  0.00  0.00    -0.050 Br
ENDROOT
BRANCH   1  13
ATOM     13  C   UNL     1      -1.433  -0.534   0.013  0.00  0.00    +0.127 C 
BRANCH  13  15
ATOM     14  C   UNL     1      -0.019   1.526   0.010  0.00  0.00    +0.005 C 
ATOM     15  C   UNL     1       0.002  -0.004   0.002  0.00  0.00    +0.018 C 
ENDBRANCH  13  15
ENDBRANCH   1  13
BRANCH  11  16
ATOM     16  S   UNL     1      -1.391  -1.762   2.689  0.00  0.00    -0.088 S 
BRANCH  16  17
ATOM     17  C   UNL     1      -1.361  -3.034   3.983  0.00  0.00    +0.078 C 
BRANCH  17  18
ATOM     18  C   UNL     1      -1.357  -2.363   5.358  0.00  0.00    +0.020 C 
BRANCH  18  19
ATOM     19  C   UNL     1      -1.332  -3.435   6.449  0.00  0.00    +0.097 C 
BRANCH  19  20
ATOM     20  C   UNL     1      -1.328  -2.774   7.803  0.00  0.00    +0.220 C 
ATOM     21  O   UNL     1      -1.343  -1.565   7.887  0.00  0.00    -0.275 OA
ATOM     22  N   UNL     1      -1.307  -3.527   8.920  0.00  0.00    -0.240 N 
ATOM     23  C   UNL     1      -1.303  -2.936  10.132  0.00  0.00    +0.303 C 
ATOM     24  O   UNL     1      -1.318  -1.724  10.216  0.00  0.00    -0.253 OA
ATOM     25  N   UNL     1      -1.282  -3.690  11.249  0.00  0.00    -0.313 N 
ATOM     26  H   UNL     1      -1.295  -4.495   8.853  0.00  0.00    +0.159 HD
ATOM     27  H   UNL     1      -1.270  -4.657  11.181  0.00  0.00    +0.146 HD
ATOM     28  H   UNL     1      -1.279  -3.264  12.121  0.00  0.00    +0.146 HD
ENDBRANCH  19  20
ENDBRANCH  18  19
ENDBRANCH  17  18
ENDBRANCH  16  17
ENDBRANCH  11  16
TORSDOF 7
