REMARK  Name = ZINC08972074
REMARK  4 active torsions:
REMARK  status: ('A' for Active; 'I' for Inactive)
REMARK    1  A    between atoms: C_16  and  C_18
REMARK    2  A    between atoms: C_18  and  C_19
REMARK    3  A    between atoms: N_24  and  C_27
REMARK    4  A    between atoms: C_27  and  C_28
REMARK                            x       y       z     vdW  Elec       q    Type
REMARK                         _______ _______ _______ _____ _____    ______ ____
ROOT
ATOM      1  C   UNL     1       0.541  -2.730  -0.018  0.00  0.00    +0.002 A 
ATOM      2  C   UNL     1       1.581  -1.818  -0.024  0.00  0.00    +0.004 A 
ATOM      3  C   UNL     1       1.314  -0.467  -0.014  0.00  0.00    -0.026 A 
ATOM      4  C   UNL     1       0.002  -0.004   0.002  0.00  0.00    +0.054 A 
ATOM      5  C   UNL     1      -1.040  -0.929   0.008  0.00  0.00    +0.062 A 
ATOM      6  C   UNL     1      -0.767  -2.283  -0.002  0.00  0.00    +0.022 A 
ATOM      7 CL   UNL     1      -2.686  -0.378   0.029  0.00  0.00    -0.082 Cl
ATOM      8  N   UNL     1      -0.017   1.393   0.010  0.00  0.00    -0.285 N 
ATOM      9  C   UNL     1       1.224   1.918   0.001  0.00  0.00    +0.211 C 
ATOM     10  O   UNL     1       1.512   3.096   0.004  0.00  0.00    -0.277 OA
ATOM     11  C   UNL     1       2.183   0.759  -0.016  0.00  0.00    +0.050 C 
ATOM     12  C   UNL     1       3.118   0.788   1.200  0.00  0.00    +0.088 C 
ATOM     13  C   UNL     1       4.475   0.257   0.661  0.00  0.00    +0.073 C 
ATOM     14  C   UNL     1       4.218  -0.052  -0.829  0.00  0.00    -0.049 C 
ATOM     15  C   UNL     1       5.402   1.446   0.773  0.00  0.00    +0.224 C 
ATOM     16  O   UNL     1       6.570   1.457   0.448  0.00  0.00    -0.275 OA
ATOM     17  N   UNL     1       4.732   2.485   1.285  0.00  0.00    -0.239 N 
ATOM     18  C   UNL     1       3.447   2.235   1.561  0.00  0.00    +0.225 C 
ATOM     19  O   UNL     1       2.664   3.033   2.031  0.00  0.00    -0.275 OA
ATOM     20  H   UNL     1      -0.829   1.923   0.017  0.00  0.00    +0.155 HD
ATOM     21  N   UNL     1       3.064   0.783  -1.170  0.00  0.00    +0.394 N 
ATOM     22  H   UNL     1       3.367   1.745  -1.365  0.00  0.00    -0.083 HD
ATOM     23  H   UNL     1       2.582   0.403  -1.993  0.00  0.00    -0.083 HD
ENDROOT
BRANCH  14  24
ATOM     24  C   UNL     1       5.442   0.318  -1.669  0.00  0.00    +0.080 C 
BRANCH  24  25
ATOM     25  C   UNL     1       5.187  -0.036  -3.111  0.00  0.00    +0.209 C 
ATOM     26  O   UNL     1       4.130  -0.534  -3.436  0.00  0.00    -0.276 OA
ATOM     27  N   UNL     1       6.134   0.202  -4.041  0.00  0.00    -0.329 N 
ATOM     28  H   UNL     1       6.979   0.601  -3.781  0.00  0.00    +0.145 HD
ATOM     29  H   UNL     1       5.970  -0.025  -4.969  0.00  0.00    +0.145 HD
ENDBRANCH  24  25
ENDBRANCH  14  24
BRANCH  17  30
ATOM     30  C   UNL     1       5.355   3.789   1.523  0.00  0.00    +0.148 C 
BRANCH  30  31
ATOM     31  C   UNL     1       5.204   4.662   0.275  0.00  0.00    +0.136 C 
ATOM     32  C   UNL     1       5.956   5.995   0.474  0.00  0.00    +0.035 C 
ATOM     33  C   UNL     1       4.995   7.018  -0.190  0.00  0.00    +0.031 C 
ATOM     34  C   UNL     1       3.619   6.391   0.149  0.00  0.00    +0.160 C 
ATOM     35  O   UNL     1       3.822   4.972   0.063  0.00  0.00    -0.375 OA
ENDBRANCH  30  31
ENDBRANCH  17  30
TORSDOF 4
