REMARK  Name = ZINC37558568
REMARK  5 active torsions:
REMARK  status: ('A' for Active; 'I' for Inactive)
REMARK    1  A    between atoms: C_1  and  C_2
REMARK    2  A    between atoms: C_2  and  N_3
REMARK    3  A    between atoms: C_5  and  S_9
REMARK    4  A    between atoms: S_9  and  N_12
REMARK    5  A    between atoms: C_16  and  C_18
REMARK                            x       y       z     vdW  Elec       q    Type
REMARK                         _______ _______ _______ _____ _____    ______ ____
ROOT
ATOM      1  S   UNL     1       1.056  -2.600   4.448  0.00  0.00    +0.066 S 
ATOM      2  O   UNL     1       1.478  -1.830   5.565  0.00  0.00    -0.153 OA
ATOM      3  O   UNL     1      -0.225  -3.212   4.386  0.00  0.00    -0.153 OA
ENDROOT
BRANCH   1   6
ATOM      4  N   UNL     1       0.711  -0.489   1.189  0.00  0.00    -0.268 N 
ATOM      5  C   UNL     1       0.228  -1.360   2.100  0.00  0.00    +0.138 A 
ATOM      6  C   UNL     1       1.183  -1.552   3.037  0.00  0.00    +0.164 A 
ATOM      7  C   UNL     1       2.295  -0.769   2.687  0.00  0.00    +0.165 A 
ATOM      8  N   UNL     1       2.010  -0.135   1.573  0.00  0.00    -0.154 NA
ATOM      9  N   UNL     1       3.497  -0.683   3.398  0.00  0.00    -0.340 N 
ATOM     10  H   UNL     1       3.616  -1.195   4.213  0.00  0.00    +0.144 HD
ATOM     11  H   UNL     1       4.212  -0.112   3.075  0.00  0.00    +0.144 HD
BRANCH   4  13
ATOM     12  C   UNL     1      -0.019   1.526   0.010  0.00  0.00    +0.029 C 
ATOM     13  C   UNL     1       0.002  -0.004   0.002  0.00  0.00    +0.140 C 
ENDBRANCH   4  13
ENDBRANCH   1   6
BRANCH   1  14
ATOM     14  N   UNL     1       2.169  -3.812   4.261  0.00  0.00    -0.165 NA
ATOM     15  C   UNL     1       1.929  -5.103   3.590  0.00  0.00    +0.110 C 
ATOM     16  C   UNL     1       3.331  -5.577   3.131  0.00  0.00    +0.019 C 
ATOM     17  C   UNL     1       4.221  -5.107   4.311  0.00  0.00    +0.031 C 
ATOM     18  C   UNL     1       3.562  -3.776   4.729  0.00  0.00    +0.165 C 
BRANCH  18  19
ATOM     19  C   UNL     1       3.595  -3.640   6.230  0.00  0.00    +0.229 C 
ATOM     20  O   UNL     1       2.558  -3.579   6.856  0.00  0.00    -0.274 OA
ATOM     21  N   UNL     1       4.776  -3.587   6.876  0.00  0.00    -0.328 N 
ATOM     22  H   UNL     1       5.606  -3.636   6.375  0.00  0.00    +0.145 HD
ATOM     23  H   UNL     1       4.797  -3.499   7.842  0.00  0.00    +0.145 HD
ENDBRANCH  18  19
ENDBRANCH   1  14
TORSDOF 4
