REMARK  Name = ZINC40567405
REMARK  6 active torsions:
REMARK  status: ('A' for Active; 'I' for Inactive)
REMARK    1  A    between atoms: C_6  and  C_7
REMARK    2  A    between atoms: C_10  and  C_12
REMARK    3  A    between atoms: N_16  and  C_20
REMARK    4  A    between atoms: C_20  and  C_22
REMARK    5  A    between atoms: C_20  and  C_26
REMARK    6  A    between atoms: C_22  and  C_23
REMARK                            x       y       z     vdW  Elec       q    Type
REMARK                         _______ _______ _______ _____ _____    ______ ____
ROOT
ATOM      1  C   UNL     1      -4.816  -1.050   0.036  0.00  0.00    +0.066 C 
ATOM      2  C   UNL     1      -5.352   0.206   0.041  0.00  0.00    +0.080 C 
ATOM      3  C   UNL     1      -6.722   0.609   0.057  0.00  0.00    +0.259 C 
ATOM      4  O   UNL     1      -7.618  -0.215   0.068  0.00  0.00    -0.269 OA
ATOM      5  N   UNL     1      -6.988   1.904   0.060  0.00  0.00    -0.241 N 
ATOM      6  C   UNL     1      -5.993   2.818   0.048  0.00  0.00    +0.121 C 
ATOM      7  S   UNL     1      -6.106   4.527   0.049  0.00  0.00    -0.027 S 
ATOM      8  S   UNL     1      -4.530   1.793   0.038  0.00  0.00    -0.061 S 
ENDROOT
BRANCH   1  12
ATOM      9  C   UNL     1      -1.264  -0.762   0.011  0.00  0.00    +0.136 A 
ATOM     10  C   UNL     1      -1.379  -2.134   0.010  0.00  0.00    +0.050 A 
ATOM     11  C   UNL     1      -2.745  -2.429   0.020  0.00  0.00    +0.050 A 
ATOM     12  C   UNL     1      -3.415  -1.219   0.026  0.00  0.00    +0.130 A 
ATOM     13  O   UNL     1      -2.499  -0.228   0.026  0.00  0.00    -0.455 OA
BRANCH   9  19
ATOM     14  C   UNL     1      -0.017   1.393   0.010  0.00  0.00    +0.014 A 
ATOM     15  C   UNL     1       1.169   2.096   0.002  0.00  0.00    +0.039 A 
ATOM     16  C   UNL     1       2.379   1.419  -0.013  0.00  0.00    +0.123 A 
ATOM     17  C   UNL     1       2.404   0.033  -0.022  0.00  0.00    +0.039 A 
ATOM     18  C   UNL     1       1.225  -0.681  -0.014  0.00  0.00    +0.014 A 
ATOM     19  C   UNL     1       0.002  -0.004   0.002  0.00  0.00    +0.017 A 
ATOM     20  F   UNL     1       3.538   2.113  -0.021  0.00  0.00    -0.205 F 
ENDBRANCH   9  19
ENDBRANCH   1  12
BRANCH   5  21
ATOM     21  C   UNL     1      -8.382   2.354   0.075  0.00  0.00    +0.206 C 
BRANCH  21  22
ATOM     22  C   UNL     1      -8.655   3.184  -1.152  0.00  0.00    +0.377 C 
ATOM     23  O   UNL     1      -7.768   3.382  -1.965  0.00  0.00    -0.244 OA
ATOM     24  O   UNL     1      -9.764   3.659  -1.333  0.00  0.00    -0.244 OA
ENDBRANCH  21  22
BRANCH  21  25
ATOM     25  C   UNL     1      -8.632   3.197   1.327  0.00  0.00    +0.159 C 
BRANCH  25  26
ATOM     26  C   UNL     1      -8.478   2.335   2.553  0.00  0.00    +0.358 C 
ATOM     27  O   UNL     1      -8.194   1.155   2.436  0.00  0.00    -0.246 OA
ATOM     28  O   UNL     1      -8.636   2.817   3.662  0.00  0.00    -0.246 OA
ENDBRANCH  25  26
ENDBRANCH  21  25
ENDBRANCH   5  21
TORSDOF 6
