REMARK  Name = ZINC19874410
REMARK  2 active torsions:
REMARK  status: ('A' for Active; 'I' for Inactive)
REMARK    1  A    between atoms: C_6  and  N_7
REMARK    2  A    between atoms: C_12  and  C_14
REMARK                            x       y       z     vdW  Elec       q    Type
REMARK                         _______ _______ _______ _____ _____    ______ ____
ROOT
ATOM      1  C   UNL     1       3.595   0.629  -2.795  0.00  0.00    +0.024 A 
ATOM      2  C   UNL     1       2.450  -0.052  -2.433  0.00  0.00    +0.025 A 
ATOM      3  C   UNL     1       1.242   0.626  -2.321  0.00  0.00    +0.040 A 
ATOM      4  C   UNL     1       1.182   1.989  -2.567  0.00  0.00    -0.024 A 
ATOM      5  C   UNL     1       2.331   2.669  -2.932  0.00  0.00    +0.028 A 
ATOM      6  C   UNL     1       3.537   1.993  -3.047  0.00  0.00    +0.025 A 
ATOM      7  C   UNL     1      -0.109   2.755  -2.443  0.00  0.00    +0.038 C 
ATOM      8  C   UNL     1      -1.305   1.809  -2.539  0.00  0.00    +0.024 C 
ATOM      9  C   UNL     1      -1.108   0.656  -1.546  0.00  0.00    +0.114 C 
ATOM     10  N   UNL     1       0.090  -0.089  -1.956  0.00  0.00    -0.267 N 
ATOM     11  C   UNL     1       0.084  -1.437  -1.980  0.00  0.00    +0.252 C 
ATOM     12  O   UNL     1       1.038  -2.041  -2.432  0.00  0.00    -0.270 OA
ENDROOT
BRANCH  11  13
ATOM     13  C   UNL     1      -1.081  -2.179  -1.459  0.00  0.00    +0.051 A 
ATOM     14  C   UNL     1      -1.689  -1.782  -0.266  0.00  0.00    +0.017 A 
ATOM     15  C   UNL     1      -2.776  -2.478   0.216  0.00  0.00    +0.039 A 
ATOM     16  C   UNL     1      -3.267  -3.572  -0.482  0.00  0.00    +0.124 A 
ATOM     17  C   UNL     1      -2.669  -3.971  -1.666  0.00  0.00    +0.054 A 
ATOM     18  C   UNL     1      -1.583  -3.278  -2.161  0.00  0.00    +0.033 A 
ATOM     19 BR   UNL     1      -0.772  -3.820  -3.781  0.00  0.00    -0.049 Br
ATOM     20  F   UNL     1      -4.334  -4.250  -0.004  0.00  0.00    -0.205 F 
ENDBRANCH  11  13
BRANCH   6  21
ATOM     21  N   UNL     1       4.695   2.686  -3.415  0.00  0.00    -0.358 N 
ATOM     22  H   UNL     1       4.649   3.767  -3.615  0.00  0.00    +0.142 HD
ATOM     23  H   UNL     1       5.652   2.151  -3.506  0.00  0.00    +0.142 HD
ENDBRANCH   6  21
TORSDOF 2
