REMARK  Name = ZINC37895787
REMARK  7 active torsions:
REMARK  status: ('A' for Active; 'I' for Inactive)
REMARK    1  A    between atoms: C_1  and  C_2
REMARK    2  A    between atoms: C_3  and  C_11
REMARK    3  A    between atoms: C_4  and  C_10
REMARK    4  A    between atoms: C_11  and  C_12
REMARK    5  A    between atoms: C_19  and  C_21
REMARK    6  A    between atoms: C_21  and  C_22
REMARK    7  A    between atoms: C_22  and  O_23
REMARK                            x       y       z     vdW  Elec       q    Type
REMARK                         _______ _______ _______ _____ _____    ______ ____
ROOT
ATOM      1  C   UNL     1      -2.969   0.209  -1.393  0.00  0.00    +0.220 C 
ATOM      2  O   UNL     1      -2.320  -0.244  -2.311  0.00  0.00    -0.275 OA
ATOM      3  N   UNL     1      -4.160   0.793  -1.633  0.00  0.00    -0.298 N 
ATOM      4  C   UNL     1      -5.009   1.244  -0.522  0.00  0.00    +0.108 C 
ATOM      5  C   UNL     1      -5.365   2.718  -0.742  0.00  0.00    +0.019 C 
ATOM      6  C   UNL     1      -5.998   2.885  -2.126  0.00  0.00    +0.003 C 
ATOM      7  C   UNL     1      -4.994   2.465  -3.201  0.00  0.00    +0.022 C 
ATOM      8  C   UNL     1      -4.630   0.994  -3.010  0.00  0.00    +0.078 C 
ENDROOT
BRANCH   1   9
ATOM      9  C   UNL     1      -2.443   0.121   0.017  0.00  0.00    +0.134 C 
BRANCH   9  12
ATOM     10  C   UNL     1      -0.002   1.660  -0.057  0.00  0.00    +0.064 C 
ATOM     11  C   UNL     1       0.046   0.154  -0.023  0.00  0.00    +0.023 A 
ATOM     12  C   UNL     1      -1.104  -0.571   0.012  0.00  0.00    +0.001 A 
ATOM     13  C   UNL     1      -1.027  -1.966   0.043  0.00  0.00    +0.049 A 
ATOM     14  N   UNL     1       0.150  -2.558   0.038  0.00  0.00    -0.198 NA
ATOM     15  C   UNL     1       1.276  -1.841   0.004  0.00  0.00    +0.346 A 
ATOM     16  O   UNL     1       2.353  -2.413   0.000  0.00  0.00    -0.245 OA
ATOM     17  N   UNL     1       1.239  -0.496  -0.032  0.00  0.00    -0.310 N 
ATOM     18  H   UNL     1       2.066   0.011  -0.061  0.00  0.00    +0.170 HD
ATOM     19  C   UNL     1      -2.287  -2.792   0.082  0.00  0.00    +0.066 C 
ENDBRANCH   9  12
ENDBRANCH   1   9
BRANCH   8  20
ATOM     20  C   UNL     1      -3.522   0.610  -3.992  0.00  0.00    +0.050 C 
BRANCH  20  21
ATOM     21  C   UNL     1      -4.001   0.860  -5.424  0.00  0.00    +0.157 C 
BRANCH  21  22
ATOM     22  O   UNL     1      -3.014   0.391  -6.345  0.00  0.00    -0.395 OA
ATOM     23  H   UNL     1      -3.251   0.518  -7.274  0.00  0.00    +0.209 HD
ENDBRANCH  21  22
ENDBRANCH  20  21
ENDBRANCH   8  20
TORSDOF 5
