REMARK  Name = ZINC10128016
REMARK  7 active torsions:
REMARK  status: ('A' for Active; 'I' for Inactive)
REMARK    1  A    between atoms: C_1  and  C_2
REMARK    2  A    between atoms: C_1  and  O_21
REMARK    3  A    between atoms: C_4  and  O_20
REMARK    4  A    between atoms: C_6  and  O_19
REMARK    5  A    between atoms: C_8  and  N_14
REMARK    6  A    between atoms: C_10  and  O_13
REMARK    7  A    between atoms: C_15  and  C_17
REMARK                            x       y       z     vdW  Elec       q    Type
REMARK                         _______ _______ _______ _____ _____    ______ ____
ROOT
ATOM      1  C   UNL     1       1.342   1.622   2.493  0.00  0.00    +0.178 C 
ATOM      2  C   UNL     1       2.064   1.118   1.241  0.00  0.00    +0.176 C 
ATOM      3  C   UNL     1       1.286   1.562  -0.002  0.00  0.00    +0.171 C 
ATOM      4  C   UNL     1       1.147   3.087   0.012  0.00  0.00    +0.160 C 
ATOM      5  C   UNL     1       0.459   3.515   1.314  0.00  0.00    +0.270 C 
ATOM      6  O   UNL     1       1.218   3.044   2.430  0.00  0.00    -0.341 OA
ENDROOT
BRANCH   4   7
ATOM      7  N   UNL     1       2.475   3.701  -0.065  0.00  0.00    -0.304 N 
ATOM      8  C   UNL     1       2.614   4.946  -0.562  0.00  0.00    +0.228 C 
ATOM      9  O   UNL     1       1.640   5.558  -0.947  0.00  0.00    -0.275 OA
ATOM     10  H   UNL     1       3.254   3.212   0.243  0.00  0.00    +0.149 HD
BRANCH   8  11
ATOM     11  C   UNL     1       3.980   5.577  -0.641  0.00  0.00    +0.204 C 
ATOM     12 CL   UNL     1       3.838   7.231  -1.346  0.00  0.00    -0.116 Cl
ENDBRANCH   8  11
ENDBRANCH   4   7
BRANCH   5  13
ATOM     13  O   UNL     1       0.376   4.941   1.362  0.00  0.00    -0.365 OA
ATOM     14  H   UNL     1      -0.049   5.283   2.160  0.00  0.00    +0.213 HD
ENDBRANCH   5  13
BRANCH   3  15
ATOM     15  O   UNL     1      -0.011   0.963   0.007  0.00  0.00    -0.387 OA
ATOM     16  H   UNL     1       0.002  -0.004   0.002  0.00  0.00    +0.210 HD
ENDBRANCH   3  15
BRANCH   2  17
ATOM     17  O   UNL     1       2.138  -0.309   1.274  0.00  0.00    -0.387 OA
ATOM     18  H   UNL     1       2.618  -0.660   2.036  0.00  0.00    +0.210 HD
ENDBRANCH   2  17
BRANCH   1  19
ATOM     19  C   UNL     1       2.144   1.234   3.736  0.00  0.00    +0.190 C 
BRANCH  19  20
ATOM     20  O   UNL     1       1.414   1.601   4.908  0.00  0.00    -0.392 OA
ATOM     21  H   UNL     1       1.864   1.385   5.736  0.00  0.00    +0.210 HD
ENDBRANCH  19  20
ENDBRANCH   1  19
TORSDOF 7
