REMARK  Name = ZINC24245476
REMARK  4 active torsions:
REMARK  status: ('A' for Active; 'I' for Inactive)
REMARK    1  A    between atoms: C_3  and  C_26
REMARK    2  A    between atoms: C_4  and  N_8
REMARK    3  A    between atoms: C_9  and  C_11
REMARK    4  A    between atoms: C_11  and  N_12
REMARK                            x       y       z     vdW  Elec       q    Type
REMARK                         _______ _______ _______ _____ _____    ______ ____
ROOT
ATOM      1  C   UNL     1       6.203   4.063  -0.809  0.00  0.00    +0.019 C 
ENDROOT
BRANCH   1   2
ATOM      2  N   UNL     1       5.518   5.283  -1.257  0.00  0.00    +0.387 N 
ATOM      3  C   UNL     1       5.283   5.252  -2.707  0.00  0.00    -0.059 C 
ATOM      4  C   UNL     1       4.411   6.448  -3.106  0.00  0.00    +0.091 C 
ATOM      5  N   UNL     1       5.046   7.676  -2.604  0.00  0.00    -0.289 N 
ATOM      6  C   UNL     1       5.437   7.729  -1.187  0.00  0.00    +0.091 C 
ATOM      7  C   UNL     1       6.268   6.483  -0.865  0.00  0.00    -0.059 C 
ATOM      8  C   UNL     1       5.264   8.725  -3.422  0.00  0.00    +0.305 C 
ATOM      9  O   UNL     1       6.094   9.564  -3.127  0.00  0.00    -0.252 OA
ATOM     10  N   UNL     1       4.562   8.845  -4.566  0.00  0.00    -0.285 N 
ATOM     11  C   UNL     1       3.413   7.970  -4.834  0.00  0.00    +0.109 C 
ATOM     12  C   UNL     1       2.197   8.849  -5.165  0.00  0.00    +0.019 C 
ATOM     13  C   UNL     1       2.554   9.789  -6.319  0.00  0.00    +0.003 C 
ATOM     14  C   UNL     1       3.707  10.703  -5.897  0.00  0.00    +0.019 C 
ATOM     15  C   UNL     1       4.936   9.848  -5.572  0.00  0.00    +0.109 C 
ATOM     16  H   UNL     1       4.537   5.323  -0.760  0.00  0.00    -0.081 HD
ENDBRANCH   1   2
BRANCH   1  18
ATOM     17  N   UNL     1       5.717   1.642  -0.664  0.00  0.00    -0.285 N 
ATOM     18  C   UNL     1       5.296   2.876  -1.008  0.00  0.00    +0.201 C 
ATOM     19  O   UNL     1       4.189   3.030  -1.476  0.00  0.00    -0.278 OA
ATOM     20  H   UNL     1       6.683   1.512  -0.155  0.00  0.00    +0.155 HD
BRANCH  17  24
ATOM     21  C   UNL     1       3.356  -1.681  -1.531  0.00  0.00    +0.002 A 
ATOM     22  C   UNL     1       4.682  -1.656  -1.920  0.00  0.00    +0.014 A 
ATOM     23  C   UNL     1       5.468  -0.556  -1.635  0.00  0.00    +0.077 A 
ATOM     24  C   UNL     1       4.924   0.526  -0.955  0.00  0.00    +0.064 A 
ATOM     25  C   UNL     1       3.590   0.498  -0.565  0.00  0.00    +0.063 A 
ATOM     26  C   UNL     1       2.810  -0.605  -0.855  0.00  0.00    +0.022 A 
ATOM     27 CL   UNL     1       2.905   1.849   0.284  0.00  0.00    -0.082 Cl
BRANCH  23  28
ATOM     28  C   UNL     1       6.913  -0.531  -2.059  0.00  0.00    +0.419 C 
ATOM     29  F   UNL     1       7.226  -1.723  -2.721  0.00  0.00    -0.166 F 
ATOM     30  F   UNL     1       7.127   0.551  -2.921  0.00  0.00    -0.166 F 
ATOM     31  F   UNL     1       7.729  -0.396  -0.931  0.00  0.00    -0.166 F 
ENDBRANCH  23  28
ENDBRANCH  17  24
ENDBRANCH   1  18
TORSDOF 4
