REMARK  Name = ZINC39681315
REMARK  7 active torsions:
REMARK  status: ('A' for Active; 'I' for Inactive)
REMARK    1  A    between atoms: C_1  and  C_2
REMARK    2  A    between atoms: C_7  and  C_10
REMARK    3  A    between atoms: C_14  and  C_23
REMARK    4  A    between atoms: N_25  and  C_26
REMARK    5  A    between atoms: C_26  and  C_27
REMARK    6  A    between atoms: C_27  and  O_28
REMARK    7  A    between atoms: O_28  and  C_29
REMARK                            x       y       z     vdW  Elec       q    Type
REMARK                         _______ _______ _______ _____ _____    ______ ____
ROOT
ATOM      1  C   UNL     1      -4.227  -2.547   2.211  0.00  0.00    +0.219 C 
ATOM      2  O   UNL     1      -4.621  -1.780   3.064  0.00  0.00    -0.275 OA
ATOM      3  N   UNL     1      -4.559  -3.852   2.273  0.00  0.00    -0.300 N 
ATOM      4  C   UNL     1      -4.087  -4.951   1.399  0.00  0.00    +0.121 C 
ATOM      5  C   UNL     1      -3.884  -6.149   2.354  0.00  0.00    +0.100 C 
ATOM      6  C   UNL     1      -4.802  -5.855   3.553  0.00  0.00    -0.004 C 
ATOM      7  C   UNL     1      -5.475  -4.512   3.235  0.00  0.00    +0.115 C 
ATOM      8  C   UNL     1      -5.852  -6.952   3.696  0.00  0.00    -0.010 C 
ATOM      9  C   UNL     1      -6.715  -6.668   4.929  0.00  0.00    -0.082 C 
ATOM     10  N   UNL     1      -5.864  -6.618   6.124  0.00  0.00    +0.379 N 
ATOM     11  C   UNL     1      -4.918  -5.501   6.018  0.00  0.00    -0.082 C 
ATOM     12  C   UNL     1      -3.978  -5.736   4.832  0.00  0.00    -0.010 C 
ATOM     13  H   UNL     1      -6.442  -6.492   6.941  0.00  0.00    -0.086 HD
ATOM     14  H   UNL     1      -5.353  -7.484   6.207  0.00  0.00    -0.086 HD
ENDROOT
BRANCH   1  21
ATOM     15  C   UNL     1      -1.242   2.148  -0.664  0.00  0.00    +0.109 C 
ATOM     16  C   UNL     1      -0.708   0.821  -0.190  0.00  0.00    +0.212 C 
ATOM     17  O   UNL     1       0.462   0.710   0.110  0.00  0.00    -0.276 OA
ATOM     18  N   UNL     1      -1.531  -0.243  -0.101  0.00  0.00    -0.302 N 
ATOM     19  C   UNL     1      -2.949  -0.126  -0.467  0.00  0.00    +0.108 C 
ATOM     20  C   UNL     1      -3.803  -0.624   0.704  0.00  0.00    +0.032 C 
ATOM     21  C   UNL     1      -3.366  -2.041   1.082  0.00  0.00    +0.078 C 
ATOM     22  C   UNL     1      -1.902  -2.024   1.526  0.00  0.00    +0.032 C 
ATOM     23  C   UNL     1      -1.025  -1.544   0.360  0.00  0.00    +0.108 C 
ENDBRANCH   1  21
BRANCH   5  24
ATOM     24  C   UNL     1      -4.293  -7.433   1.680  0.00  0.00    +0.218 C 
ATOM     25  O   UNL     1      -5.110  -7.414   0.784  0.00  0.00    -0.275 OA
ATOM     26  N   UNL     1      -3.750  -8.603   2.073  0.00  0.00    -0.312 N 
ATOM     27  H   UNL     1      -3.097  -8.618   2.789  0.00  0.00    +0.149 HD
BRANCH  26  28
ATOM     28  C   UNL     1      -4.148  -9.851   1.417  0.00  0.00    +0.145 C 
BRANCH  28  29
ATOM     29  C   UNL     1      -3.390 -11.021   2.047  0.00  0.00    +0.248 C 
BRANCH  29  30
ATOM     30  O   UNL     1      -3.788 -11.168   3.412  0.00  0.00    -0.489 OA
BRANCH  30  31
ATOM     31  C   UNL     1      -3.204 -12.170   4.121  0.00  0.00    +0.139 A 
ATOM     32  C   UNL     1      -2.264 -12.991   3.517  0.00  0.00    +0.047 A 
ATOM     33  C   UNL     1      -1.672 -14.009   4.240  0.00  0.00    +0.004 A 
ATOM     34  C   UNL     1      -2.016 -14.209   5.564  0.00  0.00    +0.002 A 
ATOM     35  C   UNL     1      -2.953 -13.393   6.169  0.00  0.00    +0.023 A 
ATOM     36  C   UNL     1      -3.544 -12.369   5.452  0.00  0.00    +0.083 A 
ATOM     37 CL   UNL     1      -4.716 -11.339   6.213  0.00  0.00    -0.080 Cl
ENDBRANCH  30  31
ENDBRANCH  29  30
ENDBRANCH  28  29
ENDBRANCH  26  28
ENDBRANCH   5  24
TORSDOF 6
