REMARK  Name = ZINC36973110
REMARK  3 active torsions:
REMARK  status: ('A' for Active; 'I' for Inactive)
REMARK    1  A    between atoms: C_4  and  C_20
REMARK    2  A    between atoms: C_6  and  N_7
REMARK    3  A    between atoms: N_7  and  C_8
REMARK                            x       y       z     vdW  Elec       q    Type
REMARK                         _______ _______ _______ _____ _____    ______ ____
ROOT
ATOM      1  C   UNL     1      -2.477  -0.004   0.026  0.00  0.00    +0.190 C 
ATOM      2  C   UNL     1      -3.580  -0.878  -0.524  0.00  0.00    +0.003 A 
ATOM      3  C   UNL     1      -3.783  -1.469  -1.751  0.00  0.00    +0.009 A 
ATOM      4  C   UNL     1      -4.915  -2.234  -1.970  0.00  0.00    +0.016 A 
ATOM      5  C   UNL     1      -5.840  -2.402  -0.954  0.00  0.00    +0.020 A 
ATOM      6  C   UNL     1      -5.638  -1.810   0.277  0.00  0.00    +0.039 A 
ATOM      7  C   UNL     1      -4.501  -1.039   0.504  0.00  0.00    +0.040 A 
ATOM      8  N   UNL     1      -4.078  -0.350   1.642  0.00  0.00    -0.283 N 
ATOM      9  C   UNL     1      -2.906   0.285   1.449  0.00  0.00    +0.242 C 
ATOM     10  O   UNL     1      -2.306   0.958   2.260  0.00  0.00    -0.273 OA
ATOM     11 BR   UNL     1      -7.387  -3.447  -1.253  0.00  0.00    -0.050 Br
ATOM     12  H   UNL     1      -4.573  -0.329   2.476  0.00  0.00    +0.155 HD
ENDROOT
BRANCH   1  13
ATOM     13  N   UNL     1      -1.199  -0.719   0.010  0.00  0.00    -0.329 N 
ATOM     14  H   UNL     1      -1.186  -1.689   0.004  0.00  0.00    +0.147 HD
BRANCH  13  20
ATOM     15  C   UNL     1      -0.017   1.386   0.010  0.00  0.00    +0.024 A 
ATOM     16  C   UNL     1       1.168   2.098   0.002  0.00  0.00    +0.023 A 
ATOM     17  C   UNL     1       2.378   1.434  -0.013  0.00  0.00    +0.058 A 
ATOM     18  C   UNL     1       2.408   0.037  -0.021  0.00  0.00    +0.072 A 
ATOM     19  C   UNL     1       1.211  -0.681  -0.013  0.00  0.00    +0.043 A 
ATOM     20  C   UNL     1       0.002  -0.004   0.002  0.00  0.00    +0.029 A 
ATOM     21 CL   UNL     1       3.863   2.334  -0.023  0.00  0.00    -0.082 Cl
BRANCH  18  22
ATOM     22  C   UNL     1       3.661  -0.656  -0.037  0.00  0.00    +0.101 C 
ATOM     23  N   UNL     1       4.656  -1.205  -0.050  0.00  0.00    -0.191 NA
ENDBRANCH  18  22
ENDBRANCH  13  20
ENDBRANCH   1  13
TORSDOF 3
