REMARK  Name = ZINC50541351
REMARK  7 active torsions:
REMARK  status: ('A' for Active; 'I' for Inactive)
REMARK    1  A    between atoms: C_1  and  C_2
REMARK    2  A    between atoms: C_5  and  C_11
REMARK    3  A    between atoms: C_5  and  O_18
REMARK    4  A    between atoms: C_7  and  C_9
REMARK    5  A    between atoms: C_7  and  C_10
REMARK    6  A    between atoms: C_11  and  C_12
REMARK    7  A    between atoms: N_15  and  C_17
REMARK                            x       y       z     vdW  Elec       q    Type
REMARK                         _______ _______ _______ _____ _____    ______ ____
ROOT
ATOM      1  C   UNL     1      -0.019   1.523   0.010  0.00  0.00    +0.007 C 
ATOM      2  C   UNL     1       0.002  -0.004   0.002  0.00  0.00    -0.011 C 
ATOM      3  C   UNL     1      -1.401  -0.577  -0.095  0.00  0.00    +0.038 C 
ATOM      4  C   UNL     1      -2.146  -0.515   1.233  0.00  0.00    +0.071 C 
ATOM      5  C   UNL     1      -1.350  -1.227   2.319  0.00  0.00    +0.041 C 
ATOM      6  C   UNL     1       0.058  -0.676   2.477  0.00  0.00    -0.032 C 
ATOM      7  C   UNL     1       0.802  -0.565   1.159  0.00  0.00    +0.010 C 
ATOM      8  C   UNL     1       0.844  -1.661   3.375  0.00  0.00    +0.011 C 
ATOM      9  C   UNL     1       0.033   0.670   3.208  0.00  0.00    +0.011 C 
ENDROOT
BRANCH   4  10
ATOM     10  O   UNL     1      -2.421   0.835   1.601  0.00  0.00    -0.388 OA
ATOM     11  H   UNL     1      -2.966   1.313   0.961  0.00  0.00    +0.210 HD
ENDBRANCH   4  10
BRANCH   4  12
ATOM     12  C   UNL     1      -3.493  -1.245   1.065  0.00  0.00    +0.073 C 
BRANCH  12  13
ATOM     13  C   UNL     1      -4.247  -0.646  -0.094  0.00  0.00    -0.007 A 
ATOM     14  C   UNL     1      -5.144   0.425  -0.027  0.00  0.00    +0.138 A 
ATOM     15  N   UNL     1      -5.595   0.657  -1.233  0.00  0.00    -0.180 NA
ATOM     16  N   UNL     1      -4.999  -0.262  -2.107  0.00  0.00    -0.274 N 
ATOM     17  C   UNL     1      -4.172  -1.046  -1.385  0.00  0.00    +0.111 A 
ATOM     18  C   UNL     1      -5.228  -0.351  -3.551  0.00  0.00    +0.172 C 
ENDBRANCH  12  13
ENDBRANCH   4  12
TORSDOF 3
