REMARK  Name = ZINC51036110
REMARK  6 active torsions:
REMARK  status: ('A' for Active; 'I' for Inactive)
REMARK    1  A    between atoms: C_1  and  C_2
REMARK    2  A    between atoms: C_2  and  C_4
REMARK    3  A    between atoms: C_2  and  N_22
REMARK    4  A    between atoms: C_4  and  C_6
REMARK    5  A    between atoms: C_4  and  S_11
REMARK    6  A    between atoms: S_11  and  C_12
REMARK                            x       y       z     vdW  Elec       q    Type
REMARK                         _______ _______ _______ _____ _____    ______ ____
ROOT
ATOM      1  C   UNL     1       0.663  -0.621   1.239  0.00  0.00    +0.075 C 
ENDROOT
BRANCH   1   2
ATOM      2  C   UNL     1       0.706  -2.124   1.132  0.00  0.00    +0.001 A 
ATOM      3  C   UNL     1       1.782  -2.948   1.124  0.00  0.00    +0.012 A 
ATOM      4  C   UNL     1       1.581  -4.311   1.017  0.00  0.00    +0.008 A 
ATOM      5  C   UNL     1       0.314  -4.784   0.924  0.00  0.00    +0.045 A 
ATOM      6  S   UNL     1      -0.646  -3.281   0.993  0.00  0.00    -0.101 S 
ENDBRANCH   1   2
BRANCH   1   8
ATOM      7  C   UNL     1       0.826  -0.347  -1.240  0.00  0.00    -0.013 C 
ATOM      8  C   UNL     1      -0.020  -0.042  -0.002  0.00  0.00    -0.060 C 
BRANCH   8   9
ATOM      9  N   UNL     1      -0.159   1.413   0.150  0.00  0.00    +0.381 N 
ATOM     10  H   UNL     1      -0.609   1.795  -0.668  0.00  0.00    -0.090 HD
ATOM     11  H   UNL     1      -0.717   1.615   0.966  0.00  0.00    -0.090 HD
ATOM     12  H   UNL     1       0.755   1.828   0.256  0.00  0.00    -0.090 HD
ENDBRANCH   8   9
ENDBRANCH   1   8
BRANCH   1  13
ATOM     13  S   UNL     1      -0.271  -0.146   2.720  0.00  0.00    -0.097 S 
BRANCH  13  14
ATOM     14  C   UNL     1       0.761  -0.656   4.055  0.00  0.00    +0.126 A 
ATOM     15  C   UNL     1       0.410  -0.371   5.377  0.00  0.00    +0.117 A 
ATOM     16  C   UNL     1       1.264  -0.799   6.406  0.00  0.00    +0.182 A 
ATOM     17  N   UNL     1       0.706  -0.404   7.566  0.00  0.00    -0.216 NA
ATOM     18  H   UNL     1      -1.402   0.683   5.556  0.00  0.00    +0.167 HD
ATOM     19  C   UNL     1      -0.411   0.224   7.326  0.00  0.00    +0.199 A 
ATOM     20  N   UNL     1      -0.640   0.273   5.995  0.00  0.00    -0.341 N 
ATOM     21  N   UNL     1       2.380  -1.462   6.080  0.00  0.00    -0.214 NA
ATOM     22  C   UNL     1       2.668  -1.707   4.822  0.00  0.00    +0.224 A 
ATOM     23  N   UNL     1       1.888  -1.326   3.826  0.00  0.00    -0.227 NA
ENDBRANCH  13  14
ENDBRANCH   1  13
TORSDOF 5
