REMARK  Name = ZINC67130003
REMARK  7 active torsions:
REMARK  status: ('A' for Active; 'I' for Inactive)
REMARK    1  A    between atoms: C_1  and  C_2
REMARK    2  A    between atoms: C_2  and  C_3
REMARK    3  A    between atoms: C_3  and  C_24
REMARK    4  A    between atoms: N_6  and  N_10
REMARK    5  A    between atoms: C_11  and  C_13
REMARK    6  A    between atoms: C_13  and  N_14
REMARK    7  A    between atoms: C_19  and  C_21
REMARK                            x       y       z     vdW  Elec       q    Type
REMARK                         _______ _______ _______ _____ _____    ______ ____
ROOT
ATOM      1  N   UNL     1      -2.162  -3.762  -1.828  0.00  0.00    -0.225 N 
ATOM      2  C   UNL     1      -3.408  -4.253  -1.681  0.00  0.00    +0.213 C 
ATOM      3  O   UNL     1      -4.239  -3.622  -1.063  0.00  0.00    -0.276 OA
ATOM      4  H   UNL     1      -1.497  -4.266  -2.323  0.00  0.00    +0.173 HD
ENDROOT
BRANCH   1   8
ATOM      5  C   UNL     1      -0.976  -0.877   0.069  0.00  0.00    +0.111 C 
ATOM      6  C   UNL     1      -1.075  -2.372  -0.159  0.00  0.00    +0.263 C 
ATOM      7  O   UNL     1      -0.582  -3.250   0.516  0.00  0.00    -0.271 OA
ATOM      8  N   UNL     1      -1.826  -2.523  -1.267  0.00  0.00    -0.137 N 
ATOM      9  C   UNL     1      -2.211  -1.343  -1.766  0.00  0.00    +0.326 C 
ATOM     10  O   UNL     1      -2.897  -1.222  -2.763  0.00  0.00    -0.251 OA
ATOM     11  N   UNL     1      -1.756  -0.305  -1.042  0.00  0.00    -0.284 N 
ATOM     12  C   UNL     1      -1.593  -0.492   1.415  0.00  0.00    +0.041 C 
ATOM     13  H   UNL     1      -1.911   0.637  -1.216  0.00  0.00    +0.151 HD
BRANCH   5  15
ATOM     14  C   UNL     1       0.543   1.107   0.121  0.00  0.00    +0.006 C 
ATOM     15  C   UNL     1       0.482  -0.417  -0.004  0.00  0.00    +0.032 C 
ENDBRANCH   5  15
ENDBRANCH   1   8
BRANCH   2  16
ATOM     16  C   UNL     1      -3.769  -5.586  -2.284  0.00  0.00    +0.021 C 
BRANCH  16  17
ATOM     17  N   UNL     1      -5.174  -5.894  -1.985  0.00  0.00    +0.393 N 
ATOM     18  C   UNL     1      -6.043  -4.941  -2.686  0.00  0.00    -0.077 C 
ATOM     19  C   UNL     1      -7.503  -5.207  -2.314  0.00  0.00    -0.019 C 
ATOM     20  C   UNL     1      -7.876  -6.634  -2.722  0.00  0.00    -0.003 C 
ATOM     21  C   UNL     1      -6.917  -7.616  -2.044  0.00  0.00    -0.006 C 
ATOM     22  C   UNL     1      -5.478  -7.261  -2.426  0.00  0.00    +0.020 C 
ATOM     23  H   UNL     1      -5.330  -5.820  -0.991  0.00  0.00    -0.080 HD
BRANCH  22  24
ATOM     24  C   UNL     1      -4.530  -8.225  -1.761  0.00  0.00    +0.197 C 
ATOM     25  O   UNL     1      -4.064  -7.963  -0.672  0.00  0.00    -0.278 OA
ATOM     26  N   UNL     1      -4.199  -9.378  -2.376  0.00  0.00    -0.331 N 
ATOM     27  H   UNL     1      -4.572  -9.587  -3.246  0.00  0.00    +0.145 HD
ATOM     28  H   UNL     1      -3.589  -9.998  -1.948  0.00  0.00    +0.145 HD
ENDBRANCH  22  24
ENDBRANCH  16  17
ENDBRANCH   2  16
TORSDOF 5
