REMARK  Name = ZINC39531562
REMARK  7 active torsions:
REMARK  status: ('A' for Active; 'I' for Inactive)
REMARK    1  A    between atoms: C_1  and  C_2
REMARK    2  A    between atoms: C_5  and  C_8
REMARK    3  A    between atoms: C_8  and  C_10
REMARK    4  A    between atoms: C_8  and  N_13
REMARK    5  A    between atoms: C_10  and  N_11
REMARK    6  A    between atoms: C_17  and  C_20
REMARK    7  A    between atoms: C_25  and  O_26
REMARK                            x       y       z     vdW  Elec       q    Type
REMARK                         _______ _______ _______ _____ _____    ______ ____
ROOT
ATOM      1  N   UNL     1       0.897  -4.849   1.039  0.00  0.00    -0.297 NA
ATOM      2  C   UNL     1       2.223  -4.215   1.041  0.00  0.00    +0.066 C 
ATOM      3  C   UNL     1       3.062  -4.796   2.181  0.00  0.00    -0.066 C 
ATOM      4  N   UNL     1       3.194  -6.248   2.001  0.00  0.00    +0.385 N 
ATOM      5  C   UNL     1       1.864  -6.870   2.026  0.00  0.00    -0.023 C 
ATOM      6  C   UNL     1       1.015  -6.306   0.885  0.00  0.00    +0.074 C 
ATOM      7  H   UNL     1       3.637  -6.438   1.115  0.00  0.00    -0.085 HD
ATOM      8  H   UNL     1       3.757  -6.629   2.747  0.00  0.00    -0.085 HD
ENDROOT
BRANCH   5   9
ATOM      9  C   UNL     1       2.003  -8.361   1.860  0.00  0.00    -0.019 A 
ATOM     10  C   UNL     1       3.158  -8.891   1.318  0.00  0.00    +0.005 A 
ATOM     11  C   UNL     1       3.286 -10.259   1.164  0.00  0.00    +0.000 A 
ATOM     12  C   UNL     1       2.259 -11.100   1.552  0.00  0.00    +0.004 A 
ATOM     13  C   UNL     1       1.103 -10.575   2.095  0.00  0.00    +0.045 A 
ATOM     14  C   UNL     1       0.974  -9.203   2.255  0.00  0.00    +0.118 A 
BRANCH  14  15
ATOM     15  O   UNL     1      -0.161  -8.684   2.794  0.00  0.00    -0.507 OA
ATOM     16  H   UNL     1      -0.846  -8.477   2.143  0.00  0.00    +0.292 HD
ENDBRANCH  14  15
ENDBRANCH   5   9
BRANCH   1  17
ATOM     17  C   UNL     1       0.041  -4.276  -0.008  0.00  0.00    +0.103 C 
BRANCH  17  22
ATOM     18  C   UNL     1      -0.603   1.392   0.914  0.00  0.00    +0.044 C 
ATOM     19  C   UNL     1      -0.435  -0.086   0.673  0.00  0.00    -0.050 A 
ATOM     20  C   UNL     1      -0.266  -0.562  -0.613  0.00  0.00    +0.003 A 
ATOM     21  C   UNL     1      -0.112  -1.918  -0.834  0.00  0.00    +0.005 A 
ATOM     22  C   UNL     1      -0.126  -2.798   0.232  0.00  0.00    -0.029 A 
ATOM     23  C   UNL     1      -0.294  -2.322   1.519  0.00  0.00    +0.005 A 
ATOM     24  C   UNL     1      -0.444  -0.966   1.740  0.00  0.00    +0.003 A 
ENDBRANCH  17  22
BRANCH  17  25
ATOM     25  C   UNL     1      -1.329  -4.956   0.024  0.00  0.00    +0.140 C 
BRANCH  25  26
ATOM     26  N   UNL     1      -2.157  -4.443  -1.075  0.00  0.00    -0.157 NA
ATOM     27  F   UNL     1      -3.365  -4.917  -1.009  0.00  0.00    -0.136 F 
ATOM     28  H   UNL     1      -1.737  -4.648  -1.970  0.00  0.00    +0.159 HD
ENDBRANCH  25  26
ENDBRANCH  17  25
ENDBRANCH   1  17
TORSDOF 6
