REMARK  Name = ZINC37607969
REMARK  7 active torsions:
REMARK  status: ('A' for Active; 'I' for Inactive)
REMARK    1  A    between atoms: C_1  and  C_2
REMARK    2  A    between atoms: C_2  and  C_4
REMARK    3  A    between atoms: C_2  and  N_18
REMARK    4  A    between atoms: C_4  and  C_5
REMARK    5  A    between atoms: N_7  and  C_8
REMARK    6  A    between atoms: C_13  and  O_14
REMARK    7  A    between atoms: O_14  and  C_15
REMARK                            x       y       z     vdW  Elec       q    Type
REMARK                         _______ _______ _______ _____ _____    ______ ____
ROOT
ATOM      1  C   UNL     1       0.625  -2.000  -1.331  0.00  0.00    +0.216 C 
ATOM      2  O   UNL     1       0.051  -2.617  -0.459  0.00  0.00    -0.276 OA
ATOM      3  N   UNL     1       1.196  -2.660  -2.358  0.00  0.00    -0.283 N 
ATOM      4  H   UNL     1       1.599  -2.165  -3.089  0.00  0.00    +0.155 HD
ENDROOT
BRANCH   3   5
ATOM      5  C   UNL     1       1.207  -4.061  -2.371  0.00  0.00    +0.078 A 
ATOM      6  C   UNL     1       0.138  -4.770  -1.845  0.00  0.00    +0.047 A 
ATOM      7  C   UNL     1       0.150  -6.153  -1.858  0.00  0.00    +0.044 A 
ATOM      8  C   UNL     1       1.229  -6.832  -2.397  0.00  0.00    +0.039 A 
ATOM      9  C   UNL     1       2.299  -6.131  -2.924  0.00  0.00    +0.063 A 
ATOM     10  C   UNL     1       2.290  -4.745  -2.918  0.00  0.00    +0.155 A 
ATOM     11 BR   UNL     1       3.770  -7.064  -3.659  0.00  0.00    -0.046 Br
ATOM     12 CL   UNL     1      -1.189  -7.038  -1.198  0.00  0.00    -0.083 Cl
BRANCH  10  13
ATOM     13  O   UNL     1       3.339  -4.055  -3.441  0.00  0.00    -0.492 OA
ATOM     14  C   UNL     1       4.410  -3.732  -2.553  0.00  0.00    +0.277 C 
ENDBRANCH  10  13
ENDBRANCH   3   5
BRANCH   1  15
ATOM     15  C   UNL     1       0.701  -0.497  -1.266  0.00  0.00    +0.080 C 
BRANCH  15  17
ATOM     16  C   UNL     1      -0.052   1.526  -0.008  0.00  0.00    -0.014 C 
ATOM     17  C   UNL     1      -0.021  -0.003  -0.010  0.00  0.00    -0.070 C 
BRANCH  17  18
ATOM     18  N   UNL     1       0.691  -0.480   1.183  0.00  0.00    +0.380 N 
ATOM     19  H   UNL     1       0.215  -0.155   2.011  0.00  0.00    -0.090 HD
ATOM     20  H   UNL     1       0.712  -1.489   1.181  0.00  0.00    -0.090 HD
ATOM     21  H   UNL     1       1.635  -0.124   1.176  0.00  0.00    -0.090 HD
ENDBRANCH  17  18
ENDBRANCH  15  17
ENDBRANCH   1  15
TORSDOF 5
