REMARK  Name = ZINC43596655
REMARK  3 active torsions:
REMARK  status: ('A' for Active; 'I' for Inactive)
REMARK    1  A    between atoms: C_5  and  N_7
REMARK    2  A    between atoms: N_10  and  C_13
REMARK    3  A    between atoms: C_16  and  N_20
REMARK                            x       y       z     vdW  Elec       q    Type
REMARK                         _______ _______ _______ _____ _____    ______ ____
ROOT
ATOM      1  N   UNL     1       1.237  -2.078  -0.022  0.00  0.00    -0.326 N 
ATOM      2  C   UNL     1       1.256  -2.833   1.238  0.00  0.00    +0.124 C 
ATOM      3  C   UNL     1       0.077  -3.815   1.239  0.00  0.00    +0.124 C 
ATOM      4  N   UNL     1       0.082  -4.555  -0.031  0.00  0.00    -0.326 N 
ATOM      5  C   UNL     1       0.063  -3.800  -1.291  0.00  0.00    +0.124 C 
ATOM      6  C   UNL     1       1.236  -2.818  -1.292  0.00  0.00    +0.124 C 
ENDROOT
BRANCH   1  11
ATOM      7  C   UNL     1      -0.017   1.377   0.010  0.00  0.00    +0.002 A 
ATOM      8  C   UNL     1       1.170   2.087   0.002  0.00  0.00    +0.002 A 
ATOM      9  C   UNL     1       2.380   1.417  -0.013  0.00  0.00    +0.022 A 
ATOM     10  C   UNL     1       2.406   0.035  -0.022  0.00  0.00    +0.062 A 
ATOM     11  C   UNL     1       1.215  -0.681  -0.014  0.00  0.00    +0.048 A 
ATOM     12  C   UNL     1       0.002  -0.004   0.002  0.00  0.00    +0.024 A 
ATOM     13 CL   UNL     1       3.925  -0.805  -0.042  0.00  0.00    -0.082 Cl
ENDBRANCH   1  11
BRANCH   4  14
ATOM     14  C   UNL     1       0.104  -5.956  -0.039  0.00  0.00    +0.044 A 
ATOM     15  C   UNL     1      -1.087  -6.669  -0.042  0.00  0.00    +0.026 A 
ATOM     16  C   UNL     1      -1.065  -8.050  -0.050  0.00  0.00    +0.024 A 
ATOM     17  C   UNL     1       0.149  -8.725  -0.056  0.00  0.00    +0.026 A 
ATOM     18  C   UNL     1       1.340  -8.012  -0.053  0.00  0.00    +0.039 A 
ATOM     19  C   UNL     1       1.318  -6.631  -0.050  0.00  0.00    +0.041 A 
ATOM     20 BR   UNL     1       2.941  -5.660  -0.055  0.00  0.00    -0.048 Br
BRANCH  17  21
ATOM     21  N   UNL     1       0.170 -10.125  -0.064  0.00  0.00    -0.358 N 
ATOM     22  H   UNL     1      -0.662 -10.623  -0.066  0.00  0.00    +0.142 HD
ATOM     23  H   UNL     1       1.018 -10.597  -0.068  0.00  0.00    +0.142 HD
ENDBRANCH  17  21
ENDBRANCH   4  14
TORSDOF 3
