REMARK  Name = ZINC12882789
REMARK  6 active torsions:
REMARK  status: ('A' for Active; 'I' for Inactive)
REMARK    1  A    between atoms: C_1  and  C_2
REMARK    2  A    between atoms: C_16  and  C_18
REMARK    3  A    between atoms: C_18  and  C_20
REMARK    4  A    between atoms: C_18  and  O_21
REMARK    5  A    between atoms: N_24  and  C_27
REMARK    6  A    between atoms: C_27  and  C_28
REMARK                            x       y       z     vdW  Elec       q    Type
REMARK                         _______ _______ _______ _____ _____    ______ ____
ROOT
ATOM      1  C   UNL     1       2.880   4.711  -0.114  0.00  0.00    +0.047 C 
ATOM      2  C   UNL     1       1.375   4.734  -0.034  0.00  0.00    -0.011 A 
ATOM      3  C   UNL     1       0.711   5.938   0.088  0.00  0.00    +0.046 A 
ATOM      4  C   UNL     1      -0.671   5.968   0.163  0.00  0.00    +0.020 A 
ATOM      5  C   UNL     1      -1.389   4.786   0.115  0.00  0.00    +0.006 A 
ATOM      6  C   UNL     1      -0.729   3.583  -0.007  0.00  0.00    -0.027 A 
ATOM      7  C   UNL     1       0.660   3.540  -0.083  0.00  0.00    +0.040 A 
ATOM      8  N   UNL     1       1.096   2.219  -0.203  0.00  0.00    -0.286 N 
ATOM      9  C   UNL     1       0.071   1.345  -0.213  0.00  0.00    +0.211 C 
ATOM     10  O   UNL     1       0.150   0.138  -0.308  0.00  0.00    -0.277 OA
ATOM     11  C   UNL     1      -1.190   2.156  -0.092  0.00  0.00    +0.050 C 
ATOM     12  C   UNL     1      -1.998   1.753   1.148  0.00  0.00    +0.088 C 
ATOM     13  C   UNL     1      -3.482   1.894   0.708  0.00  0.00    +0.075 C 
ATOM     14  C   UNL     1      -3.418   2.378  -0.756  0.00  0.00    -0.028 C 
ATOM     15  C   UNL     1      -4.008   0.477   0.743  0.00  0.00    +0.224 C 
ATOM     16  O   UNL     1      -5.139   0.142   0.462  0.00  0.00    -0.275 OA
ATOM     17  N   UNL     1      -3.008  -0.345   1.135  0.00  0.00    -0.237 N 
ATOM     18  C   UNL     1      -1.847   0.268   1.392  0.00  0.00    +0.225 C 
ATOM     19  O   UNL     1      -0.831  -0.281   1.762  0.00  0.00    -0.275 OA
ATOM     20 CL   UNL     1       1.612   7.420   0.149  0.00  0.00    -0.083 Cl
ATOM     21  H   UNL     1       2.029   1.960  -0.270  0.00  0.00    +0.155 HD
ATOM     22  N   UNL     1      -2.092   1.954  -1.211  0.00  0.00    +0.396 N 
ATOM     23  H   UNL     1      -2.109   0.963  -1.480  0.00  0.00    -0.083 HD
ATOM     24  H   UNL     1      -1.795   2.521  -2.014  0.00  0.00    -0.083 HD
ENDROOT
BRANCH  14  25
ATOM     25  C   UNL     1      -4.528   1.727  -1.583  0.00  0.00    +0.098 C 
ATOM     26  C   UNL     1      -5.883   2.295  -1.157  0.00  0.00    +0.036 C 
BRANCH  25  27
ATOM     27  O   UNL     1      -4.311   2.000  -2.969  0.00  0.00    -0.394 OA
ATOM     28  H   UNL     1      -4.307   2.942  -3.188  0.00  0.00    +0.210 HD
ENDBRANCH  25  27
ENDBRANCH  14  25
BRANCH  17  29
ATOM     29  C   UNL     1      -3.186  -1.793   1.272  0.00  0.00    +0.151 C 
BRANCH  29  30
ATOM     30  C   UNL     1      -3.641  -2.111   2.673  0.00  0.00    -0.026 A 
ATOM     31  C   UNL     1      -4.991  -2.150   2.968  0.00  0.00    +0.009 A 
ATOM     32  C   UNL     1      -5.413  -2.442   4.252  0.00  0.00    +0.050 A 
ATOM     33  C   UNL     1      -4.483  -2.697   5.246  0.00  0.00    +0.166 A 
ATOM     34  C   UNL     1      -3.123  -2.659   4.949  0.00  0.00    +0.167 A 
ATOM     35  C   UNL     1      -2.707  -2.371   3.659  0.00  0.00    +0.054 A 
ATOM     36  O   UNL     1      -2.420  -2.942   6.085  0.00  0.00    -0.453 OA
ATOM     37  C   UNL     1      -3.349  -2.752   7.169  0.00  0.00    +0.466 C 
ATOM     38  O   UNL     1      -4.633  -3.005   6.568  0.00  0.00    -0.453 OA
ENDBRANCH  29  30
ENDBRANCH  17  29
TORSDOF 4
