REMARK  Name = ZINC39237523
REMARK  8 active torsions:
REMARK  status: ('A' for Active; 'I' for Inactive)
REMARK    1  A    between atoms: C_1  and  C_2
REMARK    2  A    between atoms: C_3  and  C_23
REMARK    3  A    between atoms: C_5  and  C_7
REMARK    4  A    between atoms: C_15  and  C_16
REMARK    5  A    between atoms: C_18  and  N_22
REMARK    6  A    between atoms: C_19  and  C_20
REMARK    7  A    between atoms: C_23  and  S_24
REMARK    8  A    between atoms: S_24  and  C_25
REMARK                            x       y       z     vdW  Elec       q    Type
REMARK                         _______ _______ _______ _____ _____    ______ ____
ROOT
ATOM      1  C   UNL     1       1.043  -4.062  -0.027  0.00  0.00    +0.085 C 
ATOM      2  C   UNL     1       1.876  -4.287   1.239  0.00  0.00    +0.108 C 
ATOM      3  C   UNL     1       2.859  -5.451   1.038  0.00  0.00    +0.286 C 
ATOM      4  N   UNL     1       2.028  -6.621   1.324  0.00  0.00    -0.230 N 
ATOM      5  N   UNL     1       1.034  -6.176   2.210  0.00  0.00    -0.193 NA
ATOM      6  C   UNL     1       0.909  -4.886   2.266  0.00  0.00    +0.043 C 
ATOM      7  C   UNL     1      -0.011  -4.105   3.168  0.00  0.00    +0.063 C 
ATOM      8  O   UNL     1       3.534  -5.456  -0.179  0.00  0.00    -0.455 OA
ATOM      9  C   UNL     1       2.988  -4.955  -1.297  0.00  0.00    +0.194 C 
ATOM     10  C   UNL     1       1.844  -4.266  -1.273  0.00  0.00    +0.094 C 
ATOM     11  H   UNL     1       2.140  -7.519   0.973  0.00  0.00    +0.172 HD
ENDROOT
BRANCH   1  16
ATOM     12  C   UNL     1      -0.018   1.503   0.010  0.00  0.00    +0.052 C 
ATOM     13  C   UNL     1       0.002  -0.004   0.002  0.00  0.00    -0.009 A 
ATOM     14  C   UNL     1      -1.039  -0.872   0.002  0.00  0.00    -0.027 A 
ATOM     15  C   UNL     1      -0.780  -2.230  -0.007  0.00  0.00    +0.016 A 
ATOM     16  C   UNL     1       0.507  -2.653  -0.016  0.00  0.00    -0.001 A 
ATOM     17  S   UNL     1       1.404  -1.109  -0.018  0.00  0.00    -0.097 S 
BRANCH  14  18
ATOM     18  C   UNL     1      -2.458  -0.364   0.012  0.00  0.00    +0.110 C 
BRANCH  18  19
ATOM     19  S   UNL     1      -3.036  -0.150  -1.694  0.00  0.00    -0.120 S 
BRANCH  19  20
ATOM     20  C   UNL     1      -4.686   0.441  -1.514  0.00  0.00    +0.008 A 
ATOM     21  C   UNL     1      -5.223   0.633  -0.247  0.00  0.00    +0.016 A 
ATOM     22  C   UNL     1      -6.516   1.095  -0.110  0.00  0.00    +0.021 A 
ATOM     23  C   UNL     1      -7.279   1.367  -1.232  0.00  0.00    +0.041 A 
ATOM     24  C   UNL     1      -6.747   1.177  -2.496  0.00  0.00    +0.021 A 
ATOM     25  C   UNL     1      -5.452   0.720  -2.640  0.00  0.00    +0.016 A 
ATOM     26 CL   UNL     1      -8.905   1.948  -1.055  0.00  0.00    -0.084 Cl
ENDBRANCH  19  20
ENDBRANCH  18  19
ENDBRANCH  14  18
ENDBRANCH   1  16
BRANCH   9  27
ATOM     27  N   UNL     1       3.624  -5.152  -2.497  0.00  0.00    -0.329 N 
ATOM     28  H   UNL     1       4.457  -5.648  -2.529  0.00  0.00    +0.145 HD
ATOM     29  H   UNL     1       3.241  -4.795  -3.313  0.00  0.00    +0.145 HD
ENDBRANCH   9  27
BRANCH  10  30
ATOM     30  C   UNL     1       1.375  -3.689  -2.497  0.00  0.00    +0.100 C 
ATOM     31  N   UNL     1       1.004  -3.230  -3.467  0.00  0.00    -0.191 NA
ENDBRANCH  10  30
TORSDOF 6
