REMARK  Name = ZINC40855743
REMARK  7 active torsions:
REMARK  status: ('A' for Active; 'I' for Inactive)
REMARK    1  A    between atoms: C_1  and  C_2
REMARK    2  A    between atoms: C_2  and  C_4
REMARK    3  A    between atoms: C_2  and  N_14
REMARK    4  A    between atoms: C_7  and  S_10
REMARK    5  A    between atoms: S_10  and  C_13
REMARK    6  A    between atoms: C_15  and  C_17
REMARK    7  A    between atoms: C_20  and  O_24
REMARK                            x       y       z     vdW  Elec       q    Type
REMARK                         _______ _______ _______ _____ _____    ______ ____
ROOT
ATOM      1  N   UNL     1      -1.372  -0.511   0.012  0.00  0.00    -0.310 N 
ATOM      2  C   UNL     1      -2.029  -0.655   1.181  0.00  0.00    +0.200 C 
ATOM      3  O   UNL     1      -1.481  -0.365   2.224  0.00  0.00    -0.278 OA
ATOM      4  H   UNL     1      -1.810  -0.743  -0.822  0.00  0.00    +0.149 HD
ENDROOT
BRANCH   2   5
ATOM      5  C   UNL     1      -3.442  -1.177   1.191  0.00  0.00    +0.018 C 
ATOM      6  C   UNL     1      -4.424  -0.040   0.839  0.00  0.00    +0.023 C 
ATOM      7  C   UNL     1      -5.630  -0.317   1.775  0.00  0.00    +0.097 C 
ATOM      8  C   UNL     1      -4.924  -0.847   3.047  0.00  0.00    -0.050 C 
ATOM      9  N   UNL     1      -3.790  -1.656   2.542  0.00  0.00    +0.388 N 
ATOM     10  H   UNL     1      -4.056  -2.628   2.499  0.00  0.00    -0.085 HD
ATOM     11  H   UNL     1      -2.996  -1.550   3.155  0.00  0.00    -0.085 HD
BRANCH   7  12
ATOM     12  O   UNL     1      -6.351   0.886   2.052  0.00  0.00    -0.394 OA
ATOM     13  H   UNL     1      -7.114   0.762   2.633  0.00  0.00    +0.210 HD
ENDBRANCH   7  12
ENDBRANCH   2   5
BRANCH   1  15
ATOM     14  C   UNL     1      -0.019   1.526   0.010  0.00  0.00    +0.033 C 
ATOM     15  C   UNL     1       0.002  -0.004   0.002  0.00  0.00    +0.100 C 
BRANCH  15  16
ATOM     16  C   UNL     1       0.707  -0.490  -1.238  0.00  0.00    -0.027 A 
ATOM     17  C   UNL     1       0.038  -0.522  -2.447  0.00  0.00    +0.007 A 
ATOM     18  C   UNL     1       0.685  -0.967  -3.584  0.00  0.00    +0.027 A 
ATOM     19  C   UNL     1       2.002  -1.381  -3.513  0.00  0.00    +0.088 A 
ATOM     20  C   UNL     1       2.672  -1.349  -2.304  0.00  0.00    +0.027 A 
ATOM     21  C   UNL     1       2.026  -0.899  -1.167  0.00  0.00    +0.007 A 
BRANCH  19  22
ATOM     22  S   UNL     1       2.826  -1.951  -4.962  0.00  0.00    -0.006 S 
ATOM     23  O   UNL     1       3.837  -2.827  -4.484  0.00  0.00    -0.170 OA
ATOM     24  O   UNL     1       1.788  -2.434  -5.803  0.00  0.00    -0.170 OA
ATOM     25  C   UNL     1       3.576  -0.466  -5.685  0.00  0.00    +0.200 C 
ENDBRANCH  19  22
ENDBRANCH  15  16
ENDBRANCH   1  15
TORSDOF 5
