REMARK  Name = ZINC08977217
REMARK  5 active torsions:
REMARK  status: ('A' for Active; 'I' for Inactive)
REMARK    1  A    between atoms: C_1  and  C_2
REMARK    2  A    between atoms: C_7  and  S_8
REMARK    3  A    between atoms: S_8  and  N_11
REMARK    4  A    between atoms: N_11  and  C_12
REMARK    5  A    between atoms: C_22  and  C_24
REMARK                            x       y       z     vdW  Elec       q    Type
REMARK                         _______ _______ _______ _____ _____    ______ ____
ROOT
ATOM      1  C   UNL     1      -1.234   1.916   0.695  0.00  0.00    +0.048 A 
ATOM      2  C   UNL     1      -1.295   3.303   0.664  0.00  0.00    +0.025 A 
ATOM      3  C   UNL     1      -0.137   4.035   0.520  0.00  0.00    +0.006 A 
ATOM      4  C   UNL     1       1.095   3.399   0.411  0.00  0.00    -0.041 A 
ATOM      5  C   UNL     1       1.159   2.024   0.459  0.00  0.00    -0.025 A 
ATOM      6  C   UNL     1      -0.005   1.282   0.598  0.00  0.00    +0.030 A 
ATOM      7  C   UNL     1       2.465   1.274   0.378  0.00  0.00    +0.143 C 
ATOM      8  N   UNL     1       3.535   2.187  -0.035  0.00  0.00    -0.290 N 
ATOM      9  C   UNL     1       3.583   3.509   0.612  0.00  0.00    +0.113 C 
ATOM     10  C   UNL     1       2.313   4.267   0.229  0.00  0.00    +0.054 C 
ATOM     11  C   UNL     1       4.439   1.831  -0.969  0.00  0.00    +0.282 C 
ATOM     12  O   UNL     1       5.372   2.569  -1.226  0.00  0.00    -0.267 OA
ENDROOT
BRANCH  11  13
ATOM     13  C   UNL     1       4.298   0.554  -1.676  0.00  0.00    +0.189 A 
ATOM     14  C   UNL     1       5.199   0.016  -2.550  0.00  0.00    +0.054 A 
ATOM     15  C   UNL     1       4.662  -1.206  -2.983  0.00  0.00    +0.042 A 
ATOM     16  C   UNL     1       3.468  -1.356  -2.368  0.00  0.00    +0.196 A 
ATOM     17  O   UNL     1       3.252  -0.294  -1.581  0.00  0.00    -0.458 OA
ENDBRANCH  11  13
BRANCH   1  18
ATOM     18  N   UNL     1      -2.404   1.164   0.829  0.00  0.00    -0.216 N 
ATOM     19  H   UNL     1      -2.554   0.394   0.259  0.00  0.00    +0.174 HD
BRANCH  18  20
ATOM     20  S   UNL     1      -3.535   1.587   1.963  0.00  0.00    +0.073 S 
ATOM     21  O   UNL     1      -3.826   2.961   1.752  0.00  0.00    -0.150 OA
ATOM     22  O   UNL     1      -4.538   0.581   1.930  0.00  0.00    -0.150 OA
BRANCH  20  29
ATOM     23  C   UNL     1      -2.478  -0.984   3.154  0.00  0.00    +0.046 C 
ATOM     24  C   UNL     1      -2.307   0.250   4.002  0.00  0.00    -0.024 A 
ATOM     25  C   UNL     1      -1.694   0.161   5.238  0.00  0.00    +0.007 A 
ATOM     26  C   UNL     1      -1.542   1.292   6.018  0.00  0.00    +0.020 A 
ATOM     27  C   UNL     1      -1.999   2.514   5.559  0.00  0.00    +0.043 A 
ATOM     28  C   UNL     1      -2.608   2.604   4.320  0.00  0.00    +0.049 A 
ATOM     29  C   UNL     1      -2.759   1.472   3.541  0.00  0.00    +0.113 A 
ATOM     30 CL   UNL     1      -1.810   3.935   6.538  0.00  0.00    -0.083 Cl
ENDBRANCH  20  29
ENDBRANCH  18  20
ENDBRANCH   1  18
TORSDOF 4
