REMARK  Name = ZINC05036989
REMARK  8 active torsions:
REMARK  status: ('A' for Active; 'I' for Inactive)
REMARK    1  A    between atoms: C_1  and  C_2
REMARK    2  A    between atoms: C_5  and  C_32
REMARK    3  A    between atoms: C_6  and  N_8
REMARK    4  A    between atoms: C_9  and  C_11
REMARK    5  A    between atoms: C_11  and  C_13
REMARK    6  A    between atoms: C_11  and  O_19
REMARK    7  A    between atoms: O_19  and  C_20
REMARK    8  A    between atoms: C_20  and  C_22
REMARK                            x       y       z     vdW  Elec       q    Type
REMARK                         _______ _______ _______ _____ _____    ______ ____
ROOT
ATOM      1  C   UNL     1       2.377   1.133  -0.028  0.00  0.00    +0.292 C 
ENDROOT
BRANCH   1   2
ATOM      2  C   UNL     1       2.795   0.882  -1.454  0.00  0.00    +0.002 A 
ATOM      3  C   UNL     1       2.659   1.881  -2.400  0.00  0.00    +0.008 A 
ATOM      4  C   UNL     1       3.047   1.652  -3.707  0.00  0.00    +0.000 A 
ATOM      5  C   UNL     1       3.562   0.421  -4.069  0.00  0.00    +0.000 A 
ATOM      6  C   UNL     1       3.693  -0.579  -3.124  0.00  0.00    +0.000 A 
ATOM      7  C   UNL     1       3.309  -0.349  -1.816  0.00  0.00    +0.008 A 
ENDBRANCH   1   2
BRANCH   1   9
ATOM      8  N   UNL     1       4.696   1.370   0.798  0.00  0.00    -0.282 N 
ATOM      9  C   UNL     1       3.461   1.898   0.687  0.00  0.00    +0.263 C 
ATOM     10  O   UNL     1       3.222   2.988   1.162  0.00  0.00    -0.271 OA
ATOM     11  H   UNL     1       4.867   0.466   0.490  0.00  0.00    +0.155 HD
BRANCH   8  17
ATOM     12  C   UNL     1       6.641   5.762   1.848  0.00  0.00    +0.044 C 
ATOM     13  C   UNL     1       6.701   4.256   1.881  0.00  0.00    -0.049 A 
ATOM     14  C   UNL     1       7.780   3.620   2.466  0.00  0.00    +0.004 A 
ATOM     15  C   UNL     1       7.839   2.239   2.498  0.00  0.00    +0.005 A 
ATOM     16  C   UNL     1       6.815   1.490   1.951  0.00  0.00    -0.029 A 
ATOM     17  C   UNL     1       5.732   2.126   1.358  0.00  0.00    +0.037 A 
ATOM     18  C   UNL     1       5.677   3.513   1.327  0.00  0.00    +0.027 A 
ATOM     19  C   UNL     1       6.875  -0.015   1.993  0.00  0.00    +0.045 C 
ENDBRANCH   8  17
ENDBRANCH   1   9
BRANCH   1  20
ATOM     20  O   UNL     1       1.148   1.908  -0.013  0.00  0.00    -0.443 OA
BRANCH  20  21
ATOM     21  C   UNL     1      -0.010   1.218  -0.016  0.00  0.00    +0.357 C 
ATOM     22  O   UNL     1       0.006   0.003  -0.030  0.00  0.00    -0.243 OA
BRANCH  21  23
ATOM     23  C   UNL     1      -1.292   1.936  -0.008  0.00  0.00    +0.125 A 
ATOM     24  C   UNL     1      -2.521   1.355  -0.015  0.00  0.00    +0.042 A 
ATOM     25  C   UNL     1      -3.487   2.389  -0.003  0.00  0.00    +0.000 A 
ATOM     26  C   UNL     1      -4.888   2.397  -0.003  0.00  0.00    +0.010 A 
ATOM     27  C   UNL     1      -5.560   3.584   0.010  0.00  0.00    +0.001 A 
ATOM     28  C   UNL     1      -4.868   4.789   0.025  0.00  0.00    +0.002 A 
ATOM     29  C   UNL     1      -3.491   4.808   0.026  0.00  0.00    +0.026 A 
ATOM     30  C   UNL     1      -2.783   3.609   0.012  0.00  0.00    +0.047 A 
ATOM     31  N   UNL     1      -1.441   3.309   0.014  0.00  0.00    -0.349 N 
ATOM     32  H   UNL     1      -0.718   3.956   0.026  0.00  0.00    +0.166 HD
ENDBRANCH  21  23
ENDBRANCH  20  21
ENDBRANCH   1  20
TORSDOF 6
