REMARK  Name = ZINC05810366
REMARK  6 active torsions:
REMARK  status: ('A' for Active; 'I' for Inactive)
REMARK    1  A    between atoms: C_1  and  O_2
REMARK    2  A    between atoms: O_2  and  C_3
REMARK    3  A    between atoms: C_7  and  O_17
REMARK    4  A    between atoms: C_9  and  O_16
REMARK    5  A    between atoms: C_11  and  C_14
REMARK    6  A    between atoms: C_14  and  O_15
REMARK                            x       y       z     vdW  Elec       q    Type
REMARK                         _______ _______ _______ _____ _____    ______ ____
ROOT
ATOM      1  C   UNL     1      -2.844   1.432  -2.395  0.00  0.00    +0.266 C 
ATOM      2  C   UNL     1      -2.144   1.038  -3.698  0.00  0.00    +0.143 C 
ATOM      3  C   UNL     1      -0.746   1.663  -3.726  0.00  0.00    +0.164 C 
ATOM      4  C   UNL     1       0.031   1.205  -2.488  0.00  0.00    +0.175 C 
ATOM      5  C   UNL     1      -0.753   1.593  -1.232  0.00  0.00    +0.178 C 
ATOM      6  O   UNL     1      -2.054   1.004  -1.283  0.00  0.00    -0.342 OA
ATOM      7 BR   UNL     1      -3.188   1.696  -5.229  0.00  0.00    -0.080 Br
ENDROOT
BRANCH   1   9
ATOM      8  C   UNL     1      -3.747   3.317  -1.222  0.00  0.00    +0.197 C 
ATOM      9  O   UNL     1      -3.002   2.852  -2.349  0.00  0.00    -0.353 OA
ENDBRANCH   1   9
BRANCH   4  10
ATOM     10  O   UNL     1       0.200  -0.213  -2.527  0.00  0.00    -0.387 OA
ATOM     11  H   UNL     1       0.689  -0.530  -3.299  0.00  0.00    +0.210 HD
ENDBRANCH   4  10
BRANCH   3  12
ATOM     12  O   UNL     1      -0.057   1.241  -4.905  0.00  0.00    -0.388 OA
ATOM     13  H   UNL     1      -0.494   1.498  -5.729  0.00  0.00    +0.210 HD
ENDBRANCH   3  12
BRANCH   5  14
ATOM     14  C   UNL     1      -0.013   1.086   0.008  0.00  0.00    +0.190 C 
BRANCH  14  15
ATOM     15  O   UNL     1      -0.682   1.547   1.184  0.00  0.00    -0.392 OA
ATOM     16  H   UNL     1      -0.266   1.262   2.009  0.00  0.00    +0.210 HD
ENDBRANCH  14  15
ENDBRANCH   5  14
TORSDOF 5
