REMARK  Name = ZINC20100941
REMARK  9 active torsions:
REMARK  status: ('A' for Active; 'I' for Inactive)
REMARK    1  A    between atoms: C_1  and  C_2
REMARK    2  A    between atoms: C_5  and  O_24
REMARK    3  A    between atoms: C_6  and  C_8
REMARK    4  A    between atoms: N_9  and  N_10
REMARK    5  A    between atoms: C_11  and  C_13
REMARK    6  A    between atoms: C_13  and  O_14
REMARK    7  A    between atoms: O_14  and  C_15
REMARK    8  A    between atoms: C_16  and  C_23
REMARK    9  A    between atoms: C_18  and  C_22
REMARK                            x       y       z     vdW  Elec       q    Type
REMARK                         _______ _______ _______ _____ _____    ______ ____
ROOT
ATOM      1  N   UNL     1       0.180   6.545   2.224  0.00  0.00    -0.204 N 
ATOM      2  C   UNL     1      -0.033   5.720   1.180  0.00  0.00    +0.270 C 
ATOM      3  O   UNL     1       0.246   6.080   0.056  0.00  0.00    -0.270 OA
ATOM      4  H   UNL     1      -0.073   6.220   3.244  0.00  0.00    +0.177 HD
ENDROOT
BRANCH   1   6
ATOM      5  C   UNL     1       1.031   8.572   3.022  0.00  0.00    +0.142 C 
ATOM      6  N   UNL     1       0.725   7.819   2.011  0.00  0.00    -0.188 NA
BRANCH   5  12
ATOM      7  C   UNL     1       1.550   4.647   6.054  0.00  0.00    +0.044 C 
ATOM      8  C   UNL     1       1.298   6.119   5.849  0.00  0.00    -0.050 A 
ATOM      9  C   UNL     1       1.083   6.940   6.943  0.00  0.00    +0.007 A 
ATOM     10  C   UNL     1       0.852   8.291   6.768  0.00  0.00    +0.046 A 
ATOM     11  C   UNL     1       0.833   8.833   5.494  0.00  0.00    +0.125 A 
ATOM     12  C   UNL     1       1.049   8.006   4.383  0.00  0.00    +0.036 A 
ATOM     13  C   UNL     1       1.276   6.641   4.573  0.00  0.00    +0.016 A 
BRANCH  11  14
ATOM     14  O   UNL     1       0.605  10.161   5.320  0.00  0.00    -0.506 OA
ATOM     15  H   UNL     1       0.590  10.589   4.307  0.00  0.00    +0.292 HD
ENDBRANCH  11  14
ENDBRANCH   5  12
ENDBRANCH   1   6
BRANCH   2  16
ATOM     16  C   UNL     1      -0.619   4.351   1.410  0.00  0.00    +0.326 C 
BRANCH  16  17
ATOM     17  O   UNL     1      -0.748   3.672   0.159  0.00  0.00    -0.481 OA
BRANCH  17  18
ATOM     18  C   UNL     1      -1.265   2.415   0.189  0.00  0.00    +0.138 A 
ATOM     19  C   UNL     1      -2.634   2.224   0.074  0.00  0.00    -0.007 A 
ATOM     20  C   UNL     1      -3.157   0.945   0.105  0.00  0.00    +0.010 A 
ATOM     21  C   UNL     1      -2.317  -0.143   0.250  0.00  0.00    -0.049 A 
ATOM     22  C   UNL     1      -0.952   0.044   0.365  0.00  0.00    +0.022 A 
ATOM     23  C   UNL     1      -0.423   1.321   0.335  0.00  0.00    +0.060 A 
ATOM     24 BR   UNL     1       1.444   1.577   0.493  0.00  0.00    -0.047 Br
ATOM     25  C   UNL     1      -2.890  -1.537   0.284  0.00  0.00    +0.044 C 
ATOM     26  C   UNL     1      -3.550   3.409  -0.090  0.00  0.00    +0.047 C 
ENDBRANCH  17  18
ENDBRANCH  16  17
ENDBRANCH   2  16
TORSDOF 6
