REMARK  Name = ZINC62870406
REMARK  4 active torsions:
REMARK  status: ('A' for Active; 'I' for Inactive)
REMARK    1  A    between atoms: C_1  and  C_2
REMARK    2  A    between atoms: C_2  and  C_18
REMARK    3  A    between atoms: C_8  and  C_10
REMARK    4  A    between atoms: C_13  and  O_17
REMARK                            x       y       z     vdW  Elec       q    Type
REMARK                         _______ _______ _______ _____ _____    ______ ____
ROOT
ATOM      1  C   UNL     1      -0.019   1.526   0.010  0.00  0.00    +0.024 C 
ATOM      2  C   UNL     1       0.002  -0.004   0.002  0.00  0.00    +0.085 C 
ATOM      3  C   UNL     1       0.722  -0.498  -1.255  0.00  0.00    +0.021 C 
ATOM      4  C   UNL     1       2.147   0.059  -1.281  0.00  0.00    +0.020 C 
ATOM      5  C   UNL     1       2.912  -0.448  -0.055  0.00  0.00    +0.108 C 
ATOM      6  N   UNL     1       2.151  -0.103   1.154  0.00  0.00    -0.302 N 
ATOM      7  C   UNL     1       0.743  -0.512   1.243  0.00  0.00    +0.125 C 
ATOM      8  C   UNL     1       2.734   0.576   2.161  0.00  0.00    +0.202 C 
ATOM      9  O   UNL     1       2.095   0.856   3.154  0.00  0.00    -0.277 OA
ENDROOT
BRANCH   8  10
ATOM     10  C   UNL     1       4.179   0.989   2.055  0.00  0.00    +0.019 C 
ATOM     11  C   UNL     1       5.093  -0.206   2.401  0.00  0.00    +0.023 C 
ATOM     12  C   UNL     1       6.249   0.457   3.195  0.00  0.00    +0.097 C 
ATOM     13  C   UNL     1       5.499   1.568   3.971  0.00  0.00    -0.050 C 
ATOM     14  N   UNL     1       4.468   2.059   3.027  0.00  0.00    +0.388 N 
ATOM     15  H   UNL     1       4.811   2.875   2.541  0.00  0.00    -0.085 HD
ATOM     16  H   UNL     1       3.628   2.295   3.533  0.00  0.00    -0.085 HD
BRANCH  12  17
ATOM     17  O   UNL     1       6.854  -0.476   4.093  0.00  0.00    -0.394 OA
ATOM     18  H   UNL     1       7.582  -0.108   4.611  0.00  0.00    +0.210 HD
ENDBRANCH  12  17
ENDBRANCH   8  10
BRANCH   2  19
ATOM     19  C   UNL     1      -1.411  -0.526   0.011  0.00  0.00    +0.363 C 
ATOM     20  O   UNL     1      -2.174  -0.237  -0.895  0.00  0.00    -0.246 OA
ATOM     21  O   UNL     1      -1.793  -1.238   0.925  0.00  0.00    -0.246 OA
ENDBRANCH   2  19
TORSDOF 3
