REMARK  Name = ZINC04962062
REMARK  5 active torsions:
REMARK  status: ('A' for Active; 'I' for Inactive)
REMARK    1  A    between atoms: C_2  and  O_24
REMARK    2  A    between atoms: C_4  and  O_23
REMARK    3  A    between atoms: C_6  and  C_21
REMARK    4  A    between atoms: C_9  and  N_11
REMARK    5  A    between atoms: C_21  and  O_22
REMARK                            x       y       z     vdW  Elec       q    Type
REMARK                         _______ _______ _______ _____ _____    ______ ____
ROOT
ATOM      1  C   UNL     1       3.378   1.775   0.999  0.00  0.00    +0.090 C 
ATOM      2  C   UNL     1       4.719   1.038   0.934  0.00  0.00    +0.150 C 
ATOM      3  C   UNL     1       5.258   1.107  -0.498  0.00  0.00    +0.174 C 
ATOM      4  C   UNL     1       4.221   0.511  -1.454  0.00  0.00    +0.177 C 
ATOM      5  O   UNL     1       2.989   1.222  -1.321  0.00  0.00    -0.347 OA
ATOM      6  C   UNL     1       2.413   1.153  -0.014  0.00  0.00    +0.245 C 
ENDROOT
BRANCH   6   7
ATOM      7  N   UNL     1       1.147   1.890   0.001  0.00  0.00    -0.184 N 
ATOM      8  C   UNL     1      -0.014   1.212   0.009  0.00  0.00    +0.348 A 
ATOM      9  O   UNL     1       0.002  -0.004   0.002  0.00  0.00    -0.245 OA
ATOM     10  N   UNL     1      -1.195   1.859   0.018  0.00  0.00    -0.272 N 
ATOM     11  H   UNL     1      -2.050   1.339   0.016  0.00  0.00    +0.174 HD
ATOM     12  C   UNL     1      -1.226   3.207   0.030  0.00  0.00    +0.287 A 
ATOM     13  O   UNL     1      -2.289   3.799   0.043  0.00  0.00    -0.265 OA
ATOM     14  C   UNL     1       0.038   3.951   0.021  0.00  0.00    +0.191 A 
ATOM     15  N   UNL     1       1.162   3.290   0.008  0.00  0.00    -0.152 NA
ATOM     16 BR   UNL     1       0.038   5.842   0.031  0.00  0.00    -0.021 Br
ENDBRANCH   6   7
BRANCH   3  17
ATOM     17  O   UNL     1       5.505   2.469  -0.851  0.00  0.00    -0.387 OA
ATOM     18  H   UNL     1       6.154   2.910  -0.285  0.00  0.00    +0.210 HD
ENDBRANCH   3  17
BRANCH   2  19
ATOM     19  O   UNL     1       4.533  -0.328   1.310  0.00  0.00    -0.389 OA
ATOM     20  H   UNL     1       4.193  -0.446   2.208  0.00  0.00    +0.210 HD
ENDBRANCH   2  19
BRANCH   4  21
ATOM     21  C   UNL     1       4.726   0.630  -2.893  0.00  0.00    +0.190 C 
BRANCH  21  22
ATOM     22  O   UNL     1       3.813  -0.028  -3.774  0.00  0.00    -0.392 OA
ATOM     23  H   UNL     1       4.071   0.008  -4.705  0.00  0.00    +0.210 HD
ENDBRANCH  21  22
ENDBRANCH   4  21
TORSDOF 5
