REMARK  Name = ZINC22156000
REMARK  6 active torsions:
REMARK  status: ('A' for Active; 'I' for Inactive)
REMARK    1  A    between atoms: C_1  and  C_2
REMARK    2  A    between atoms: N_5  and  C_9
REMARK    3  A    between atoms: C_9  and  C_11
REMARK    4  A    between atoms: C_9  and  C_12
REMARK    5  A    between atoms: N_14  and  C_15
REMARK    6  A    between atoms: C_20  and  N_21
REMARK                            x       y       z     vdW  Elec       q    Type
REMARK                         _______ _______ _______ _____ _____    ______ ____
ROOT
ATOM      1  C   UNL     1       3.539   3.230   0.088  0.00  0.00    +0.234 C 
ATOM      2  O   UNL     1       3.559   2.017   0.082  0.00  0.00    -0.274 OA
ATOM      3  N   UNL     1       2.364   3.885   0.001  0.00  0.00    -0.283 N 
ATOM      4  H   UNL     1       2.351   4.981  -0.085  0.00  0.00    +0.155 HD
ENDROOT
BRANCH   3   5
ATOM      5  C   UNL     1       1.159   3.168   0.019  0.00  0.00    +0.054 A 
ATOM      6  C   UNL     1       1.102   1.920   0.620  0.00  0.00    +0.025 A 
ATOM      7  C   UNL     1      -0.087   1.216   0.637  0.00  0.00    +0.002 A 
ATOM      8  C   UNL     1      -1.220   1.749   0.051  0.00  0.00    +0.002 A 
ATOM      9  C   UNL     1      -1.174   2.995  -0.545  0.00  0.00    +0.024 A 
ATOM     10  C   UNL     1       0.015   3.709  -0.567  0.00  0.00    +0.046 A 
BRANCH  10  11
ATOM     11  N   UNL     1       0.066   4.969  -1.174  0.00  0.00    -0.357 N 
ATOM     12  H   UNL     1      -0.837   5.394  -1.635  0.00  0.00    +0.142 HD
ATOM     13  H   UNL     1       1.010   5.534  -1.190  0.00  0.00    +0.142 HD
ENDBRANCH  10  11
ENDBRANCH   3   5
BRANCH   1  14
ATOM     14  C   UNL     1       4.827   4.005   0.194  0.00  0.00    +0.140 C 
ATOM     15  C   UNL     1       4.991   4.894  -1.040  0.00  0.00    +0.034 C 
BRANCH  14  19
ATOM     16  C   UNL     1       9.653   3.490   1.012  0.00  0.00    +0.039 C 
ATOM     17  C   UNL     1       8.338   2.756   0.744  0.00  0.00    +0.129 C 
ATOM     18  C   UNL     1       7.202   3.774   0.610  0.00  0.00    +0.116 C 
ATOM     19  N   UNL     1       5.956   3.068   0.276  0.00  0.00    -0.287 NA
ATOM     20  C   UNL     1       6.105   2.312  -0.975  0.00  0.00    +0.113 C 
ATOM     21  C   UNL     1       7.252   1.308  -0.826  0.00  0.00    +0.175 C 
ATOM     22  O   UNL     1       8.447   2.009  -0.471  0.00  0.00    -0.374 OA
ENDBRANCH  14  19
ENDBRANCH   1  14
TORSDOF 4
