REMARK  Name = ZINC21943377
REMARK  7 active torsions:
REMARK  status: ('A' for Active; 'I' for Inactive)
REMARK    1  A    between atoms: C_1  and  C_2
REMARK    2  A    between atoms: C_2  and  N_3
REMARK    3  A    between atoms: C_7  and  C_9
REMARK    4  A    between atoms: C_9  and  N_10
REMARK    5  A    between atoms: C_11  and  C_13
REMARK    6  A    between atoms: C_13  and  N_14
REMARK    7  A    between atoms: N_27  and  C_28
REMARK                            x       y       z     vdW  Elec       q    Type
REMARK                         _______ _______ _______ _____ _____    ______ ____
ROOT
ATOM      1  N   UNL     1      -2.468   2.267   1.512  0.00  0.00    -0.260 N 
ATOM      2  C   UNL     1      -2.264   3.594   1.905  0.00  0.00    +0.058 A 
ATOM      3  C   UNL     1      -1.302   4.376   1.283  0.00  0.00    +0.025 A 
ATOM      4  C   UNL     1      -1.116   5.686   1.685  0.00  0.00    +0.002 A 
ATOM      5  C   UNL     1      -1.886   6.222   2.700  0.00  0.00    +0.002 A 
ATOM      6  C   UNL     1      -2.853   5.451   3.321  0.00  0.00    +0.025 A 
ATOM      7  C   UNL     1      -3.045   4.140   2.923  0.00  0.00    +0.060 A 
ATOM      8  N   UNL     1      -4.021   3.334   3.530  0.00  0.00    -0.245 N 
ATOM      9  C   UNL     1      -4.637   2.273   2.720  0.00  0.00    +0.211 C 
ATOM     10  C   UNL     1      -3.568   1.595   1.901  0.00  0.00    +0.238 C 
ATOM     11  O   UNL     1      -3.701   0.431   1.589  0.00  0.00    -0.273 OA
ATOM     12  C   UNL     1      -4.380   3.526   4.815  0.00  0.00    +0.311 C 
ATOM     13  O   UNL     1      -3.857   4.409   5.467  0.00  0.00    -0.252 OA
ATOM     14  N   UNL     1      -5.319   2.739   5.377  0.00  0.00    -0.269 N 
ATOM     15  H   UNL     1      -5.852   1.996   4.765  0.00  0.00    +0.156 HD
ENDROOT
BRANCH  14  16
ATOM     16  C   UNL     1      -5.616   2.866   6.739  0.00  0.00    +0.035 A 
ATOM     17  C   UNL     1      -4.616   3.208   7.640  0.00  0.00    +0.026 A 
ATOM     18  C   UNL     1      -4.912   3.339   8.982  0.00  0.00    +0.040 A 
ATOM     19  C   UNL     1      -6.203   3.119   9.432  0.00  0.00    +0.124 A 
ATOM     20  C   UNL     1      -7.201   2.773   8.537  0.00  0.00    +0.040 A 
ATOM     21  C   UNL     1      -6.910   2.647   7.192  0.00  0.00    +0.026 A 
ATOM     22  F   UNL     1      -6.490   3.242  10.747  0.00  0.00    -0.205 F 
ENDBRANCH  14  16
BRANCH   1  23
ATOM     23  C   UNL     1      -1.472   1.598   0.672  0.00  0.00    +0.209 C 
BRANCH  23  25
ATOM     24  N   UNL     1      -1.030   1.286  -1.742  0.00  0.00    -0.316 N 
ATOM     25  C   UNL     1      -1.813   1.813  -0.780  0.00  0.00    +0.231 C 
ATOM     26  O   UNL     1      -2.792   2.461  -1.083  0.00  0.00    -0.274 OA
ATOM     27  H   UNL     1      -0.141   0.698  -1.467  0.00  0.00    +0.149 HD
BRANCH  24  28
ATOM     28  C   UNL     1      -1.361   1.494  -3.153  0.00  0.00    +0.089 C 
BRANCH  28  33
ATOM     29  N   UNL     1      -0.626   1.021  -5.452  0.00  0.00    +0.382 N 
ATOM     30  C   UNL     1       0.375   1.869  -6.133  0.00  0.00    -0.078 C 
ATOM     31  C   UNL     1       1.651   1.751  -5.262  0.00  0.00    -0.020 C 
ATOM     32  C   UNL     1       1.052   1.702  -3.832  0.00  0.00    -0.016 C 
ATOM     33  C   UNL     1      -0.254   0.905  -4.030  0.00  0.00    -0.051 C 
ATOM     34  H   UNL     1      -0.643   0.021  -5.912  0.00  0.00    -0.081 HD
BRANCH  29  36
ATOM     35  C   UNL     1      -2.287   1.776  -7.085  0.00  0.00    -0.017 C 
ATOM     36  C   UNL     1      -1.977   1.579  -5.600  0.00  0.00    -0.082 C 
ENDBRANCH  29  36
ENDBRANCH  28  33
ENDBRANCH  24  28
ENDBRANCH  23  25
ENDBRANCH   1  23
TORSDOF 6
