REMARK  Name = ZINC48449663
REMARK  4 active torsions:
REMARK  status: ('A' for Active; 'I' for Inactive)
REMARK    1  A    between atoms: C_1  and  C_2
REMARK    2  A    between atoms: C_10  and  C_11
REMARK    3  A    between atoms: N_13  and  N_14
REMARK    4  A    between atoms: C_15  and  C_17
REMARK                            x       y       z     vdW  Elec       q    Type
REMARK                         _______ _______ _______ _____ _____    ______ ____
ROOT
ATOM      1  C   UNL     1      -0.018   1.503   0.010  0.00  0.00    +0.048 C 
ATOM      2  C   UNL     1       0.002  -0.004   0.002  0.00  0.00    +0.008 A 
ATOM      3  C   UNL     1       0.009  -0.877  -1.171  0.00  0.00    +0.025 A 
ATOM      4  C   UNL     1      -0.000  -0.654  -2.551  0.00  0.00    +0.032 A 
ATOM      5  C   UNL     1       0.010  -1.718  -3.409  0.00  0.00    +0.042 A 
ATOM      6  C   UNL     1       0.030  -3.018  -2.918  0.00  0.00    +0.023 A 
ATOM      7  C   UNL     1       0.039  -3.258  -1.561  0.00  0.00    +0.048 A 
ATOM      8  C   UNL     1       0.029  -2.191  -0.669  0.00  0.00    +0.136 A 
ATOM      9  O   UNL     1       0.034  -2.113   0.676  0.00  0.00    -0.450 OA
ATOM     10  C   UNL     1       0.024  -0.826   1.083  0.00  0.00    +0.195 A 
ATOM     11 CL   UNL     1      -0.001  -1.444  -5.123  0.00  0.00    -0.084 Cl
ENDROOT
BRANCH  10  12
ATOM     12  C   UNL     1       0.033  -0.382   2.484  0.00  0.00    +0.296 C 
ATOM     13  O   UNL     1       0.019   0.806   2.745  0.00  0.00    -0.265 OA
ATOM     14  N   UNL     1       0.055  -1.291   3.479  0.00  0.00    -0.228 N 
ATOM     15  H   UNL     1       0.065  -2.238   3.270  0.00  0.00    +0.173 HD
BRANCH  14  16
ATOM     16  N   UNL     1       0.063  -0.867   4.814  0.00  0.00    -0.234 N 
ATOM     17  C   UNL     1       0.085  -1.776   5.809  0.00  0.00    +0.226 C 
ATOM     18  O   UNL     1       0.098  -2.960   5.549  0.00  0.00    -0.275 OA
ATOM     19  C   UNL     1       0.094  -1.320   7.246  0.00  0.00    +0.110 C 
ATOM     20  H   UNL     1       0.052   0.080   5.022  0.00  0.00    +0.173 HD
ENDBRANCH  14  16
ENDBRANCH  10  12
TORSDOF 2
