REMARK  Name = ZINC01615549
REMARK  4 active torsions:
REMARK  status: ('A' for Active; 'I' for Inactive)
REMARK    1  A    between atoms: C_2  and  C_11
REMARK    2  A    between atoms: N_12  and  N_13
REMARK    3  A    between atoms: N_13  and  C_14
REMARK    4  A    between atoms: C_14  and  N_16
REMARK                            x       y       z     vdW  Elec       q    Type
REMARK                         _______ _______ _______ _____ _____    ______ ____
ROOT
ATOM      1  C   UNL     1      -0.009  -2.829  -0.007  0.00  0.00    +0.102 A 
ATOM      2  C   UNL     1       1.155  -2.111  -0.020  0.00  0.00    +0.075 A 
ATOM      3  C   UNL     1       2.428  -2.849  -0.036  0.00  0.00    +0.263 A 
ATOM      4  O   UNL     1       3.490  -2.255  -0.044  0.00  0.00    -0.267 OA
ATOM      5  N   UNL     1       2.393  -4.198  -0.043  0.00  0.00    -0.275 N 
ATOM      6  H   UNL     1       3.248  -4.717  -0.054  0.00  0.00    +0.173 HD
ATOM      7  C   UNL     1       1.216  -4.847  -0.036  0.00  0.00    +0.327 A 
ATOM      8  O   UNL     1       1.212  -6.063  -0.042  0.00  0.00    -0.247 OA
ATOM      9  N   UNL     1       0.044  -4.192  -0.021  0.00  0.00    -0.314 N 
ATOM     10  H   UNL     1      -0.809  -4.715  -0.019  0.00  0.00    +0.170 HD
ENDROOT
BRANCH   2  11
ATOM     11  C   UNL     1       1.135  -0.638  -0.012  0.00  0.00    +0.145 C 
ATOM     12  N   UNL     1       0.002  -0.004   0.002  0.00  0.00    -0.188 NA
BRANCH  12  13
ATOM     13  N   UNL     1      -0.017   1.397   0.010  0.00  0.00    -0.219 N 
ATOM     14  H   UNL     1       0.816   1.893   0.004  0.00  0.00    +0.176 HD
BRANCH  13  15
ATOM     15  C   UNL     1      -1.193   2.055   0.019  0.00  0.00    +0.147 C 
ATOM     16  S   UNL     1      -1.216   3.767   0.028  0.00  0.00    -0.017 S 
BRANCH  15  17
ATOM     17  N   UNL     1      -2.351   1.365   0.021  0.00  0.00    -0.339 N 
ATOM     18  H   UNL     1      -2.338   0.395   0.015  0.00  0.00    +0.144 HD
ATOM     19  H   UNL     1      -3.198   1.839   0.027  0.00  0.00    +0.144 HD
ENDBRANCH  15  17
ENDBRANCH  13  15
ENDBRANCH  12  13
ENDBRANCH   2  11
TORSDOF 4
