REMARK  Name = ZINC02231274
REMARK  5 active torsions:
REMARK  status: ('A' for Active; 'I' for Inactive)
REMARK    1  A    between atoms: C_6  and  C_7
REMARK    2  A    between atoms: C_13  and  C_28
REMARK    3  A    between atoms: C_14  and  C_21
REMARK    4  A    between atoms: C_16  and  C_19
REMARK    5  A    between atoms: C_17  and  N_18
REMARK                            x       y       z     vdW  Elec       q    Type
REMARK                         _______ _______ _______ _____ _____    ______ ____
ROOT
ATOM      1  C   UNL     1      -2.035   4.261   0.278  0.00  0.00    +0.028 C 
ATOM      2  C   UNL     1      -1.026   3.355   0.215  0.00  0.00    +0.079 A 
ATOM      3  C   UNL     1      -1.067   1.901   0.409  0.00  0.00    +0.271 A 
ATOM      4  O   UNL     1      -2.113   1.335   0.668  0.00  0.00    -0.266 OA
ATOM      5  N   UNL     1       0.082   1.205   0.290  0.00  0.00    -0.257 N 
ATOM      6  C   UNL     1       1.232   1.912   0.000  0.00  0.00    +0.099 A 
ATOM      7  C   UNL     1       2.460   1.350  -0.144  0.00  0.00    +0.057 C 
ATOM      8  C   UNL     1       2.588  -0.151   0.021  0.00  0.00    +0.100 C 
ATOM      9  C   UNL     1       1.304  -0.890   0.339  0.00  0.00    +0.079 C 
ATOM     10  C   UNL     1       0.158  -0.183   0.450  0.00  0.00    +0.118 C 
ATOM     11  S   UNL     1       0.708   3.611  -0.120  0.00  0.00    -0.065 S 
ENDROOT
BRANCH   1  17
ATOM     12  C   UNL     1      -0.477   6.172   0.609  0.00  0.00    +0.009 A 
ATOM     13  C   UNL     1      -0.202   7.521   0.546  0.00  0.00    +0.020 A 
ATOM     14  C   UNL     1      -1.171   8.409   0.108  0.00  0.00    +0.041 A 
ATOM     15  C   UNL     1      -2.421   7.949  -0.275  0.00  0.00    +0.020 A 
ATOM     16  C   UNL     1      -2.709   6.602  -0.223  0.00  0.00    +0.009 A 
ATOM     17  C   UNL     1      -1.735   5.699   0.218  0.00  0.00    -0.024 A 
ATOM     18 CL   UNL     1      -0.818  10.107   0.039  0.00  0.00    -0.084 Cl
ENDBRANCH   1  17
BRANCH   8  19
ATOM     19  C   UNL     1       3.157  -0.719  -1.253  0.00  0.00    -0.035 A 
ATOM     20  C   UNL     1       2.419  -0.670  -2.421  0.00  0.00    +0.006 A 
ATOM     21  C   UNL     1       2.942  -1.186  -3.592  0.00  0.00    +0.020 A 
ATOM     22  C   UNL     1       4.200  -1.762  -3.592  0.00  0.00    +0.041 A 
ATOM     23  C   UNL     1       4.935  -1.816  -2.422  0.00  0.00    +0.020 A 
ATOM     24  C   UNL     1       4.414  -1.295  -1.253  0.00  0.00    +0.006 A 
ATOM     25 CL   UNL     1       4.854  -2.417  -5.061  0.00  0.00    -0.084 Cl
ENDBRANCH   8  19
BRANCH   7  26
ATOM     26  C   UNL     1       3.583   2.140  -0.439  0.00  0.00    +0.241 C 
ATOM     27  O   UNL     1       3.462   3.346  -0.569  0.00  0.00    -0.271 OA
ATOM     28  N   UNL     1       4.794   1.565  -0.578  0.00  0.00    -0.326 N 
ATOM     29  H   UNL     1       4.890   0.606  -0.475  0.00  0.00    +0.145 HD
ATOM     30  H   UNL     1       5.569   2.111  -0.782  0.00  0.00    +0.145 HD
ENDBRANCH   7  26
BRANCH  10  31
ATOM     31  N   UNL     1      -0.999  -0.867   0.739  0.00  0.00    -0.343 N 
ATOM     32  H   UNL     1      -1.855  -0.513   0.451  0.00  0.00    +0.144 HD
ATOM     33  H   UNL     1      -0.959  -1.702   1.230  0.00  0.00    +0.144 HD
ENDBRANCH  10  31
BRANCH   9  34
ATOM     34  C   UNL     1       1.305  -2.311   0.516  0.00  0.00    +0.099 C 
ATOM     35  N   UNL     1       1.305  -3.438   0.657  0.00  0.00    -0.191 NA
ENDBRANCH   9  34
TORSDOF 5
