REMARK  Name = ZINC05030594
REMARK  6 active torsions:
REMARK  status: ('A' for Active; 'I' for Inactive)
REMARK    1  A    between atoms: C_2  and  N_21
REMARK    2  A    between atoms: N_5  and  C1*_8
REMARK    3  A    between atoms: C2*_10  and  O2*_20
REMARK    4  A    between atoms: C3*_12  and  O3*_19
REMARK    5  A    between atoms: C4*_14  and  C5*_17
REMARK    6  A    between atoms: C5*_17  and  O5*_18
REMARK                            x       y       z     vdW  Elec       q    Type
REMARK                         _______ _______ _______ _____ _____    ______ ____
ROOT
ATOM      1  C1* UNL     1       2.421   1.011  -0.015  0.00  0.00    +0.255 C 
ATOM      2  C2* UNL     1       2.564   0.145   1.262  0.00  0.00    +0.195 C 
ATOM      3  C3* UNL     1       4.102  -0.006   1.379  0.00  0.00    +0.178 C 
ATOM      4  C4* UNL     1       4.663   1.163   0.547  0.00  0.00    +0.177 C 
ATOM      5  O4* UNL     1       3.540   1.920   0.063  0.00  0.00    -0.346 OA
ENDROOT
BRANCH   1  10
ATOM      6  C   UNL     1      -0.060   3.780   0.023  0.00  0.00    +0.113 A 
ATOM      7  C   UNL     1      -1.229   3.036   0.030  0.00  0.00    +0.123 A 
ATOM      8  N   UNL     1      -1.161   1.696   0.017  0.00  0.00    -0.223 NA
ATOM      9  C   UNL     1      -0.013   1.076   0.008  0.00  0.00    +0.206 A 
ATOM     10  N   UNL     1       1.156   1.748   0.000  0.00  0.00    -0.270 N 
ATOM     11  C   UNL     1       1.164   3.098   0.008  0.00  0.00    +0.258 A 
ATOM     12  O   UNL     1       2.219   3.713   0.000  0.00  0.00    -0.267 OA
BRANCH   7  13
ATOM     13  N   UNL     1      -2.455   3.669   0.045  0.00  0.00    -0.343 N 
ATOM     14  H   UNL     1      -2.500   4.638   0.051  0.00  0.00    +0.144 HD
ATOM     15  H   UNL     1      -3.271   3.145   0.050  0.00  0.00    +0.144 HD
ENDBRANCH   7  13
ENDBRANCH   1  10
BRANCH   3  16
ATOM     16  O3* UNL     1       4.518   0.105   2.742  0.00  0.00    -0.386 OA
ATOM     17  H3* UNL     1       5.477   0.072   2.864  0.00  0.00    +0.210 HD
ENDBRANCH   3  16
BRANCH   2  18
ATOM     18  O2* UNL     1       1.935  -1.127   1.089  0.00  0.00    -0.385 OA
ATOM     19  H2* UNL     1       1.998  -1.705   1.862  0.00  0.00    +0.210 HD
ENDBRANCH   2  18
BRANCH   4  20
ATOM     20  C5* UNL     1       5.548   2.049   1.425  0.00  0.00    +0.190 C 
BRANCH  20  21
ATOM     21  O5* UNL     1       6.142   3.072   0.624  0.00  0.00    -0.392 OA
ATOM     22  H5* UNL     1       6.718   3.673   1.116  0.00  0.00    +0.210 HD
ENDBRANCH  20  21
ENDBRANCH   4  20
TORSDOF 6
