REMARK  Name = ZINC05460664
REMARK  5 active torsions:
REMARK  status: ('A' for Active; 'I' for Inactive)
REMARK    1  A    between atoms: C_1  and  C_2
REMARK    2  A    between atoms: C_2  and  O_3
REMARK    3  A    between atoms: O_3  and  C_4
REMARK    4  A    between atoms: C_7  and  C_10
REMARK    5  A    between atoms: C_13  and  C_25
REMARK                            x       y       z     vdW  Elec       q    Type
REMARK                         _______ _______ _______ _____ _____    ______ ____
ROOT
ATOM      1  C   UNL     1       1.109  -6.040  -1.847  0.00  0.00    +0.122 C 
ATOM      2  C   UNL     1       0.421  -6.455  -3.153  0.00  0.00    +0.057 C 
ATOM      3  C   UNL     1       0.760  -7.915  -3.474  0.00  0.00    +0.106 C 
ATOM      4  N   UNL     1       2.214  -8.022  -3.693  0.00  0.00    -0.309 N 
ATOM      5  C   UNL     1       3.025  -7.350  -2.792  0.00  0.00    +0.175 A 
ATOM      6  N   UNL     1       2.524  -6.416  -1.912  0.00  0.00    -0.306 N 
ATOM      7  C   UNL     1       3.575  -5.955  -1.169  0.00  0.00    +0.069 A 
ATOM      8  C   UNL     1       3.668  -5.021  -0.144  0.00  0.00    +0.028 A 
ATOM      9  C   UNL     1       4.926  -4.797   0.393  0.00  0.00    +0.002 A 
ATOM     10  C   UNL     1       6.048  -5.467  -0.062  0.00  0.00    +0.002 A 
ATOM     11  C   UNL     1       5.981  -6.400  -1.081  0.00  0.00    +0.028 A 
ATOM     12  C   UNL     1       4.721  -6.644  -1.638  0.00  0.00    +0.065 A 
ATOM     13  N   UNL     1       4.316  -7.473  -2.627  0.00  0.00    -0.327 N 
ATOM     14  H   UNL     1       2.583  -8.537  -4.428  0.00  0.00    +0.149 HD
ATOM     15  H   UNL     1       4.892  -8.068  -3.131  0.00  0.00    +0.169 HD
ENDROOT
BRANCH   3  16
ATOM     16  C   UNL     1       0.024  -8.342  -4.718  0.00  0.00    -0.027 A 
ATOM     17  C   UNL     1       0.514  -7.998  -5.964  0.00  0.00    +0.007 A 
ATOM     18  C   UNL     1      -0.161  -8.390  -7.104  0.00  0.00    +0.020 A 
ATOM     19  C   UNL     1      -1.327  -9.128  -6.999  0.00  0.00    +0.041 A 
ATOM     20  C   UNL     1      -1.817  -9.472  -5.752  0.00  0.00    +0.020 A 
ATOM     21  C   UNL     1      -1.138  -9.084  -4.612  0.00  0.00    +0.007 A 
ATOM     22 CL   UNL     1      -2.175  -9.620  -8.432  0.00  0.00    -0.084 Cl
ENDBRANCH   3  16
BRANCH   1  26
ATOM     23  C   UNL     1       0.777  -1.810  -1.336  0.00  0.00    +0.121 A 
ATOM     24  C   UNL     1       0.243  -2.669  -0.386  0.00  0.00    +0.046 A 
ATOM     25  C   UNL     1       0.351  -4.036  -0.554  0.00  0.00    +0.009 A 
ATOM     26  C   UNL     1       0.992  -4.548  -1.667  0.00  0.00    -0.024 A 
ATOM     27  C   UNL     1       1.525  -3.694  -2.615  0.00  0.00    +0.009 A 
ATOM     28  C   UNL     1       1.414  -2.327  -2.455  0.00  0.00    +0.046 A 
BRANCH  23  29
ATOM     29  O   UNL     1       0.671  -0.465  -1.174  0.00  0.00    -0.492 OA
BRANCH  29  31
ATOM     30  C   UNL     1      -0.019   1.526   0.010  0.00  0.00    +0.048 C 
ATOM     31  C   UNL     1       0.002  -0.004   0.002  0.00  0.00    +0.225 C 
ENDBRANCH  29  31
ENDBRANCH  23  29
ENDBRANCH   1  26
TORSDOF 4
