REMARK  Name = ZINC42114620
REMARK  6 active torsions:
REMARK  status: ('A' for Active; 'I' for Inactive)
REMARK    1  A    between atoms: C_1  and  N_2
REMARK    2  A    between atoms: N_2  and  C_3
REMARK    3  A    between atoms: N_11  and  C_14
REMARK    4  A    between atoms: C_14  and  C_15
REMARK    5  A    between atoms: N_17  and  C_18
REMARK    6  A    between atoms: C_18  and  C_19
REMARK                            x       y       z     vdW  Elec       q    Type
REMARK                         _______ _______ _______ _____ _____    ______ ____
ROOT
ATOM      1  C   UNL     1       0.683  -0.515  -1.195  0.00  0.00    +0.173 C 
ATOM      2  C   UNL     1       0.232  -1.925  -1.500  0.00  0.00    +0.005 A 
ATOM      3  C   UNL     1      -0.995  -2.468  -1.812  0.00  0.00    +0.046 A 
ATOM      4  C   UNL     1      -1.109  -3.829  -2.046  0.00  0.00    +0.127 A 
ATOM      5  C   UNL     1       0.012  -4.637  -1.967  0.00  0.00    +0.078 A 
ATOM      6  C   UNL     1       1.243  -4.094  -1.654  0.00  0.00    +0.148 A 
ATOM      7  C   UNL     1       1.364  -2.724  -1.417  0.00  0.00    +0.077 A 
ATOM      8  N   UNL     1       2.480  -1.949  -1.089  0.00  0.00    -0.258 N 
ATOM      9  C   UNL     1       2.170  -0.646  -0.943  0.00  0.00    +0.242 C 
ATOM     10  O   UNL     1       2.936   0.252  -0.663  0.00  0.00    -0.273 OA
ATOM     11  F   UNL     1       2.332  -4.890  -1.578  0.00  0.00    -0.203 F 
ATOM     12  F   UNL     1      -2.311  -4.365  -2.352  0.00  0.00    -0.205 F 
ENDROOT
BRANCH   1  14
ATOM     13  C   UNL     1      -0.018   1.465   0.010  0.00  0.00    +0.102 C 
ATOM     14  N   UNL     1       0.002  -0.004   0.002  0.00  0.00    -0.305 NA
ATOM     15  H   UNL     1       0.429  -0.364   0.842  0.00  0.00    +0.123 HD
ENDBRANCH   1  14
BRANCH   8  16
ATOM     16  C   UNL     1       3.831  -2.490  -0.925  0.00  0.00    +0.209 C 
BRANCH  16  17
ATOM     17  C   UNL     1       4.549  -2.459  -2.249  0.00  0.00    +0.232 C 
ATOM     18  O   UNL     1       3.988  -2.027  -3.234  0.00  0.00    -0.274 OA
ATOM     19  N   UNL     1       5.816  -2.911  -2.340  0.00  0.00    -0.301 N 
ATOM     20  H   UNL     1       6.265  -3.257  -1.553  0.00  0.00    +0.150 HD
BRANCH  19  21
ATOM     21  C   UNL     1       6.514  -2.881  -3.628  0.00  0.00    +0.223 C 
BRANCH  21  22
ATOM     22  C   UNL     1       7.872  -3.425  -3.463  0.00  0.00    +0.081 C 
ATOM     23  N   UNL     1       8.919  -3.845  -3.335  0.00  0.00    -0.195 NA
ENDBRANCH  21  22
ENDBRANCH  19  21
ENDBRANCH  16  17
ENDBRANCH   8  16
TORSDOF 5
