REMARK  Name = ZINC13425272
REMARK  4 active torsions:
REMARK  status: ('A' for Active; 'I' for Inactive)
REMARK    1  A    between atoms: C_6  and  N_7
REMARK    2  A    between atoms: N_9  and  C_19
REMARK    3  A    between atoms: C_13  and  C_16
REMARK    4  A    between atoms: C_19  and  C_20
REMARK                            x       y       z     vdW  Elec       q    Type
REMARK                         _______ _______ _______ _____ _____    ______ ____
ROOT
ATOM      1  N   UNL     1      -2.613   0.168   1.518  0.00  0.00    -0.226 NA
ATOM      2  C   UNL     1      -2.537   1.382   2.010  0.00  0.00    +0.164 C 
ATOM      3  N   UNL     1      -1.753   2.343   1.404  0.00  0.00    -0.246 N 
ATOM      4  C   UNL     1      -1.360   3.464   1.995  0.00  0.00    +0.223 C 
ATOM      5  O   UNL     1      -0.610   4.175   1.359  0.00  0.00    -0.275 OA
ATOM      6  C   UNL     1      -1.738   3.948   3.355  0.00  0.00    +0.120 C 
ATOM      7  C   UNL     1      -2.135   2.801   4.283  0.00  0.00    +0.148 C 
ATOM      8  S   UNL     1      -3.431   1.824   3.469  0.00  0.00    -0.077 S 
ENDROOT
BRANCH   1  14
ATOM      9  C   UNL     1      -3.354  -0.921   3.522  0.00  0.00    +0.029 A 
ATOM     10  C   UNL     1      -4.149  -1.866   4.136  0.00  0.00    +0.022 A 
ATOM     11  C   UNL     1      -4.980  -2.674   3.379  0.00  0.00    +0.041 A 
ATOM     12  C   UNL     1      -5.023  -2.535   2.002  0.00  0.00    +0.022 A 
ATOM     13  C   UNL     1      -4.237  -1.590   1.376  0.00  0.00    +0.029 A 
ATOM     14  C   UNL     1      -3.397  -0.772   2.134  0.00  0.00    +0.067 A 
ATOM     15 CL   UNL     1      -5.972  -3.866   4.159  0.00  0.00    -0.084 Cl
ENDBRANCH   1  14
BRANCH   7  16
ATOM     16  C   UNL     1      -2.660   3.358   5.581  0.00  0.00    +0.224 C 
ATOM     17  O   UNL     1      -3.299   4.389   5.584  0.00  0.00    -0.275 OA
ATOM     18  N   UNL     1      -2.421   2.711   6.739  0.00  0.00    -0.328 N 
ATOM     19  H   UNL     1      -1.910   1.886   6.737  0.00  0.00    +0.145 HD
ATOM     20  H   UNL     1      -2.759   3.070   7.574  0.00  0.00    +0.145 HD
ENDBRANCH   7  16
BRANCH   3  21
ATOM     21  C   UNL     1      -1.333   2.112   0.020  0.00  0.00    +0.150 C 
BRANCH  21  22
ATOM     22  C   UNL     1      -0.017   1.378   0.010  0.00  0.00    -0.026 A 
ATOM     23  C   UNL     1       0.002  -0.004   0.002  0.00  0.00    +0.009 A 
ATOM     24  C   UNL     1       1.207  -0.682  -0.014  0.00  0.00    +0.050 A 
ATOM     25  C   UNL     1       2.399   0.024  -0.021  0.00  0.00    +0.166 A 
ATOM     26  C   UNL     1       2.380   1.416  -0.013  0.00  0.00    +0.167 A 
ATOM     27  C   UNL     1       1.169   2.089   0.002  0.00  0.00    +0.054 A 
ATOM     28  O   UNL     1       3.668   1.870  -0.023  0.00  0.00    -0.453 OA
ATOM     29  C   UNL     1       4.466   0.750  -0.450  0.00  0.00    +0.466 C 
ATOM     30  O   UNL     1       3.698  -0.395  -0.036  0.00  0.00    -0.453 OA
ENDBRANCH  21  22
ENDBRANCH   3  21
TORSDOF 4
