REMARK  Name = ZINC40308370
REMARK  7 active torsions:
REMARK  status: ('A' for Active; 'I' for Inactive)
REMARK    1  A    between atoms: C_1  and  C_2
REMARK    2  A    between atoms: C_2  and  N_3
REMARK    3  A    between atoms: C_5  and  N_22
REMARK    4  A    between atoms: C_7  and  C_8
REMARK    5  A    between atoms: N_10  and  C_11
REMARK    6  A    between atoms: C_11  and  C_13
REMARK    7  A    between atoms: C_11  and  C_14
REMARK                            x       y       z     vdW  Elec       q    Type
REMARK                         _______ _______ _______ _____ _____    ______ ____
ROOT
ATOM      1  C   UNL     1      -1.362  -0.804   2.883  0.00  0.00    +0.261 C 
ATOM      2  O   UNL     1      -1.772  -0.801   4.029  0.00  0.00    -0.269 OA
ATOM      3  N   UNL     1      -2.205  -0.536   1.865  0.00  0.00    -0.299 N 
ATOM      4  H   UNL     1      -1.896  -0.607   0.949  0.00  0.00    +0.150 HD
ENDROOT
BRANCH   1   9
ATOM      5  N   UNL     1       0.994  -1.473   3.535  0.00  0.00    -0.342 N 
ATOM      6  C   UNL     1       2.179  -1.662   2.895  0.00  0.00    +0.109 A 
ATOM      7  C   UNL     1       2.006  -1.407   1.571  0.00  0.00    +0.043 A 
ATOM      8  C   UNL     1       0.666  -1.046   1.377  0.00  0.00    +0.055 A 
ATOM      9  C   UNL     1       0.048  -1.098   2.609  0.00  0.00    +0.106 A 
BRANCH   7  10
ATOM     10  N   UNL     1       2.996  -1.490   0.575  0.00  0.00    -0.357 N 
ATOM     11  H   UNL     1       3.901  -1.750   0.810  0.00  0.00    +0.142 HD
ATOM     12  H   UNL     1       2.774  -1.287  -0.348  0.00  0.00    +0.142 HD
ENDBRANCH   7  10
BRANCH   5  14
ATOM     13  C   UNL     1       0.149  -3.025   5.226  0.00  0.00    +0.027 C 
ATOM     14  C   UNL     1       0.762  -1.646   4.971  0.00  0.00    +0.118 C 
ENDBRANCH   5  14
ENDBRANCH   1   9
BRANCH   3  15
ATOM     15  C   UNL     1      -3.587  -0.138   2.144  0.00  0.00    +0.156 C 
ATOM     16  C   UNL     1      -3.643   1.371   2.394  0.00  0.00    +0.038 C 
BRANCH  15  17
ATOM     17  C   UNL     1      -4.457  -0.484   0.964  0.00  0.00    +0.236 C 
ATOM     18  O   UNL     1      -3.964  -0.611  -0.137  0.00  0.00    -0.274 OA
ATOM     19  N   UNL     1      -5.784  -0.652   1.131  0.00  0.00    -0.300 N 
ATOM     20  C   UNL     1      -6.415  -0.379   2.430  0.00  0.00    +0.108 C 
ATOM     21  C   UNL     1      -7.573   0.601   2.219  0.00  0.00    +0.019 C 
ATOM     22  C   UNL     1      -8.527   0.038   1.162  0.00  0.00    +0.003 C 
ATOM     23  C   UNL     1      -7.782  -0.123  -0.165  0.00  0.00    +0.019 C 
ATOM     24  C   UNL     1      -6.628  -1.105   0.017  0.00  0.00    +0.108 C 
ENDBRANCH  15  17
ENDBRANCH   3  15
TORSDOF 5
