REMARK  Name = ZINC40704915
REMARK  4 active torsions:
REMARK  status: ('A' for Active; 'I' for Inactive)
REMARK    1  A    between atoms: C_1  and  C_2
REMARK    2  A    between atoms: C_7  and  N_8
REMARK    3  A    between atoms: C_10  and  N_23
REMARK    4  A    between atoms: C_11  and  N_15
REMARK                            x       y       z     vdW  Elec       q    Type
REMARK                         _______ _______ _______ _____ _____    ______ ____
ROOT
ATOM      1  N   UNL     1       0.130  -0.005   2.426  0.00  0.00    -0.298 N 
ATOM      2  C   UNL     1       0.018  -0.709   3.620  0.00  0.00    +0.149 A 
ATOM      3  C   UNL     1      -0.116  -0.030   4.833  0.00  0.00    +0.106 A 
ATOM      4  C   UNL     1      -0.225  -0.785   6.002  0.00  0.00    +0.150 A 
ATOM      5  N   UNL     1      -0.196  -2.113   5.917  0.00  0.00    -0.219 NA
ATOM      6  C   UNL     1      -0.068  -2.714   4.751  0.00  0.00    +0.225 A 
ATOM      7  N   UNL     1       0.033  -2.039   3.624  0.00  0.00    -0.219 NA
ATOM      8  H   UNL     1       0.025   0.959   2.419  0.00  0.00    +0.154 HD
ENDROOT
BRANCH   4   9
ATOM      9  N   UNL     1      -0.360  -0.159   7.237  0.00  0.00    -0.283 N 
ATOM     10  C   UNL     1      -0.336  -0.914   8.406  0.00  0.00    +0.124 A 
ATOM     11  C   UNL     1      -0.341  -0.273   9.640  0.00  0.00    +0.045 A 
ATOM     12  C   UNL     1      -0.317  -1.035  10.795  0.00  0.00    +0.025 A 
ATOM     13  C   UNL     1      -0.289  -2.419  10.675  0.00  0.00    +0.059 A 
ATOM     14  C   UNL     1      -0.286  -2.989   9.416  0.00  0.00    +0.132 A 
ATOM     15  N   UNL     1      -0.314  -2.236   8.333  0.00  0.00    -0.239 NA
ATOM     16 CL   UNL     1      -0.258  -3.422  12.091  0.00  0.00    -0.082 Cl
ATOM     17  H   UNL     1      -0.471   0.803   7.283  0.00  0.00    +0.155 HD
ENDBRANCH   4   9
BRANCH   1  24
ATOM     18  C   UNL     1      -0.814   1.129  -0.007  0.00  0.00    +0.045 C 
ATOM     19  C   UNL     1      -0.050  -0.169   0.024  0.00  0.00    -0.029 A 
ATOM     20  C   UNL     1       0.216  -0.843  -1.152  0.00  0.00    +0.006 A 
ATOM     21  C   UNL     1       0.917  -2.034  -1.126  0.00  0.00    +0.020 A 
ATOM     22  C   UNL     1       1.355  -2.556   0.079  0.00  0.00    +0.043 A 
ATOM     23  C   UNL     1       1.092  -1.887   1.260  0.00  0.00    +0.043 A 
ATOM     24  C   UNL     1       0.393  -0.687   1.235  0.00  0.00    +0.037 A 
ATOM     25 CL   UNL     1       2.235  -4.052   0.108  0.00  0.00    -0.083 Cl
ENDBRANCH   1  24
BRANCH   3  26
ATOM     26  N   UNL     1      -0.141   1.373   4.876  0.00  0.00    -0.353 N 
ATOM     27  H   UNL     1      -0.064   1.885   4.055  0.00  0.00    +0.143 HD
ATOM     28  H   UNL     1      -0.235   1.831   5.726  0.00  0.00    +0.143 HD
ENDBRANCH   3  26
TORSDOF 3
