REMARK  Name = ZINC23957384
REMARK  5 active torsions:
REMARK  status: ('A' for Active; 'I' for Inactive)
REMARK    1  A    between atoms: C_1  and  C_2
REMARK    2  A    between atoms: C_2  and  C_4
REMARK    3  A    between atoms: C_2  and  S_15
REMARK    4  A    between atoms: C_9  and  C_12
REMARK    5  A    between atoms: S_15  and  C_16
REMARK                            x       y       z     vdW  Elec       q    Type
REMARK                         _______ _______ _______ _____ _____    ______ ____
ROOT
ATOM      1  C   UNL     1       0.731  -0.503   1.223  0.00  0.00    +0.229 C 
ATOM      2  O   UNL     1       1.911  -0.775   1.156  0.00  0.00    -0.274 OA
ATOM      3  N   UNL     1       0.071  -0.647   2.389  0.00  0.00    -0.301 N 
ATOM      4  C   UNL     1      -1.357  -0.316   2.488  0.00  0.00    +0.108 C 
ATOM      5  C   UNL     1      -1.561   0.667   3.639  0.00  0.00    +0.032 C 
ATOM      6  C   UNL     1      -0.961   0.082   4.920  0.00  0.00    +0.078 C 
ATOM      7  C   UNL     1       0.542  -0.135   4.729  0.00  0.00    +0.032 C 
ATOM      8  C   UNL     1       0.768  -1.133   3.588  0.00  0.00    +0.108 C 
ENDROOT
BRANCH   6   9
ATOM      9  C   UNL     1      -1.189   1.036   6.063  0.00  0.00    +0.214 C 
ATOM     10  O   UNL     1      -0.243   1.498   6.666  0.00  0.00    -0.276 OA
ATOM     11  N   UNL     1      -2.444   1.378   6.416  0.00  0.00    -0.329 N 
ATOM     12  H   UNL     1      -2.611   2.075   7.251  0.00  0.00    +0.145 HD
ATOM     13  H   UNL     1      -3.303   0.959   5.870  0.00  0.00    +0.145 HD
ENDBRANCH   6   9
BRANCH   1  15
ATOM     14  C   UNL     1      -0.019   1.526   0.010  0.00  0.00    +0.029 C 
ATOM     15  C   UNL     1       0.002  -0.004   0.002  0.00  0.00    +0.136 C 
BRANCH  15  16
ATOM     16  S   UNL     1       0.849  -0.588  -1.487  0.00  0.00    -0.085 S 
BRANCH  16  17
ATOM     17  C   UNL     1      -0.266  -0.007  -2.721  0.00  0.00    +0.159 A 
ATOM     18  N   UNL     1      -1.406   0.662  -2.596  0.00  0.00    -0.135 NA
ATOM     19  N   UNL     1      -2.087   1.008  -3.600  0.00  0.00    -0.149 NA
ATOM     20  C   UNL     1      -1.718   0.720  -4.831  0.00  0.00    +0.182 A 
ATOM     21  S   UNL     1      -0.191  -0.155  -4.504  0.00  0.00    -0.048 S 
ENDBRANCH  16  17
ENDBRANCH  15  16
ENDBRANCH   1  15
TORSDOF 4
