REMARK  Name = ZINC51892814
REMARK  6 active torsions:
REMARK  status: ('A' for Active; 'I' for Inactive)
REMARK    1  A    between atoms: C_1  and  C_2
REMARK    2  A    between atoms: C_2  and  C_4
REMARK    3  A    between atoms: C_2  and  N_16
REMARK    4  A    between atoms: C_10  and  C_13
REMARK    5  A    between atoms: C_13  and  C_14
REMARK    6  A    between atoms: C_14  and  O_15
REMARK                            x       y       z     vdW  Elec       q    Type
REMARK                         _______ _______ _______ _____ _____    ______ ____
ROOT
ATOM      1  C   UNL     1      -1.391  -0.566   0.128  0.00  0.00    +0.236 C 
ATOM      2  O   UNL     1      -1.699  -1.209   1.109  0.00  0.00    -0.274 OA
ATOM      3  N   UNL     1      -2.294  -0.354  -0.850  0.00  0.00    -0.300 N 
ATOM      4  C   UNL     1      -1.904   0.322  -2.095  0.00  0.00    +0.108 C 
ATOM      5  C   UNL     1      -2.306  -0.560  -3.281  0.00  0.00    +0.019 C 
ATOM      6  C   UNL     1      -3.798  -0.890  -3.185  0.00  0.00    +0.006 C 
ATOM      7  C   UNL     1      -4.068  -1.665  -1.893  0.00  0.00    +0.009 C 
ATOM      8  C   UNL     1      -3.685  -0.801  -0.694  0.00  0.00    +0.111 C 
ENDROOT
BRANCH   1  10
ATOM      9  C   UNL     1      -0.019   1.489   0.339  0.00  0.00    +0.038 C 
ATOM     10  C   UNL     1       0.002  -0.003   0.003  0.00  0.00    +0.157 C 
BRANCH  10  11
ATOM     11  N   UNL     1       0.896  -0.700   0.930  0.00  0.00    -0.289 N 
ATOM     12  C   UNL     1       2.218  -0.757   0.678  0.00  0.00    +0.298 C 
ATOM     13  O   UNL     1       2.670  -0.229  -0.321  0.00  0.00    -0.253 OA
ATOM     14  N   UNL     1       3.041  -1.398   1.531  0.00  0.00    -0.313 N 
ATOM     15  H   UNL     1       0.536  -1.121   1.727  0.00  0.00    +0.151 HD
ATOM     16  H   UNL     1       2.681  -1.819   2.328  0.00  0.00    +0.146 HD
ATOM     17  H   UNL     1       3.993  -1.439   1.349  0.00  0.00    +0.146 HD
ENDBRANCH  10  11
ENDBRANCH   1  10
BRANCH   7  18
ATOM     18  C   UNL     1      -5.554  -2.023  -1.814  0.00  0.00    +0.033 C 
BRANCH  18  19
ATOM     19  C   UNL     1      -5.907  -2.989  -2.947  0.00  0.00    +0.156 C 
BRANCH  19  20
ATOM     20  O   UNL     1      -7.294  -3.323  -2.873  0.00  0.00    -0.395 OA
ATOM     21  H   UNL     1      -7.589  -3.933  -3.562  0.00  0.00    +0.209 HD
ENDBRANCH  19  20
ENDBRANCH  18  19
ENDBRANCH   7  18
TORSDOF 5
