REMARK  Name = ZINC43943712
REMARK  7 active torsions:
REMARK  status: ('A' for Active; 'I' for Inactive)
REMARK    1  A    between atoms: C_1  and  O_2
REMARK    2  A    between atoms: O_2  and  C_3
REMARK    3  A    between atoms: C_8  and  N_9
REMARK    4  A    between atoms: C_15  and  C_18
REMARK    5  A    between atoms: C_18  and  N_19
REMARK    6  A    between atoms: C_20  and  C_22
REMARK    7  A    between atoms: N_24  and  C_25
REMARK                            x       y       z     vdW  Elec       q    Type
REMARK                         _______ _______ _______ _____ _____    ______ ____
ROOT
ATOM      1  N   UNL     1       0.149  -2.776  -0.011  0.00  0.00    -0.266 N 
ATOM      2  C   UNL     1       0.314  -4.113  -0.038  0.00  0.00    +0.307 C 
ATOM      3  O   UNL     1       0.921  -4.669   0.856  0.00  0.00    -0.252 OA
ATOM      4  N   UNL     1      -0.195  -4.834  -1.057  0.00  0.00    -0.285 N 
ATOM      5  C   UNL     1      -0.820  -4.167  -2.207  0.00  0.00    +0.109 C 
ATOM      6  C   UNL     1      -2.224  -4.745  -2.409  0.00  0.00    +0.024 C 
ATOM      7  C   UNL     1      -2.131  -6.267  -2.540  0.00  0.00    +0.009 C 
ATOM      8  C   UNL     1      -1.546  -6.856  -1.254  0.00  0.00    +0.024 C 
ATOM      9  C   UNL     1      -0.130  -6.302  -1.041  0.00  0.00    +0.109 C 
ATOM     10  H   UNL     1      -0.381  -2.338  -0.696  0.00  0.00    +0.156 HD
ENDROOT
BRANCH   1  16
ATOM     11  C   UNL     1       1.144  -0.707   0.758  0.00  0.00    +0.141 A 
ATOM     12  C   UNL     1       1.725   0.041   1.770  0.00  0.00    +0.047 A 
ATOM     13  C   UNL     1       1.912  -0.517   3.021  0.00  0.00    +0.004 A 
ATOM     14  C   UNL     1       1.520  -1.820   3.267  0.00  0.00    +0.002 A 
ATOM     15  C   UNL     1       0.939  -2.571   2.263  0.00  0.00    +0.027 A 
ATOM     16  C   UNL     1       0.743  -2.017   1.007  0.00  0.00    +0.077 A 
BRANCH  11  18
ATOM     17  C   UNL     1       1.395   1.189  -0.656  0.00  0.00    +0.277 C 
ATOM     18  O   UNL     1       0.960  -0.160  -0.473  0.00  0.00    -0.493 OA
ENDBRANCH  11  18
ENDBRANCH   1  16
BRANCH   7  19
ATOM     19  C   UNL     1      -3.528  -6.845  -2.776  0.00  0.00    +0.108 C 
BRANCH  19  20
ATOM     20  N   UNL     1      -3.425  -8.286  -3.020  0.00  0.00    -0.307 N 
ATOM     21  C   UNL     1      -4.537  -9.011  -3.254  0.00  0.00    +0.299 C 
ATOM     22  O   UNL     1      -5.623  -8.470  -3.264  0.00  0.00    -0.265 OA
ATOM     23  H   UNL     1      -2.557  -8.719  -3.012  0.00  0.00    +0.149 HD
BRANCH  21  24
ATOM     24  C   UNL     1      -4.432 -10.480  -3.503  0.00  0.00    +0.303 C 
ATOM     25  O   UNL     1      -3.346 -11.021  -3.493  0.00  0.00    -0.265 OA
ATOM     26  N   UNL     1      -5.544 -11.204  -3.737  0.00  0.00    -0.278 N 
ATOM     27  H   UNL     1      -6.417 -10.783  -3.690  0.00  0.00    +0.155 HD
BRANCH  26  28
ATOM     28  C   UNL     1      -5.440 -12.563  -4.050  0.00  0.00    +0.037 A 
ATOM     29  C   UNL     1      -6.304 -13.132  -4.977  0.00  0.00    +0.026 A 
ATOM     30  C   UNL     1      -6.200 -14.475  -5.284  0.00  0.00    +0.043 A 
ATOM     31  C   UNL     1      -5.236 -15.255  -4.670  0.00  0.00    +0.159 A 
ATOM     32  C   UNL     1      -4.372 -14.690  -3.743  0.00  0.00    +0.160 A 
ATOM     33  C   UNL     1      -4.469 -13.345  -3.437  0.00  0.00    +0.064 A 
ATOM     34  F   UNL     1      -3.432 -15.453  -3.143  0.00  0.00    -0.202 F 
ATOM     35  F   UNL     1      -5.137 -16.568  -4.972  0.00  0.00    -0.202 F 
ENDBRANCH  26  28
ENDBRANCH  21  24
ENDBRANCH  19  20
ENDBRANCH   7  19
TORSDOF 6
