REMARK  Name = ZINC62609536
REMARK  5 active torsions:
REMARK  status: ('A' for Active; 'I' for Inactive)
REMARK    1  A    between atoms: C_3  and  C_6
REMARK    2  A    between atoms: C_6  and  C_7
REMARK    3  A    between atoms: C_7  and  C_8
REMARK    4  A    between atoms: C_9  and  C_15
REMARK    5  A    between atoms: C_10  and  N_14
REMARK                            x       y       z     vdW  Elec       q    Type
REMARK                         _______ _______ _______ _____ _____    ______ ____
ROOT
ATOM      1  C   UNL     1       5.629   0.571   1.393  0.00  0.00    +0.073 A 
ATOM      2  C   UNL     1       6.428  -0.589   1.373  0.00  0.00    +0.045 A 
ATOM      3  C   UNL     1       7.749  -0.178   1.364  0.00  0.00    +0.120 A 
ATOM      4  N   UNL     1       7.748   1.173   1.377  0.00  0.00    -0.264 N 
ATOM      5  H   UNL     1       8.534   1.742   1.374  0.00  0.00    +0.190 HD
ATOM      6  N   UNL     1       6.419   1.611   1.390  0.00  0.00    -0.177 NA
ENDROOT
BRANCH   2   7
ATOM      7  C   UNL     1       5.942  -1.991   1.365  0.00  0.00    +0.006 A 
ATOM      8  C   UNL     1       5.706  -2.642   0.156  0.00  0.00    +0.013 A 
ATOM      9  C   UNL     1       5.254  -3.946   0.153  0.00  0.00    +0.039 A 
ATOM     10  C   UNL     1       5.035  -4.608   1.349  0.00  0.00    +0.125 A 
ATOM     11  C   UNL     1       5.267  -3.966   2.554  0.00  0.00    +0.059 A 
ATOM     12  C   UNL     1       5.726  -2.663   2.568  0.00  0.00    +0.052 A 
ATOM     13 CL   UNL     1       6.025  -1.862   4.078  0.00  0.00    -0.083 Cl
ATOM     14  F   UNL     1       4.592  -5.885   1.341  0.00  0.00    -0.205 F 
ENDBRANCH   2   7
BRANCH   3  15
ATOM     15  N   UNL     1       8.867  -1.002   1.344  0.00  0.00    -0.343 N 
ATOM     16  H   UNL     1       8.760  -1.966   1.336  0.00  0.00    +0.144 HD
ATOM     17  H   UNL     1       9.756  -0.613   1.339  0.00  0.00    +0.144 HD
ENDBRANCH   3  15
BRANCH   1  18
ATOM     18  C   UNL     1       4.123   0.606   1.408  0.00  0.00    +0.065 C 
BRANCH  18  19
ATOM     19  C   UNL     1       3.599   0.625  -0.029  0.00  0.00    +0.080 C 
BRANCH  19  22
ATOM     20  C   UNL     1      -0.016   1.341   0.009  0.00  0.00    +0.041 A 
ATOM     21  C   UNL     1       1.331   1.769  -0.001  0.00  0.00    +0.044 A 
ATOM     22  C   UNL     1       2.092   0.660  -0.014  0.00  0.00    +0.105 A 
ATOM     23  O   UNL     1       1.282  -0.411  -0.012  0.00  0.00    -0.468 OA
ATOM     24  C   UNL     1       0.002  -0.004   0.002  0.00  0.00    +0.195 A 
ENDBRANCH  19  22
ENDBRANCH  18  19
ENDBRANCH   1  18
TORSDOF 5
