REMARK  Name = ZINC48451608
REMARK  7 active torsions:
REMARK  status: ('A' for Active; 'I' for Inactive)
REMARK    1  A    between atoms: C_1  and  N_2
REMARK    2  A    between atoms: N_2  and  C_3
REMARK    3  A    between atoms: N_2  and  C_4
REMARK    4  A    between atoms: C_4  and  C_6
REMARK    5  A    between atoms: C_4  and  C_19
REMARK    6  A    between atoms: C_6  and  N_7
REMARK    7  A    between atoms: N_10  and  C_11
REMARK                            x       y       z     vdW  Elec       q    Type
REMARK                         _______ _______ _______ _____ _____    ______ ____
ROOT
ATOM      1  N   UNL     1       0.599  -1.454   0.420  0.00  0.00    -0.300 N 
ATOM      2  C   UNL     1       1.220  -2.650   0.447  0.00  0.00    +0.304 C 
ATOM      3  O   UNL     1       1.214  -3.361  -0.540  0.00  0.00    -0.253 OA
ATOM      4  N   UNL     1       1.849  -3.058   1.567  0.00  0.00    -0.268 N 
ATOM      5  H   UNL     1       0.604  -0.887   1.206  0.00  0.00    +0.150 HD
ATOM      6  H   UNL     1       1.783  -2.530   2.379  0.00  0.00    +0.156 HD
ENDROOT
BRANCH   4   7
ATOM      7  C   UNL     1       2.596  -4.243   1.560  0.00  0.00    +0.049 A 
ATOM      8  C   UNL     1       3.035  -4.780   0.357  0.00  0.00    +0.027 A 
ATOM      9  C   UNL     1       3.772  -5.948   0.352  0.00  0.00    +0.040 A 
ATOM     10  C   UNL     1       4.073  -6.584   1.545  0.00  0.00    +0.125 A 
ATOM     11  C   UNL     1       3.636  -6.051   2.745  0.00  0.00    +0.055 A 
ATOM     12  C   UNL     1       2.903  -4.879   2.756  0.00  0.00    +0.042 A 
ATOM     13 BR   UNL     1       2.312  -4.146   4.396  0.00  0.00    -0.048 Br
ATOM     14  F   UNL     1       4.793  -7.727   1.537  0.00  0.00    -0.205 F 
ENDBRANCH   4   7
BRANCH   1  15
ATOM     15  C   UNL     1      -0.084  -1.011  -0.798  0.00  0.00    +0.095 C 
BRANCH  15  16
ATOM     16  C   UNL     1      -0.809   0.308  -0.525  0.00  0.00    -0.014 C 
BRANCH  16  17
ATOM     17  C   UNL     1      -1.922   0.073   0.464  0.00  0.00    -0.022 A 
ATOM     18  C   UNL     1      -1.946   0.320   1.796  0.00  0.00    +0.009 A 
ATOM     19  C   UNL     1      -3.090   0.023   2.513  0.00  0.00    +0.008 A 
ATOM     20  C   UNL     1      -4.154  -0.507   1.862  0.00  0.00    +0.045 A 
ATOM     21  S   UNL     1      -3.554  -0.594   0.183  0.00  0.00    -0.103 S 
ENDBRANCH  16  17
BRANCH  16  23
ATOM     22  C   UNL     1      -2.127   2.056  -1.506  0.00  0.00    -0.096 C 
ATOM     23  N   UNL     1      -1.370   0.827  -1.780  0.00  0.00    +0.382 N 
ATOM     24  C   UNL     1      -0.280   1.123  -2.719  0.00  0.00    -0.096 C 
ATOM     25  H   UNL     1      -1.985   0.137  -2.184  0.00  0.00    -0.082 HD
ENDBRANCH  16  23
ENDBRANCH  15  16
ENDBRANCH   1  15
TORSDOF 5
