REMARK  Name = ZINC39954984
REMARK  4 active torsions:
REMARK  status: ('A' for Active; 'I' for Inactive)
REMARK    1  A    between atoms: C_5  and  C_7
REMARK    2  A    between atoms: C_8  and  C_20
REMARK    3  A    between atoms: C_9  and  N_19
REMARK    4  A    between atoms: N_10  and  C_12
REMARK                            x       y       z     vdW  Elec       q    Type
REMARK                         _______ _______ _______ _____ _____    ______ ____
ROOT
ATOM      1  C   UNL     1       1.272  -2.166  -0.005  0.00  0.00    +0.115 A 
ATOM      2  C   UNL     1       0.087  -3.031  -0.034  0.00  0.00    +0.119 A 
ATOM      3  C   UNL     1       0.560  -4.339  -0.056  0.00  0.00    +0.138 A 
ATOM      4  N   UNL     1       1.915  -4.283  -0.041  0.00  0.00    -0.216 N 
ATOM      5  N   UNL     1       2.327  -2.947  -0.016  0.00  0.00    -0.163 NA
ENDROOT
BRANCH   1  10
ATOM      6  C   UNL     1       0.085   1.400   0.059  0.00  0.00    +0.001 A 
ATOM      7  C   UNL     1       1.287   2.086   0.079  0.00  0.00    +0.003 A 
ATOM      8  C   UNL     1       2.484   1.395   0.072  0.00  0.00    +0.039 A 
ATOM      9  C   UNL     1       2.487   0.013   0.045  0.00  0.00    +0.133 A 
ATOM     10  C   UNL     1       1.277  -0.684   0.025  0.00  0.00    +0.039 A 
ATOM     11  C   UNL     1       0.074   0.021   0.032  0.00  0.00    +0.013 A 
ATOM     12  F   UNL     1       3.657  -0.662   0.037  0.00  0.00    -0.205 F 
ENDBRANCH   1  10
BRANCH   4  13
ATOM     13  C   UNL     1       2.771  -5.392  -0.055  0.00  0.00    +0.081 A 
ATOM     14  C   UNL     1       2.581  -6.406  -0.984  0.00  0.00    +0.029 A 
ATOM     15  C   UNL     1       3.426  -7.498  -0.995  0.00  0.00    +0.002 A 
ATOM     16  C   UNL     1       4.460  -7.584  -0.081  0.00  0.00    +0.001 A 
ATOM     17  C   UNL     1       4.652  -6.577   0.847  0.00  0.00    +0.017 A 
ATOM     18  C   UNL     1       3.814  -5.478   0.859  0.00  0.00    +0.043 A 
ATOM     19 BR   UNL     1       4.083  -4.096   2.121  0.00  0.00    -0.048 Br
ENDBRANCH   4  13
BRANCH   3  20
ATOM     20  N   UNL     1      -0.210  -5.486  -0.086  0.00  0.00    -0.342 N 
ATOM     21  H   UNL     1      -1.176  -5.423  -0.023  0.00  0.00    +0.144 HD
ATOM     22  H   UNL     1       0.215  -6.354  -0.170  0.00  0.00    +0.144 HD
ENDBRANCH   3  20
BRANCH   2  23
ATOM     23  C   UNL     1      -1.282  -2.612  -0.038  0.00  0.00    +0.105 C 
ATOM     24  N   UNL     1      -2.368  -2.280  -0.042  0.00  0.00    -0.191 NA
ENDBRANCH   2  23
TORSDOF 4
