REMARK  Name = ZINC16363390
REMARK  5 active torsions:
REMARK  status: ('A' for Active; 'I' for Inactive)
REMARK    1  A    between atoms: C_1  and  C_2
REMARK    2  A    between atoms: N_6  and  N_7
REMARK    3  A    between atoms: N_8  and  N_9
REMARK    4  A    between atoms: C_10  and  C_11
REMARK    5  A    between atoms: C_16  and  O_17
REMARK                            x       y       z     vdW  Elec       q    Type
REMARK                         _______ _______ _______ _____ _____    ______ ____
ROOT
ATOM      1  C   UNL     1      -2.375   3.713   0.555  0.00  0.00    +0.090 C 
ATOM      2  C   UNL     1      -1.569   3.407  -0.681  0.00  0.00    +0.149 A 
ATOM      3  N   UNL     1      -2.018   3.361  -1.904  0.00  0.00    -0.131 NA
ATOM      4  N   UNL     1      -1.062   3.072  -2.714  0.00  0.00    -0.110 NA
ATOM      5  C   UNL     1       0.058   2.923  -2.046  0.00  0.00    +0.254 A 
ATOM      6  N   UNL     1      -0.232   3.126  -0.727  0.00  0.00    -0.220 N 
ATOM      7  N   UNL     1       1.299   2.615  -2.578  0.00  0.00    -0.204 N 
ATOM      8  H   UNL     1       2.068   2.524  -1.994  0.00  0.00    +0.177 HD
ENDROOT
BRANCH   6   9
ATOM      9  N   UNL     1       0.635   3.067   0.327  0.00  0.00    -0.294 N 
ATOM     10  H   UNL     1       0.675   2.135   0.710  0.00  0.00    +0.163 HD
ATOM     11  H   UNL     1       1.553   3.388   0.058  0.00  0.00    +0.163 HD
ENDBRANCH   6   9
BRANCH   7  12
ATOM     12  N   UNL     1       1.444   2.434  -3.959  0.00  0.00    -0.187 NA
ATOM     13  C   UNL     1       2.581   2.040  -4.447  0.00  0.00    +0.142 C 
BRANCH  13  14
ATOM     14  C   UNL     1       3.635   1.539  -3.547  0.00  0.00    +0.037 A 
ATOM     15  C   UNL     1       3.297   0.981  -2.312  0.00  0.00    +0.028 A 
ATOM     16  C   UNL     1       4.288   0.509  -1.476  0.00  0.00    +0.019 A 
ATOM     17  C   UNL     1       5.619   0.597  -1.853  0.00  0.00    +0.019 A 
ATOM     18  C   UNL     1       5.965   1.152  -3.070  0.00  0.00    +0.047 A 
ATOM     19  C   UNL     1       4.982   1.625  -3.923  0.00  0.00    +0.126 A 
ATOM     20 BR   UNL     1       3.830  -0.253   0.193  0.00  0.00    -0.050 Br
BRANCH  19  21
ATOM     21  O   UNL     1       5.323   2.172  -5.119  0.00  0.00    -0.506 OA
ATOM     22  H   UNL     1       5.402   3.135  -5.103  0.00  0.00    +0.292 HD
ENDBRANCH  19  21
ENDBRANCH  13  14
ENDBRANCH   7  12
TORSDOF 4
