REMARK  Name = ZINC12031476
REMARK  5 active torsions:
REMARK  status: ('A' for Active; 'I' for Inactive)
REMARK    1  A    between atoms: C_1  and  C_2
REMARK    2  A    between atoms: C_9  and  C_22
REMARK    3  A    between atoms: N_12  and  C_13
REMARK    4  A    between atoms: C_22  and  N_64
REMARK    5  A    between atoms: C_25  and  N_66
REMARK                            x       y       z     vdW  Elec       q    Type
REMARK                         _______ _______ _______ _____ _____    ______ ____
ROOT
ATOM      1  C   UNL     1      -6.457   2.459   0.082  0.00  0.00    +0.046 C 
ATOM      2  C   UNL     1      -5.324   1.465   0.094  0.00  0.00    -0.024 A 
ATOM      3  C   UNL     1      -5.582   0.132   0.224  0.00  0.00    +0.005 A 
ATOM      4  C   UNL     1      -4.549  -0.800   0.238  0.00  0.00    +0.001 A 
ATOM      5  C   UNL     1      -3.248  -0.406   0.123  0.00  0.00    +0.013 A 
ATOM      6  C   UNL     1      -2.950   0.953  -0.018  0.00  0.00    +0.041 A 
ATOM      7  C   UNL     1      -3.999   1.904  -0.027  0.00  0.00    +0.079 A 
ATOM      8  N   UNL     1      -3.690   3.203  -0.157  0.00  0.00    -0.234 NA
ATOM      9  C   UNL     1      -2.439   3.582  -0.267  0.00  0.00    +0.115 A 
ATOM     10  N   UNL     1      -1.426   2.731  -0.259  0.00  0.00    -0.219 NA
ATOM     11  C   UNL     1      -1.619   1.424  -0.136  0.00  0.00    +0.134 A 
ATOM     12  N   UNL     1      -0.554   0.548  -0.129  0.00  0.00    -0.299 N 
ATOM     13  H   UNL     1      -0.703  -0.396   0.037  0.00  0.00    +0.154 HD
ENDROOT
BRANCH  12  14
ATOM     14  C   UNL     1       0.742   1.020  -0.368  0.00  0.00    +0.036 A 
ATOM     15  C   UNL     1       1.825   0.430   0.271  0.00  0.00    +0.027 A 
ATOM     16  C   UNL     1       3.105   0.892   0.033  0.00  0.00    +0.051 A 
ATOM     17  C   UNL     1       3.311   1.951  -0.837  0.00  0.00    +0.166 A 
ATOM     18  C   UNL     1       2.227   2.548  -1.476  0.00  0.00    +0.168 A 
ATOM     19  C   UNL     1       0.945   2.081  -1.240  0.00  0.00    +0.072 A 
ATOM     20  O   UNL     1       2.690   3.556  -2.271  0.00  0.00    -0.453 OA
ATOM     21  C   UNL     1       4.022   3.837  -1.801  0.00  0.00    +0.466 C 
ATOM     22  O   UNL     1       4.454   2.586  -1.233  0.00  0.00    -0.453 OA
ENDBRANCH  12  14
BRANCH   9  23
ATOM     23  C   UNL     1      -2.143   5.052  -0.411  0.00  0.00    -0.001 C 
BRANCH  23  29
ATOM     24  C   UNL     1      -3.289   4.835  -2.532  0.00  0.00    -0.080 C 
ATOM     25  C   UNL     1      -3.170   5.108  -4.033  0.00  0.00    -0.034 C 
ATOM     26  C   UNL     1      -3.112   6.619  -4.269  0.00  0.00    -0.072 C 
ATOM     27  C   UNL     1      -1.929   7.205  -3.493  0.00  0.00    -0.034 C 
ATOM     28  C   UNL     1      -2.084   6.871  -2.008  0.00  0.00    -0.080 C 
ATOM     29  N   UNL     1      -2.108   5.402  -1.846  0.00  0.00    +0.384 N 
ATOM     30  H   UNL     1      -1.258   5.007  -2.265  0.00  0.00    -0.081 HD
BRANCH  26  36
ATOM     31  C   UNL     1      -4.188   6.656  -6.434  0.00  0.00    -0.068 C 
ATOM     32  C   UNL     1      -4.130   7.359  -7.795  0.00  0.00    +0.050 C 
ATOM     33  S   UNL     1      -2.755   6.646  -8.750  0.00  0.00    -0.164 S 
ATOM     34  C   UNL     1      -1.365   6.733  -7.578  0.00  0.00    +0.050 C 
ATOM     35  C   UNL     1      -1.817   6.119  -6.248  0.00  0.00    -0.068 C 
ATOM     36  N   UNL     1      -2.932   6.926  -5.699  0.00  0.00    +0.383 N 
ATOM     37  H   UNL     1      -2.699   7.921  -5.799  0.00  0.00    -0.081 HD
ENDBRANCH  26  36
ENDBRANCH  23  29
ENDBRANCH   9  23
TORSDOF 4
