REMARK  Name = ZINC36398771
REMARK  7 active torsions:
REMARK  status: ('A' for Active; 'I' for Inactive)
REMARK    1  A    between atoms: C_4  and  O_28
REMARK    2  A    between atoms: C_5  and  C_7
REMARK    3  A    between atoms: C_9  and  C_21
REMARK    4  A    between atoms: C_11  and  C_16
REMARK    5  A    between atoms: C_11  and  O_20
REMARK    6  A    between atoms: C_21  and  C_23
REMARK    7  A    between atoms: O_28  and  C_29
REMARK                            x       y       z     vdW  Elec       q    Type
REMARK                         _______ _______ _______ _____ _____    ______ ____
ROOT
ATOM      1  C   UNL     1       1.153  -2.046  -0.087  0.00  0.00    +0.123 C 
ATOM      2  C   UNL     1       1.342  -2.689  -1.465  0.00  0.00    +0.145 C 
ATOM      3  C   UNL     1       1.310  -4.212  -1.301  0.00  0.00    +0.243 C 
ATOM      4  N   UNL     1       0.065  -4.598  -0.635  0.00  0.00    -0.264 N 
ATOM      5  C   UNL     1      -0.553  -3.771   0.222  0.00  0.00    +0.302 C 
ATOM      6  O   UNL     1      -1.579  -4.145   0.756  0.00  0.00    -0.253 OA
ATOM      7  N   UNL     1      -0.083  -2.549   0.515  0.00  0.00    -0.292 N 
ATOM      8  H   UNL     1      -0.321  -5.469  -0.817  0.00  0.00    +0.153 HD
ATOM      9  H   UNL     1      -0.572  -1.987   1.136  0.00  0.00    +0.151 HD
ENDROOT
BRANCH   1  14
ATOM     10  C   UNL     1       2.052   1.620   0.006  0.00  0.00    +0.001 A 
ATOM     11  C   UNL     1       0.909   2.201  -0.513  0.00  0.00    +0.004 A 
ATOM     12  C   UNL     1      -0.157   1.411  -0.895  0.00  0.00    +0.046 A 
ATOM     13  C   UNL     1      -0.080   0.032  -0.758  0.00  0.00    +0.132 A 
ATOM     14  C   UNL     1       1.067  -0.549  -0.237  0.00  0.00    +0.015 A 
ATOM     15  C   UNL     1       2.131   0.247   0.144  0.00  0.00    +0.009 A 
BRANCH  13  16
ATOM     16  O   UNL     1      -1.128  -0.749  -1.133  0.00  0.00    -0.434 OA
BRANCH  16  17
ATOM     17  C   UNL     1      -2.277  -0.082  -1.660  0.00  0.00    +0.541 C 
ATOM     18  F   UNL     1      -2.788   0.797  -0.699  0.00  0.00    -0.166 F 
ATOM     19  F   UNL     1      -1.915   0.636  -2.804  0.00  0.00    -0.166 F 
ENDBRANCH  16  17
ENDBRANCH  13  16
ENDBRANCH   1  14
BRANCH   3  20
ATOM     20  C   UNL     1       1.381  -4.877  -2.677  0.00  0.00    +0.436 C 
ATOM     21  F   UNL     1       2.568  -4.501  -3.316  0.00  0.00    -0.166 F 
ATOM     22  F   UNL     1       1.352  -6.267  -2.526  0.00  0.00    -0.166 F 
ATOM     23  F   UNL     1       0.287  -4.469  -3.448  0.00  0.00    -0.166 F 
ENDBRANCH   3  20
BRANCH   3  24
ATOM     24  O   UNL     1       2.425  -4.630  -0.509  0.00  0.00    -0.364 OA
ATOM     25  H   UNL     1       2.468  -5.585  -0.364  0.00  0.00    +0.212 HD
ENDBRANCH   3  24
BRANCH   2  26
ATOM     26  C   UNL     1       2.667  -2.266  -2.044  0.00  0.00    +0.179 C 
ATOM     27  O   UNL     1       3.653  -2.221  -1.336  0.00  0.00    -0.291 OA
BRANCH  26  28
ATOM     28  C   UNL     1       2.763  -1.921  -3.410  0.00  0.00    +0.055 A 
ATOM     29  C   UNL     1       3.878  -1.514  -4.137  0.00  0.00    +0.019 A 
ATOM     30  C   UNL     1       3.658  -1.245  -5.463  0.00  0.00    +0.008 A 
ATOM     31  C   UNL     1       2.405  -1.389  -5.968  0.00  0.00    +0.046 A 
ATOM     32  S   UNL     1       1.488  -1.901  -4.657  0.00  0.00    -0.094 S 
ENDBRANCH  26  28
ENDBRANCH   2  26
TORSDOF 7
