REMARK  Name = ZINC55078990
REMARK  6 active torsions:
REMARK  status: ('A' for Active; 'I' for Inactive)
REMARK    1  A    between atoms: C_1  and  C_2
REMARK    2  A    between atoms: C_7  and  N_8
REMARK    3  A    between atoms: C_9  and  C_11
REMARK    4  A    between atoms: C_11  and  N_12
REMARK    5  A    between atoms: N_15  and  C_16
REMARK    6  A    between atoms: C_16  and  C_17
REMARK                            x       y       z     vdW  Elec       q    Type
REMARK                         _______ _______ _______ _____ _____    ______ ____
ROOT
ATOM      1  N   UNL     1      -0.240  -0.903   5.989  0.00  0.00    -0.291 N 
ATOM      2  C   UNL     1      -0.345  -0.460   7.257  0.00  0.00    +0.300 C 
ATOM      3  O   UNL     1      -0.377   0.734   7.484  0.00  0.00    -0.253 OA
ATOM      4  N   UNL     1      -0.412  -1.341   8.275  0.00  0.00    -0.292 N 
ATOM      5  H   UNL     1      -0.214  -1.856   5.809  0.00  0.00    +0.151 HD
ATOM      6  H   UNL     1      -0.386  -2.294   8.095  0.00  0.00    +0.151 HD
ENDROOT
BRANCH   1   7
ATOM      7  C   UNL     1      -0.167   0.054   4.882  0.00  0.00    +0.202 C 
BRANCH   7   9
ATOM      8  N   UNL     1       0.026  -0.014   2.417  0.00  0.00    -0.284 N 
ATOM      9  C   UNL     1      -0.056  -0.694   3.578  0.00  0.00    +0.234 C 
ATOM     10  O   UNL     1      -0.040  -1.906   3.574  0.00  0.00    -0.274 OA
ATOM     11  H   UNL     1       0.079   0.955   2.425  0.00  0.00    +0.155 HD
BRANCH   8  18
ATOM     12  C   UNL     1      -1.265   1.183   0.182  0.00  0.00    +0.046 C 
ATOM     13  C   UNL     1      -0.584  -0.158   0.085  0.00  0.00    -0.028 A 
ATOM     14  C   UNL     1      -0.570  -0.840  -1.116  0.00  0.00    +0.020 A 
ATOM     15  C   UNL     1       0.055  -2.071  -1.206  0.00  0.00    +0.018 A 
ATOM     16  C   UNL     1       0.666  -2.623  -0.094  0.00  0.00    +0.017 A 
ATOM     17  C   UNL     1       0.655  -1.945   1.109  0.00  0.00    +0.024 A 
ATOM     18  C   UNL     1       0.034  -0.706   1.201  0.00  0.00    +0.036 A 
ATOM     19 BR   UNL     1       0.072  -3.002  -2.852  0.00  0.00    -0.050 Br
ENDBRANCH   8  18
ENDBRANCH   7   9
ENDBRANCH   1   7
BRANCH   4  20
ATOM     20  C   UNL     1      -0.526  -0.859   9.654  0.00  0.00    +0.182 C 
BRANCH  20  21
ATOM     21  C   UNL     1      -0.584  -2.036  10.594  0.00  0.00    +0.151 A 
ATOM     22  N   UNL     1      -1.661  -2.657  10.991  0.00  0.00    -0.133 NA
ATOM     23  N   UNL     1      -1.340  -3.612  11.790  0.00  0.00    -0.134 NA
ATOM     24  C   UNL     1      -0.042  -3.642  11.940  0.00  0.00    +0.134 A 
ATOM     25  N   UNL     1       0.474  -2.650  11.180  0.00  0.00    -0.313 N 
ATOM     26  C   UNL     1       1.938  -2.616  11.277  0.00  0.00    +0.125 C 
ATOM     27  C   UNL     1       2.290  -3.442  12.533  0.00  0.00    +0.029 C 
ATOM     28  C   UNL     1       1.072  -4.382  12.648  0.00  0.00    +0.078 C 
ENDBRANCH  20  21
ENDBRANCH   4  20
TORSDOF 5
