REMARK  Name = ZINC49468970
REMARK  6 active torsions:
REMARK  status: ('A' for Active; 'I' for Inactive)
REMARK    1  A    between atoms: C_1  and  C_2
REMARK    2  A    between atoms: C_2  and  C_3
REMARK    3  A    between atoms: C_2  and  N_4
REMARK    4  A    between atoms: N_7  and  N_8
REMARK    5  A    between atoms: C_9  and  C_11
REMARK    6  A    between atoms: C_11  and  C_12
REMARK                            x       y       z     vdW  Elec       q    Type
REMARK                         _______ _______ _______ _____ _____    ______ ____
ROOT
ATOM      1  N   UNL     1      -3.940  -1.414   0.052  0.00  0.00    -0.233 N 
ATOM      2  C   UNL     1      -5.205  -1.881   0.061  0.00  0.00    +0.233 C 
ATOM      3  O   UNL     1      -5.449  -2.981  -0.386  0.00  0.00    -0.274 OA
ATOM      4  H   UNL     1      -3.745  -0.534   0.409  0.00  0.00    +0.173 HD
ENDROOT
BRANCH   1   8
ATOM      5  N   UNL     1      -1.372  -0.511   0.012  0.00  0.00    -0.296 N 
ATOM      6  C   UNL     1      -1.643  -1.734  -0.485  0.00  0.00    +0.316 C 
ATOM      7  O   UNL     1      -0.747  -2.417  -0.942  0.00  0.00    -0.251 OA
ATOM      8  N   UNL     1      -2.908  -2.201  -0.475  0.00  0.00    -0.218 N 
ATOM      9  H   UNL     1      -2.087   0.033   0.377  0.00  0.00    +0.151 HD
ATOM     10  H   UNL     1      -3.103  -3.081  -0.833  0.00  0.00    +0.174 HD
BRANCH   5  12
ATOM     11  C   UNL     1      -0.019   1.526   0.010  0.00  0.00    +0.027 C 
ATOM     12  C   UNL     1       0.002  -0.004   0.002  0.00  0.00    +0.068 C 
ATOM     13  C   UNL     1       0.742  -0.511   1.242  0.00  0.00    +0.027 C 
ENDBRANCH   5  12
ENDBRANCH   1   8
BRANCH   2  14
ATOM     14  C   UNL     1      -6.316  -1.035   0.628  0.00  0.00    +0.132 C 
BRANCH  14  15
ATOM     15  C   UNL     1      -7.620  -1.781   0.520  0.00  0.00    -0.039 A 
ATOM     16  C   UNL     1      -8.402  -1.647  -0.613  0.00  0.00    +0.005 A 
ATOM     17  C   UNL     1      -9.598  -2.332  -0.713  0.00  0.00    +0.015 A 
ATOM     18  C   UNL     1     -10.014  -3.151   0.322  0.00  0.00    +0.018 A 
ATOM     19  C   UNL     1      -9.232  -3.285   1.455  0.00  0.00    +0.015 A 
ATOM     20  C   UNL     1      -8.033  -2.604   1.551  0.00  0.00    +0.005 A 
ATOM     21 BR   UNL     1     -11.651  -4.088   0.186  0.00  0.00    -0.050 Br
ENDBRANCH  14  15
ENDBRANCH   2  14
TORSDOF 4
