REMARK  Name = ZINC49117681
REMARK  8 active torsions:
REMARK  status: ('A' for Active; 'I' for Inactive)
REMARK    1  A    between atoms: C_1  and  C_2
REMARK    2  A    between atoms: C_2  and  C_3
REMARK    3  A    between atoms: C_9  and  N_11
REMARK    4  A    between atoms: N_11  and  S_12
REMARK    5  A    between atoms: S_12  and  C_15
REMARK    6  A    between atoms: C_17  and  C_23
REMARK    7  A    between atoms: C_18  and  C_22
REMARK    8  A    between atoms: C_19  and  N_21
REMARK                            x       y       z     vdW  Elec       q    Type
REMARK                         _______ _______ _______ _____ _____    ______ ____
ROOT
ATOM      1  S   UNL     1       1.253  -3.798   0.793  0.00  0.00    +0.059 S 
ATOM      2  O   UNL     1       2.184  -3.904   1.861  0.00  0.00    -0.153 OA
ATOM      3  O   UNL     1      -0.152  -3.783   1.007  0.00  0.00    -0.153 OA
ENDROOT
BRANCH   1   4
ATOM      4  C   UNL     1       1.582  -5.142  -0.297  0.00  0.00    +0.107 A 
ATOM      5  C   UNL     1       0.589  -5.607  -1.140  0.00  0.00    +0.032 A 
ATOM      6  C   UNL     1       0.843  -6.662  -1.997  0.00  0.00    -0.044 A 
ATOM      7  C   UNL     1       2.091  -7.255  -2.015  0.00  0.00    -0.027 A 
ATOM      8  C   UNL     1       3.090  -6.790  -1.170  0.00  0.00    +0.030 A 
ATOM      9  C   UNL     1       2.833  -5.726  -0.314  0.00  0.00    +0.051 A 
ATOM     10  C   UNL     1       2.366  -8.404  -2.949  0.00  0.00    +0.046 C 
ATOM     11  C   UNL     1      -0.243  -7.166  -2.913  0.00  0.00    +0.044 C 
BRANCH   8  12
ATOM     12  N   UNL     1       4.353  -7.386  -1.186  0.00  0.00    -0.358 N 
ATOM     13  H   UNL     1       4.532  -8.126  -1.787  0.00  0.00    +0.142 HD
ATOM     14  H   UNL     1       5.051  -7.061  -0.595  0.00  0.00    +0.142 HD
ENDBRANCH   8  12
ENDBRANCH   1   4
BRANCH   1  15
ATOM     15  N   UNL     1       1.622  -2.405  -0.021  0.00  0.00    -0.187 NA
ATOM     16  H   UNL     1       2.351  -1.842   0.285  0.00  0.00    +0.148 HD
BRANCH  15  22
ATOM     17  C   UNL     1       0.718  -0.497  -1.257  0.00  0.00    +0.007 C 
ATOM     18  C   UNL     1      -0.089  -0.097  -2.493  0.00  0.00    +0.005 C 
ATOM     19  C   UNL     1       0.627  -0.590  -3.752  0.00  0.00    +0.000 C 
ATOM     20  C   UNL     1       0.758  -2.114  -3.700  0.00  0.00    +0.002 C 
ATOM     21  C   UNL     1       1.565  -2.514  -2.464  0.00  0.00    +0.020 C 
ATOM     22  C   UNL     1       0.849  -2.021  -1.205  0.00  0.00    +0.080 C 
BRANCH  17  24
ATOM     23  C   UNL     1      -0.019   1.526   0.010  0.00  0.00    +0.004 C 
ATOM     24  C   UNL     1       0.002  -0.004   0.002  0.00  0.00    +0.002 C 
ENDBRANCH  17  24
ENDBRANCH  15  22
ENDBRANCH   1  15
TORSDOF 5
