REMARK  Name = ZINC39973096
REMARK  8 active torsions:
REMARK  status: ('A' for Active; 'I' for Inactive)
REMARK    1  A    between atoms: C_1  and  C_2
REMARK    2  A    between atoms: C_6  and  C_12
REMARK    3  A    between atoms: C_10  and  C_11
REMARK    4  A    between atoms: C_12  and  C_33
REMARK    5  A    between atoms: C_13  and  C_14
REMARK    6  A    between atoms: N_16  and  C_23
REMARK    7  A    between atoms: C_23  and  C_24
REMARK    8  A    between atoms: C_27  and  N_30
REMARK                            x       y       z     vdW  Elec       q    Type
REMARK                         _______ _______ _______ _____ _____    ______ ____
ROOT
ATOM      1  C   UNL     1       0.304  -6.674  -3.071  0.00  0.00    +0.001 A 
ATOM      2  C   UNL     1       1.501  -6.206  -2.610  0.00  0.00    +0.095 A 
ATOM      3  N   UNL     1       2.515  -6.931  -3.149  0.00  0.00    -0.342 N 
ATOM      4  C   UNL     1       2.015  -7.906  -3.988  0.00  0.00    +0.050 A 
ATOM      5  C   UNL     1       0.615  -7.798  -3.974  0.00  0.00    +0.007 A 
ATOM      6  C   UNL     1      -0.160  -8.669  -4.735  0.00  0.00    +0.010 A 
ATOM      7  C   UNL     1       0.453  -9.640  -5.496  0.00  0.00    +0.001 A 
ATOM      8  C   UNL     1       1.836  -9.752  -5.507  0.00  0.00    +0.002 A 
ATOM      9  C   UNL     1       2.615  -8.890  -4.767  0.00  0.00    +0.026 A 
ENDROOT
BRANCH   1  11
ATOM     10  C   UNL     1      -1.280  -5.718  -1.478  0.00  0.00    +0.072 C 
ATOM     11  C   UNL     1      -1.027  -6.165  -2.730  0.00  0.00    +0.028 C 
BRANCH  10  17
ATOM     12  C   UNL     1       0.255  -2.260   4.397  0.00  0.00    +0.044 C 
ATOM     13  C   UNL     1      -0.065  -3.395   3.460  0.00  0.00    -0.045 A 
ATOM     14  C   UNL     1       0.350  -3.314   2.180  0.00  0.00    +0.031 A 
ATOM     15  C   UNL     1       0.048  -4.411   1.249  0.00  0.00    +0.061 A 
ATOM     16  N   UNL     1       0.316  -4.601  -0.011  0.00  0.00    -0.359 N 
ATOM     17  C   UNL     1      -0.253  -5.901  -0.390  0.00  0.00    +0.216 C 
ATOM     18  N   UNL     1      -0.888  -6.443   0.817  0.00  0.00    -0.359 N 
ATOM     19  C   UNL     1      -0.714  -5.577   1.773  0.00  0.00    +0.061 A 
ATOM     20  C   UNL     1      -1.114  -5.555   3.187  0.00  0.00    +0.031 A 
ATOM     21  C   UNL     1      -0.781  -4.500   3.956  0.00  0.00    -0.045 A 
ATOM     22  C   UNL     1      -1.196  -4.500   5.405  0.00  0.00    +0.044 C 
ATOM     23  H   UNL     1       0.801  -3.995  -0.592  0.00  0.00    +0.162 HD
ATOM     24  H   UNL     1      -1.352  -7.292   0.889  0.00  0.00    +0.162 HD
ENDBRANCH  10  17
BRANCH  10  25
ATOM     25  C   UNL     1      -2.524  -5.072  -1.186  0.00  0.00    +0.099 C 
ATOM     26  N   UNL     1      -3.511  -4.559  -0.955  0.00  0.00    -0.191 NA
ENDBRANCH  10  25
ENDBRANCH   1  11
BRANCH   3  27
ATOM     27  C   UNL     1       3.937  -6.710  -2.879  0.00  0.00    +0.157 C 
BRANCH  27  28
ATOM     28  C   UNL     1       4.521  -5.825  -3.950  0.00  0.00    -0.028 A 
ATOM     29  C   UNL     1       5.057  -6.386  -5.094  0.00  0.00    +0.007 A 
ATOM     30  C   UNL     1       5.592  -5.574  -6.077  0.00  0.00    +0.033 A 
ATOM     31  C   UNL     1       5.590  -4.201  -5.916  0.00  0.00    +0.126 A 
ATOM     32  C   UNL     1       5.053  -3.640  -4.772  0.00  0.00    +0.033 A 
ATOM     33  C   UNL     1       4.514  -4.452  -3.791  0.00  0.00    +0.007 A 
BRANCH  31  34
ATOM     34  N   UNL     1       6.163  -3.332  -6.967  0.00  0.00    +0.056 N 
ATOM     35  O   UNL     1       6.634  -3.823  -7.967  0.00  0.00    -0.126 OA
ATOM     36  O   UNL     1       6.162  -2.131  -6.827  0.00  0.00    -0.126 OA
ENDBRANCH  31  34
ENDBRANCH  27  28
ENDBRANCH   3  27
TORSDOF 6
