REMARK  Name = ZINC14814462
REMARK  6 active torsions:
REMARK  status: ('A' for Active; 'I' for Inactive)
REMARK    1  A    between atoms: C_1  and  C_2
REMARK    2  A    between atoms: C_4  and  N_9
REMARK    3  A    between atoms: C_10  and  C_12
REMARK    4  A    between atoms: C_14  and  C_23
REMARK    5  A    between atoms: C_18  and  C_22
REMARK    6  A    between atoms: N_20  and  C_21
REMARK                            x       y       z     vdW  Elec       q    Type
REMARK                         _______ _______ _______ _____ _____    ______ ____
ROOT
ATOM      1  C   UNL     1      -0.204   1.434   0.051  0.00  0.00    +0.052 A 
ATOM      2  C   UNL     1      -1.363   2.151  -0.218  0.00  0.00    +0.045 A 
ATOM      3  C   UNL     1      -1.332   3.550  -0.154  0.00  0.00    +0.109 A 
ATOM      4  N   UNL     1      -0.218   4.202   0.146  0.00  0.00    -0.224 NA
ATOM      5  C   UNL     1       0.915   3.568   0.406  0.00  0.00    +0.160 A 
ATOM      6  C   UNL     1       0.968   2.160   0.369  0.00  0.00    +0.054 A 
ATOM      7  C   UNL     1       2.291   1.786   0.685  0.00  0.00    +0.070 A 
ATOM      8  N   UNL     1       2.988   2.865   0.898  0.00  0.00    -0.174 NA
ATOM      9  N   UNL     1       2.176   3.994   0.736  0.00  0.00    -0.249 N 
ATOM     10  C   UNL     1       2.600   5.387   0.891  0.00  0.00    +0.174 C 
ATOM     11  C   UNL     1       2.809   0.373   0.765  0.00  0.00    +0.068 C 
ENDROOT
BRANCH   3  12
ATOM     12  C   UNL     1      -2.564   4.314  -0.432  0.00  0.00    +0.153 A 
ATOM     13  C   UNL     1      -2.687   5.669  -0.409  0.00  0.00    +0.051 A 
ATOM     14  C   UNL     1      -4.024   5.961  -0.737  0.00  0.00    +0.042 A 
ATOM     15  C   UNL     1      -4.649   4.782  -0.933  0.00  0.00    +0.196 A 
ATOM     16  O   UNL     1      -3.764   3.790  -0.749  0.00  0.00    -0.461 OA
ENDBRANCH   3  12
BRANCH   1  18
ATOM     17  N   UNL     1      -1.261  -0.740   0.442  0.00  0.00    -0.281 N 
ATOM     18  C   UNL     1      -0.194  -0.044   0.001  0.00  0.00    +0.249 C 
ATOM     19  O   UNL     1       0.775  -0.631  -0.438  0.00  0.00    -0.270 OA
ATOM     20  H   UNL     1      -2.060  -0.272   0.731  0.00  0.00    +0.155 HD
BRANCH  17  24
ATOM     21  C   UNL     1      -2.493  -4.949   2.662  0.00  0.00    +0.045 C 
ATOM     22  C   UNL     1      -1.804  -4.204   1.549  0.00  0.00    -0.035 A 
ATOM     23  C   UNL     1      -1.851  -2.824   1.510  0.00  0.00    +0.027 A 
ATOM     24  C   UNL     1      -1.215  -2.137   0.484  0.00  0.00    +0.034 A 
ATOM     25  C   UNL     1      -0.538  -2.841  -0.504  0.00  0.00    +0.024 A 
ATOM     26  C   UNL     1      -0.490  -4.221  -0.457  0.00  0.00    +0.017 A 
ATOM     27  C   UNL     1      -1.124  -4.902   0.567  0.00  0.00    +0.021 A 
ATOM     28 BR   UNL     1      -1.061  -6.791   0.624  0.00  0.00    -0.050 Br
ENDBRANCH  17  24
ENDBRANCH   1  18
TORSDOF 3
