REMARK  Name = ZINC08704602
REMARK  4 active torsions:
REMARK  status: ('A' for Active; 'I' for Inactive)
REMARK    1  A    between atoms: C_2  and  C_3
REMARK    2  A    between atoms: C_3  and  O_4
REMARK    3  A    between atoms: O_4  and  C_5
REMARK    4  A    between atoms: C_8  and  C_11
REMARK                            x       y       z     vdW  Elec       q    Type
REMARK                         _______ _______ _______ _____ _____    ______ ____
ROOT
ATOM      1  C   UNL     1      -1.258  -2.022   0.636  0.00  0.00    +0.209 C 
ATOM      2  N   UNL     1      -1.183  -0.691   0.015  0.00  0.00    -0.293 N 
ATOM      3  C   UNL     1       0.002  -0.004   0.002  0.00  0.00    +0.183 C 
ATOM      4  N   UNL     1       1.163  -0.635  -0.013  0.00  0.00    -0.183 NA
ATOM      5  C   UNL     1       1.164  -1.986   0.054  0.00  0.00    +0.236 A 
ATOM      6  N   UNL     1       0.013  -2.698   0.350  0.00  0.00    -0.285 N 
ATOM      7  C   UNL     1       0.331  -4.022   0.319  0.00  0.00    +0.072 A 
ATOM      8  C   UNL     1      -0.412  -5.179   0.521  0.00  0.00    +0.028 A 
ATOM      9  C   UNL     1       0.257  -6.388   0.412  0.00  0.00    +0.002 A 
ATOM     10  C   UNL     1       1.607  -6.455   0.114  0.00  0.00    +0.002 A 
ATOM     11  C   UNL     1       2.369  -5.319  -0.093  0.00  0.00    +0.030 A 
ATOM     12  C   UNL     1       1.715  -4.086   0.012  0.00  0.00    +0.091 A 
ATOM     13  N   UNL     1       2.158  -2.822  -0.133  0.00  0.00    -0.210 NA
ATOM     14  N   UNL     1      -0.017   1.364   0.009  0.00  0.00    -0.331 N 
ATOM     15  H   UNL     1      -1.974  -0.300  -0.388  0.00  0.00    +0.151 HD
ATOM     16  H   UNL     1       0.817   1.861   0.004  0.00  0.00    +0.145 HD
ATOM     17  H   UNL     1      -0.863   1.838   0.016  0.00  0.00    +0.145 HD
ENDROOT
BRANCH   1  21
ATOM     18  C   UNL     1      -1.783  -1.627   4.859  0.00  0.00    +0.121 A 
ATOM     19  C   UNL     1      -2.430  -2.643   4.170  0.00  0.00    +0.046 A 
ATOM     20  C   UNL     1      -2.259  -2.768   2.805  0.00  0.00    +0.011 A 
ATOM     21  C   UNL     1      -1.444  -1.883   2.126  0.00  0.00    -0.007 A 
ATOM     22  C   UNL     1      -0.793  -0.873   2.811  0.00  0.00    +0.011 A 
ATOM     23  C   UNL     1      -0.965  -0.740   4.175  0.00  0.00    +0.046 A 
BRANCH  18  24
ATOM     24  O   UNL     1      -1.949  -1.502   6.202  0.00  0.00    -0.488 OA
BRANCH  24  25
ATOM     25  C   UNL     1      -1.252  -0.434   6.846  0.00  0.00    +0.256 C 
BRANCH  25  27
ATOM     26  C   UNL     1      -0.587  -0.305   9.191  0.00  0.00    +0.007 C 
ATOM     27  C   UNL     1      -1.555  -0.453   8.322  0.00  0.00    +0.006 C 
ENDBRANCH  25  27
ENDBRANCH  24  25
ENDBRANCH  18  24
ENDBRANCH   1  21
TORSDOF 4
