REMARK  Name = ZINC48837533
REMARK  4 active torsions:
REMARK  status: ('A' for Active; 'I' for Inactive)
REMARK    1  A    between atoms: C_1  and  O_2
REMARK    2  A    between atoms: O_2  and  C_3
REMARK    3  A    between atoms: C_6  and  C_20
REMARK    4  A    between atoms: C_16  and  N_19
REMARK                            x       y       z     vdW  Elec       q    Type
REMARK                         _______ _______ _______ _____ _____    ______ ____
ROOT
ATOM      1  C   UNL     1      -1.046  -2.382   0.388  0.00  0.00    +0.137 C 
ATOM      2  C   UNL     1      -0.865  -0.945  -0.166  0.00  0.00    +0.067 C 
ATOM      3  C   UNL     1      -1.767  -0.941  -1.418  0.00  0.00    +0.193 C 
ATOM      4  N   UNL     1      -2.761  -2.010  -1.244  0.00  0.00    -0.269 N 
ATOM      5  C   UNL     1      -2.535  -2.658   0.062  0.00  0.00    +0.141 C 
ATOM      6  C   UNL     1      -3.720  -2.343  -2.129  0.00  0.00    +0.305 C 
ATOM      7  O   UNL     1      -4.382  -3.349  -1.959  0.00  0.00    -0.252 OA
ATOM      8  N   UNL     1      -3.947  -1.562  -3.204  0.00  0.00    -0.287 N 
ATOM      9  C   UNL     1      -5.089  -1.821  -4.091  0.00  0.00    +0.109 C 
ATOM     10  C   UNL     1      -5.910  -0.534  -4.226  0.00  0.00    +0.017 C 
ATOM     11  C   UNL     1      -4.997   0.602  -4.692  0.00  0.00    -0.013 C 
ATOM     12  C   UNL     1      -3.899   0.836  -3.652  0.00  0.00    -0.057 C 
ATOM     13  C   UNL     1      -3.059  -0.431  -3.507  0.00  0.00    +0.093 C 
ENDROOT
BRANCH  12  14
ATOM     14  N   UNL     1      -3.043   1.949  -4.085  0.00  0.00    +0.381 N 
ATOM     15  H   UNL     1      -3.600   2.785  -4.180  0.00  0.00    -0.090 HD
ATOM     16  H   UNL     1      -2.320   2.103  -3.399  0.00  0.00    -0.090 HD
ATOM     17  H   UNL     1      -2.621   1.722  -4.973  0.00  0.00    -0.090 HD
ENDBRANCH  12  14
BRANCH   3  18
ATOM     18  C   UNL     1      -0.938  -1.204  -2.649  0.00  0.00    +0.376 C 
ATOM     19  O   UNL     1      -1.050  -2.261  -3.245  0.00  0.00    -0.244 OA
ATOM     20  O   UNL     1      -0.154  -0.359  -3.048  0.00  0.00    -0.244 OA
ENDBRANCH   3  18
BRANCH   1  22
ATOM     21  C   UNL     1      -0.367  -3.690   2.278  0.00  0.00    +0.194 C 
ATOM     22  O   UNL     1      -0.814  -2.421   1.797  0.00  0.00    -0.378 OA
ENDBRANCH   1  22
TORSDOF 3
