REMARK  Name = ZINC13567733
REMARK  6 active torsions:
REMARK  status: ('A' for Active; 'I' for Inactive)
REMARK    1  A    between atoms: C_1  and  C_2
REMARK    2  A    between atoms: C_7  and  N_8
REMARK    3  A    between atoms: N_23  and  C_26
REMARK    4  A    between atoms: C_26  and  C_27
REMARK    5  A    between atoms: C_29  and  C_32
REMARK    6  A    between atoms: C_30  and  N_31
REMARK                            x       y       z     vdW  Elec       q    Type
REMARK                         _______ _______ _______ _____ _____    ______ ____
ROOT
ATOM      1  N   UNL     1       1.918  -3.232   0.330  0.00  0.00    -0.260 N 
ATOM      2  C   UNL     1       1.776  -2.356  -0.714  0.00  0.00    +0.025 C 
ATOM      3  C   UNL     1       1.605  -1.036  -0.484  0.00  0.00    +0.037 C 
ATOM      4  C   UNL     1       1.459  -0.128  -1.548  0.00  0.00    +0.162 C 
ATOM      5  O   UNL     1       1.323   1.055  -1.308  0.00  0.00    -0.292 OA
ATOM      6  C   UNL     1       1.468  -0.596  -2.978  0.00  0.00    +0.080 C 
ATOM      7  C   UNL     1       0.948  -2.036  -3.034  0.00  0.00    +0.014 C 
ATOM      8  C   UNL     1       1.818  -2.901  -2.120  0.00  0.00    +0.052 C 
ATOM      9  C   UNL     1       1.565  -0.498   0.922  0.00  0.00    +0.141 C 
ATOM     10  C   UNL     1       0.164  -0.127   1.303  0.00  0.00    -0.001 A 
ATOM     11  C   UNL     1      -0.980  -0.888   1.421  0.00  0.00    +0.007 A 
ATOM     12  C   UNL     1      -2.141  -0.225   1.802  0.00  0.00    +0.000 A 
ATOM     13  C   UNL     1      -2.145   1.132   2.051  0.00  0.00    +0.002 A 
ATOM     14  C   UNL     1      -0.998   1.903   1.938  0.00  0.00    +0.024 A 
ATOM     15  C   UNL     1       0.173   1.250   1.551  0.00  0.00    +0.041 A 
ATOM     16  N   UNL     1       1.443   1.764   1.359  0.00  0.00    -0.266 N 
ATOM     17  C   UNL     1       2.324   0.813   0.987  0.00  0.00    +0.240 C 
ATOM     18  O   UNL     1       3.502   0.975   0.749  0.00  0.00    -0.274 OA
ATOM     19  C   UNL     1       2.144  -1.473   1.903  0.00  0.00    +0.089 C 
ATOM     20  C   UNL     1       2.294  -2.784   1.577  0.00  0.00    +0.108 C 
ENDROOT
BRANCH   1  27
ATOM     21  C   UNL     1       4.131  -4.899  -0.321  0.00  0.00    +0.045 C 
ATOM     22  C   UNL     1       2.732  -5.445  -0.193  0.00  0.00    -0.029 A 
ATOM     23  C   UNL     1       2.496  -6.792  -0.388  0.00  0.00    +0.006 A 
ATOM     24  C   UNL     1       1.213  -7.294  -0.275  0.00  0.00    +0.020 A 
ATOM     25  C   UNL     1       0.161  -6.450   0.038  0.00  0.00    +0.043 A 
ATOM     26  C   UNL     1       0.392  -5.102   0.239  0.00  0.00    +0.044 A 
ATOM     27  C   UNL     1       1.681  -4.596   0.127  0.00  0.00    +0.044 A 
ATOM     28 CL   UNL     1      -1.448  -7.084   0.178  0.00  0.00    -0.083 Cl
ENDBRANCH   1  27
BRANCH  20  29
ATOM     29  N   UNL     1       2.820  -3.663   2.492  0.00  0.00    -0.345 N 
ATOM     30  H   UNL     1       2.927  -4.599   2.260  0.00  0.00    +0.144 HD
ATOM     31  H   UNL     1       3.085  -3.348   3.371  0.00  0.00    +0.144 HD
ENDBRANCH  20  29
BRANCH  19  32
ATOM     32  C   UNL     1       2.545  -1.017   3.199  0.00  0.00    +0.100 C 
ATOM     33  N   UNL     1       2.864  -0.655   4.228  0.00  0.00    -0.191 NA
ENDBRANCH  19  32
BRANCH  16  34
ATOM     34  C   UNL     1       1.790   3.176   1.538  0.00  0.00    +0.140 C 
BRANCH  34  35
ATOM     35  C   UNL     1       2.217   3.412   2.964  0.00  0.00    -0.015 C 
ATOM     36  C   UNL     1       3.381   3.956   3.218  0.00  0.00    +0.005 C 
ENDBRANCH  34  35
ENDBRANCH  16  34
TORSDOF 5
