REMARK  Name = ZINC19386113
REMARK  3 active torsions:
REMARK  status: ('A' for Active; 'I' for Inactive)
REMARK    1  A    between atoms: C_5  and  N_7
REMARK    2  A    between atoms: N_10  and  C_13
REMARK    3  A    between atoms: C_13  and  C_14
REMARK                            x       y       z     vdW  Elec       q    Type
REMARK                         _______ _______ _______ _____ _____    ______ ____
ROOT
ATOM      1  C   UNL     1       2.383   1.431  -0.012  0.00  0.00    +0.003 A 
ATOM      2  C   UNL     1       1.173   2.113   0.002  0.00  0.00    +0.014 A 
ATOM      3  C   UNL     1      -0.017   1.407   0.010  0.00  0.00    +0.051 A 
ATOM      4  C   UNL     1       0.002  -0.004   0.002  0.00  0.00    +0.070 A 
ATOM      5  C   UNL     1       1.222  -0.678  -0.013  0.00  0.00    +0.038 A 
ATOM      6  C   UNL     1       2.412   0.053  -0.020  0.00  0.00    +0.023 A 
ATOM      7  C   UNL     1      -1.408  -0.428   0.013  0.00  0.00    +0.256 C 
ATOM      8  O   UNL     1      -1.803  -1.577   0.010  0.00  0.00    -0.269 OA
ATOM      9  N   UNL     1      -2.187   0.669   0.026  0.00  0.00    -0.230 N 
ATOM     10  C   UNL     1      -1.444   1.791   0.031  0.00  0.00    +0.254 C 
ATOM     11  O   UNL     1      -1.874   2.926   0.044  0.00  0.00    -0.270 OA
ENDROOT
BRANCH   5  12
ATOM     12  N   UNL     1       1.254  -2.065  -0.020  0.00  0.00    -0.357 N 
ATOM     13  H   UNL     1       2.219  -2.592  -0.032  0.00  0.00    +0.142 HD
ATOM     14  H   UNL     1       0.314  -2.637  -0.014  0.00  0.00    +0.142 HD
ENDBRANCH   5  12
BRANCH   9  15
ATOM     15  C   UNL     1      -3.652   0.645   0.040  0.00  0.00    +0.155 C 
BRANCH  15  16
ATOM     16  C   UNL     1      -4.141   0.629   1.465  0.00  0.00    +0.007 A 
ATOM     17  C   UNL     1      -4.548  -0.559   2.042  0.00  0.00    +0.023 A 
ATOM     18  C   UNL     1      -4.993  -0.575   3.352  0.00  0.00    +0.018 A 
ATOM     19  C   UNL     1      -5.040   0.599   4.082  0.00  0.00    +0.018 A 
ATOM     20  C   UNL     1      -4.638   1.788   3.504  0.00  0.00    +0.040 A 
ATOM     21  C   UNL     1      -4.189   1.804   2.194  0.00  0.00    +0.128 A 
ATOM     22  F   UNL     1      -3.796   2.967   1.629  0.00  0.00    -0.205 F 
ATOM     23 BR   UNL     1      -5.543  -2.202   4.144  0.00  0.00    -0.050 Br
ENDBRANCH  15  16
ENDBRANCH   9  15
TORSDOF 3
