REMARK  Name = ZINC42139519
REMARK  5 active torsions:
REMARK  status: ('A' for Active; 'I' for Inactive)
REMARK    1  A    between atoms: C_1  and  C_2
REMARK    2  A    between atoms: C_3  and  C_18
REMARK    3  A    between atoms: C_6  and  C_7
REMARK    4  A    between atoms: C_9  and  C_15
REMARK    5  A    between atoms: C_11  and  N_14
REMARK                            x       y       z     vdW  Elec       q    Type
REMARK                         _______ _______ _______ _____ _____    ______ ____
ROOT
ATOM      1  C   UNL     1       0.372   1.448  -0.111  0.00  0.00    +0.047 C 
ATOM      2  C   UNL     1       0.145  -0.041  -0.068  0.00  0.00    -0.007 A 
ATOM      3  C   UNL     1      -0.267  -0.842  -1.140  0.00  0.00    +0.064 A 
ATOM      4  N   UNL     1      -0.352  -2.078  -0.722  0.00  0.00    -0.170 NA
ATOM      5  N   UNL     1       0.002  -2.109   0.633  0.00  0.00    -0.218 N 
ATOM      6  C   UNL     1       0.309  -0.840   1.011  0.00  0.00    +0.047 A 
ATOM      7  C   UNL     1       0.751  -0.403   2.384  0.00  0.00    +0.066 C 
ATOM      8  C   UNL     1       0.038  -3.241   1.448  0.00  0.00    +0.166 A 
ATOM      9  C   UNL     1       0.855  -4.325   1.096  0.00  0.00    +0.082 A 
ATOM     10  C   UNL     1       0.878  -5.451   1.926  0.00  0.00    +0.041 A 
ATOM     11  C   UNL     1       0.085  -5.444   3.067  0.00  0.00    +0.044 A 
ATOM     12  C   UNL     1      -0.698  -4.330   3.345  0.00  0.00    +0.136 A 
ATOM     13  N   UNL     1      -0.695  -3.280   2.547  0.00  0.00    -0.234 NA
ATOM     14  C   UNL     1      -0.561  -0.361  -2.538  0.00  0.00    +0.068 C 
ENDROOT
BRANCH   9  15
ATOM     15  C   UNL     1       1.678  -4.279  -0.129  0.00  0.00    +0.245 C 
ATOM     16  O   UNL     1       1.735  -3.256  -0.784  0.00  0.00    -0.270 OA
ATOM     17  N   UNL     1       2.365  -5.370  -0.521  0.00  0.00    -0.325 N 
ATOM     18  H   UNL     1       2.319  -6.186   0.002  0.00  0.00    +0.145 HD
ATOM     19  H   UNL     1       2.905  -5.340  -1.326  0.00  0.00    +0.145 HD
ENDBRANCH   9  15
BRANCH  11  20
ATOM     20  N   UNL     1       0.074  -6.547   3.927  0.00  0.00    -0.357 N 
ATOM     21  H   UNL     1       0.622  -7.323   3.728  0.00  0.00    +0.142 HD
ATOM     22  H   UNL     1      -0.482  -6.537   4.722  0.00  0.00    +0.142 HD
ENDBRANCH  11  20
TORSDOF 2
