REMARK  Name = ZINC48547185
REMARK  2 active torsions:
REMARK  status: ('A' for Active; 'I' for Inactive)
REMARK    1  A    between atoms: C_4  and  N_11
REMARK    2  A    between atoms: C_7  and  C_9
REMARK                            x       y       z     vdW  Elec       q    Type
REMARK                         _______ _______ _______ _____ _____    ______ ____
ROOT
ATOM      1  C   UNL     1      -0.017   1.372   0.010  0.00  0.00    +0.087 C 
ATOM      2  C   UNL     1       1.091   2.099   0.003  0.00  0.00    +0.059 C 
ATOM      3  S   UNL     1       2.399   0.884  -0.016  0.00  0.00    -0.093 S 
ATOM      4  C   UNL     1       1.345  -0.624  -0.014  0.00  0.00    +0.210 C 
ATOM      5  N   UNL     1       0.002  -0.004   0.002  0.00  0.00    -0.251 N 
ATOM      6  C   UNL     1      -1.128  -0.738   0.009  0.00  0.00    +0.236 C 
ATOM      7  O   UNL     1      -1.065  -1.950   0.002  0.00  0.00    -0.274 OA
ENDROOT
BRANCH   4   8
ATOM      8  N   UNL     1       1.574  -1.433   1.190  0.00  0.00    -0.304 NA
ATOM      9  H   UNL     1       2.530  -1.750   1.237  0.00  0.00    +0.121 HD
ATOM     10  H   UNL     1       1.322  -0.921   2.023  0.00  0.00    +0.121 HD
ENDBRANCH   4   8
BRANCH   6  11
ATOM     11  C   UNL     1      -2.471  -0.054   0.025  0.00  0.00    +0.204 C 
ATOM     12 CL   UNL     1      -3.778  -1.296   0.031  0.00  0.00    -0.116 Cl
ENDBRANCH   6  11
TORSDOF 2
