REMARK  Name = ZINC21466406
REMARK  4 active torsions:
REMARK  status: ('A' for Active; 'I' for Inactive)
REMARK    1  A    between atoms: C_13  and  N_17
REMARK    2  A    between atoms: C_18  and  C_20
REMARK    3  A    between atoms: C_20  and  S_21
REMARK    4  A    between atoms: S_21  and  C_22
REMARK                            x       y       z     vdW  Elec       q    Type
REMARK                         _______ _______ _______ _____ _____    ______ ____
ROOT
ATOM      1  C   UNL     1       4.230 -10.915  -3.661  0.00  0.00    +0.001 A 
ATOM      2  C   UNL     1       3.095 -10.133  -3.543  0.00  0.00    +0.001 A 
ATOM      3  C   UNL     1       3.139  -8.935  -2.852  0.00  0.00    +0.012 A 
ATOM      4  C   UNL     1       4.330  -8.513  -2.270  0.00  0.00    +0.033 A 
ATOM      5  C   UNL     1       5.484  -9.308  -2.390  0.00  0.00    +0.033 A 
ATOM      6  C   UNL     1       5.423 -10.510  -3.089  0.00  0.00    +0.012 A 
ATOM      7  C   UNL     1       6.756  -8.861  -1.786  0.00  0.00    +0.195 C 
ATOM      8  O   UNL     1       7.754  -9.547  -1.890  0.00  0.00    -0.287 OA
ATOM      9  C   UNL     1       6.809  -7.587  -1.039  0.00  0.00    +0.035 A 
ATOM     10  C   UNL     1       7.997  -7.166  -0.452  0.00  0.00    +0.012 A 
ATOM     11  C   UNL     1       8.042  -5.970   0.247  0.00  0.00    +0.003 A 
ATOM     12  C   UNL     1       6.914  -5.186   0.369  0.00  0.00    +0.024 A 
ATOM     13  C   UNL     1       5.712  -5.587  -0.211  0.00  0.00    +0.045 A 
ATOM     14  C   UNL     1       5.651  -6.795  -0.915  0.00  0.00    +0.054 A 
ATOM     15  C   UNL     1       4.386  -7.235  -1.529  0.00  0.00    +0.196 C 
ATOM     16  O   UNL     1       3.388  -6.548  -1.426  0.00  0.00    -0.287 OA
ENDROOT
BRANCH  13  17
ATOM     17  N   UNL     1       4.577  -4.793  -0.087  0.00  0.00    -0.284 N 
ATOM     18  C   UNL     1       4.691  -3.450  -0.085  0.00  0.00    +0.227 C 
ATOM     19  O   UNL     1       5.788  -2.934  -0.111  0.00  0.00    -0.275 OA
ATOM     20  H   UNL     1       3.586  -5.261   0.011  0.00  0.00    +0.155 HD
BRANCH  18  21
ATOM     21  C   UNL     1       3.454  -2.589  -0.052  0.00  0.00    +0.170 C 
BRANCH  21  22
ATOM     22  S   UNL     1       3.935  -0.840  -0.059  0.00  0.00    -0.116 S 
BRANCH  22  23
ATOM     23  C   UNL     1       2.400   0.024  -0.018  0.00  0.00    +0.012 A 
ATOM     24  C   UNL     1       1.204  -0.683   0.009  0.00  0.00    +0.018 A 
ATOM     25  C   UNL     1       0.001  -0.006   0.038  0.00  0.00    +0.050 A 
ATOM     26  C   UNL     1      -0.019   1.381   0.041  0.00  0.00    +0.162 A 
ATOM     27  C   UNL     1       1.176   2.092   0.017  0.00  0.00    +0.163 A 
ATOM     28  C   UNL     1       2.384   1.412  -0.014  0.00  0.00    +0.064 A 
ATOM     29  O   UNL     1       1.176   3.453   0.028  0.00  0.00    -0.485 OA
ATOM     30  C   UNL     1      -0.053   4.100  -0.318  0.00  0.00    +0.270 C 
ATOM     31  C   UNL     1      -1.191   3.411   0.446  0.00  0.00    +0.270 C 
ATOM     32  O   UNL     1      -1.216   2.031   0.062  0.00  0.00    -0.485 OA
ENDBRANCH  22  23
ENDBRANCH  21  22
ENDBRANCH  18  21
ENDBRANCH  13  17
TORSDOF 4
