REMARK  Name = ZINC06472335
REMARK  9 active torsions:
REMARK  status: ('A' for Active; 'I' for Inactive)
REMARK    1  A    between atoms: C_3  and  N_25
REMARK    2  A    between atoms: C_6  and  C_7
REMARK    3  A    between atoms: C_7  and  S_8
REMARK    4  A    between atoms: S_8  and  C_9
REMARK    5  A    between atoms: C_11  and  O_24
REMARK    6  A    between atoms: C_13  and  O_23
REMARK    7  A    between atoms: C_15  and  O_22
REMARK    8  A    between atoms: C_17  and  C_20
REMARK    9  A    between atoms: C_20  and  O_21
REMARK                            x       y       z     vdW  Elec       q    Type
REMARK                         _______ _______ _______ _____ _____    ______ ____
ROOT
ATOM      1  C   UNL     1       2.139   1.077  -1.349  0.00  0.00    +0.207 C 
ATOM      2  C   UNL     1       1.347   1.429  -0.087  0.00  0.00    +0.184 C 
ATOM      3  C   UNL     1       1.133   2.945  -0.034  0.00  0.00    +0.177 C 
ATOM      4  C   UNL     1       2.495   3.644  -0.079  0.00  0.00    +0.176 C 
ATOM      5  C   UNL     1       3.243   3.207  -1.341  0.00  0.00    +0.176 C 
ATOM      6  O   UNL     1       3.381   1.784  -1.343  0.00  0.00    -0.355 OA
ENDROOT
BRANCH   4   7
ATOM      7  O   UNL     1       2.304   5.060  -0.101  0.00  0.00    -0.386 OA
ATOM      8  H   UNL     1       1.832   5.405   0.668  0.00  0.00    +0.210 HD
ENDBRANCH   4   7
BRANCH   3   9
ATOM      9  O   UNL     1       0.347   3.356  -1.155  0.00  0.00    -0.386 OA
ATOM     10  H   UNL     1      -0.528   2.946  -1.194  0.00  0.00    +0.210 HD
ENDBRANCH   3   9
BRANCH   2  11
ATOM     11  O   UNL     1       0.080   0.768  -0.119  0.00  0.00    -0.386 OA
ATOM     12  H   UNL     1       0.140  -0.196  -0.154  0.00  0.00    +0.210 HD
ENDBRANCH   2  11
BRANCH   1  13
ATOM     13  S   UNL     1       2.459  -0.708  -1.385  0.00  0.00    -0.122 S 
BRANCH  13  14
ATOM     14  C   UNL     1       3.259  -0.978  -2.990  0.00  0.00    +0.106 C 
BRANCH  14  20
ATOM     15  C   UNL     1       4.804  -2.929  -2.726  0.00  0.00    +0.006 A 
ATOM     16  C   UNL     1       5.100  -4.272  -2.869  0.00  0.00    +0.033 A 
ATOM     17  C   UNL     1       4.177  -5.125  -3.444  0.00  0.00    +0.126 A 
ATOM     18  C   UNL     1       2.957  -4.637  -3.873  0.00  0.00    +0.033 A 
ATOM     19  C   UNL     1       2.660  -3.295  -3.726  0.00  0.00    +0.006 A 
ATOM     20  C   UNL     1       3.583  -2.442  -3.150  0.00  0.00    -0.037 A 
BRANCH  17  21
ATOM     21  N   UNL     1       4.495  -6.562  -3.601  0.00  0.00    +0.056 N 
ATOM     22  O   UNL     1       3.682  -7.314  -4.108  0.00  0.00    -0.126 OA
ATOM     23  O   UNL     1       5.570  -6.993  -3.224  0.00  0.00    -0.126 OA
ENDBRANCH  17  21
ENDBRANCH  14  20
ENDBRANCH  13  14
ENDBRANCH   1  13
BRANCH   5  24
ATOM     24  C   UNL     1       2.456   3.644  -2.578  0.00  0.00    +0.190 C 
BRANCH  24  25
ATOM     25  O   UNL     1       3.224   3.374  -3.752  0.00  0.00    -0.392 OA
ATOM     26  H   UNL     1       2.786   3.627  -4.576  0.00  0.00    +0.210 HD
ENDBRANCH  24  25
ENDBRANCH   5  24
TORSDOF 9
