REMARK  Name = ZINC09117820
REMARK  2 active torsions:
REMARK  status: ('A' for Active; 'I' for Inactive)
REMARK    1  A    between atoms: C_8  and  C_16
REMARK    2  A    between atoms: N_21  and  C_24
REMARK                            x       y       z     vdW  Elec       q    Type
REMARK                         _______ _______ _______ _____ _____    ______ ____
ROOT
ATOM      1  C   UNL     1       3.550   7.942  -0.400  0.00  0.00    +0.000 A 
ATOM      2  C   UNL     1       2.447   8.505  -1.017  0.00  0.00    +0.002 A 
ATOM      3  C   UNL     1       1.706   7.773  -1.922  0.00  0.00    +0.023 A 
ATOM      4  C   UNL     1       2.064   6.461  -2.222  0.00  0.00    +0.036 A 
ATOM      5  C   UNL     1       3.175   5.906  -1.596  0.00  0.00    -0.027 A 
ATOM      6  C   UNL     1       3.912   6.639  -0.692  0.00  0.00    +0.004 A 
ATOM      7  C   UNL     1       3.293   4.502  -2.125  0.00  0.00    +0.052 C 
ATOM      8  C   UNL     1       3.176   3.478  -0.986  0.00  0.00    +0.076 C 
ATOM      9  C   UNL     1       4.174   2.366  -1.411  0.00  0.00    -0.003 C 
ATOM     10  C   UNL     1       5.293   3.194  -2.092  0.00  0.00    -0.066 C 
ATOM     11  C   UNL     1       4.353   3.806  -4.181  0.00  0.00    -0.077 C 
ATOM     12  C   UNL     1       5.642   3.014  -4.509  0.00  0.00    -0.020 C 
ATOM     13  C   UNL     1       5.980   2.333  -3.164  0.00  0.00    -0.017 C 
ATOM     14  C   UNL     1       2.144   4.359  -3.091  0.00  0.00    +0.212 C 
ATOM     15  O   UNL     1       1.868   3.375  -3.744  0.00  0.00    -0.277 OA
ATOM     16  N   UNL     1       1.485   5.532  -3.088  0.00  0.00    -0.286 N 
ATOM     17  H   UNL     1       0.698   5.711  -3.626  0.00  0.00    +0.155 HD
ATOM     18  N   UNL     1       4.585   4.256  -2.797  0.00  0.00    +0.394 N 
ATOM     19  H   UNL     1       5.146   5.116  -2.797  0.00  0.00    -0.079 HD
ENDROOT
BRANCH   8  20
ATOM     20  C   UNL     1       1.774   2.932  -0.900  0.00  0.00    +0.218 C 
ATOM     21  O   UNL     1       1.492   1.894  -1.460  0.00  0.00    -0.275 OA
ATOM     22  N   UNL     1       0.833   3.598  -0.201  0.00  0.00    -0.298 N 
ATOM     23  C   UNL     1      -0.566   3.146  -0.199  0.00  0.00    +0.126 C 
ATOM     24  C   UNL     1      -1.041   3.039   1.254  0.00  0.00    +0.124 C 
ATOM     25  N   UNL     1      -0.799   4.316   1.940  0.00  0.00    -0.325 N 
ATOM     26  C   UNL     1       0.636   4.625   2.001  0.00  0.00    +0.124 C 
ATOM     27  C   UNL     1       1.179   4.796   0.578  0.00  0.00    +0.126 C 
BRANCH  25  28
ATOM     28  C   UNL     1      -1.366   4.313   3.218  0.00  0.00    +0.065 A 
ATOM     29  C   UNL     1      -2.734   4.131   3.373  0.00  0.00    +0.026 A 
ATOM     30  C   UNL     1      -3.291   4.129   4.637  0.00  0.00    +0.002 A 
ATOM     31  C   UNL     1      -2.489   4.308   5.749  0.00  0.00    +0.003 A 
ATOM     32  C   UNL     1      -1.126   4.491   5.600  0.00  0.00    +0.040 A 
ATOM     33  C   UNL     1      -0.560   4.488   4.338  0.00  0.00    +0.144 A 
ATOM     34  F   UNL     1       0.772   4.660   4.194  0.00  0.00    -0.204 F 
ENDBRANCH  25  28
ENDBRANCH   8  20
TORSDOF 2
