REMARK  Name = ZINC27993350
REMARK  8 active torsions:
REMARK  status: ('A' for Active; 'I' for Inactive)
REMARK    1  A    between atoms: C_1  and  C_2
REMARK    2  A    between atoms: C_4  and  C_31
REMARK    3  A    between atoms: C_6  and  C_30
REMARK    4  A    between atoms: C_7  and  C_11
REMARK    5  A    between atoms: N_13  and  C_14
REMARK    6  A    between atoms: C_14  and  C_15
REMARK    7  A    between atoms: C_15  and  C_17
REMARK    8  A    between atoms: C_15  and  N_24
REMARK                            x       y       z     vdW  Elec       q    Type
REMARK                         _______ _______ _______ _____ _____    ______ ____
ROOT
ATOM      1  C   UNL     1       4.792   2.492  -0.110  0.00  0.00    +0.280 C 
ATOM      2  O   UNL     1       5.440   3.520  -0.054  0.00  0.00    -0.267 OA
ATOM      3  N   UNL     1       5.418   1.299  -0.108  0.00  0.00    -0.310 N 
ATOM      4  H   UNL     1       4.832   0.370  -0.159  0.00  0.00    +0.149 HD
ENDROOT
BRANCH   1  11
ATOM      5  C   UNL     1      -2.473   1.093  -0.506  0.00  0.00    +0.044 C 
ATOM      6  C   UNL     1      -1.176   1.855  -0.419  0.00  0.00    -0.047 A 
ATOM      7  C   UNL     1      -1.196   3.243  -0.382  0.00  0.00    +0.007 A 
ATOM      8  C   UNL     1      -0.030   3.951  -0.309  0.00  0.00    -0.039 A 
ATOM      9  C   UNL     1       1.190   3.272  -0.265  0.00  0.00    +0.027 A 
ATOM     10  C   UNL     1       2.589   3.693  -0.188  0.00  0.00    +0.008 A 
ATOM     11  C   UNL     1       3.325   2.552  -0.180  0.00  0.00    +0.193 A 
ATOM     12  O   UNL     1       2.506   1.481  -0.244  0.00  0.00    -0.450 OA
ATOM     13  C   UNL     1       1.216   1.865  -0.297  0.00  0.00    +0.137 A 
ATOM     14  C   UNL     1       0.017   1.167  -0.372  0.00  0.00    +0.050 A 
ATOM     15  C   UNL     1       3.108   5.106  -0.130  0.00  0.00    +0.048 C 
ATOM     16  C   UNL     1      -0.060   5.457  -0.274  0.00  0.00    +0.044 C 
ENDBRANCH   1  11
BRANCH   3  17
ATOM     17  C   UNL     1       6.880   1.239  -0.039  0.00  0.00    +0.094 C 
BRANCH  17  18
ATOM     18  C   UNL     1       7.328  -0.221   0.056  0.00  0.00    -0.019 C 
BRANCH  18  19
ATOM     19  C   UNL     1       6.980  -0.936  -1.224  0.00  0.00    -0.041 A 
ATOM     20  C   UNL     1       5.799  -1.649  -1.319  0.00  0.00    +0.003 A 
ATOM     21  C   UNL     1       5.480  -2.305  -2.493  0.00  0.00    +0.000 A 
ATOM     22  C   UNL     1       6.342  -2.250  -3.573  0.00  0.00    +0.001 A 
ATOM     23  C   UNL     1       7.522  -1.537  -3.479  0.00  0.00    +0.020 A 
ATOM     24  C   UNL     1       7.840  -0.876  -2.306  0.00  0.00    +0.043 A 
ATOM     25 CL   UNL     1       9.319   0.025  -2.190  0.00  0.00    -0.083 Cl
ENDBRANCH  18  19
BRANCH  18  26
ATOM     26  N   UNL     1       6.643  -0.871   1.181  0.00  0.00    +0.385 N 
ATOM     27  C   UNL     1       6.756  -0.063   2.403  0.00  0.00    -0.078 C 
ATOM     28  C   UNL     1       5.913  -0.695   3.513  0.00  0.00    -0.019 C 
ATOM     29  C   UNL     1       6.407  -2.120   3.774  0.00  0.00    -0.004 C 
ATOM     30  C   UNL     1       6.325  -2.926   2.475  0.00  0.00    -0.019 C 
ATOM     31  C   UNL     1       7.156  -2.230   1.395  0.00  0.00    -0.078 C 
ATOM     32  H   UNL     1       5.576  -0.951   0.930  0.00  0.00    -0.081 HD
ENDBRANCH  18  26
ENDBRANCH  17  18
ENDBRANCH   3  17
TORSDOF 5
