REMARK  Name = ZINC62824350
REMARK  4 active torsions:
REMARK  status: ('A' for Active; 'I' for Inactive)
REMARK    1  A    between atoms: C_1  and  C_2
REMARK    2  A    between atoms: C_7  and  C_10
REMARK    3  A    between atoms: C_12  and  C_15
REMARK    4  A    between atoms: C_20  and  N_21
REMARK                            x       y       z     vdW  Elec       q    Type
REMARK                         _______ _______ _______ _____ _____    ______ ____
ROOT
ATOM      1  C   UNL     1       1.556  -2.522   2.466  0.00  0.00    +0.175 A 
ATOM      2  N   UNL     1       1.006  -3.261   3.431  0.00  0.00    -0.191 NA
ATOM      3  C   UNL     1       1.921  -3.605   4.311  0.00  0.00    +0.260 A 
ATOM      4  O   UNL     1       3.095  -3.081   3.915  0.00  0.00    -0.333 OA
ATOM      5  N   UNL     1       2.830  -2.385   2.707  0.00  0.00    -0.061 NA
ENDROOT
BRANCH   1  11
ATOM      6  C   UNL     1       0.344   1.691   0.108  0.00  0.00    +0.007 C 
ATOM      7  C   UNL     1       0.212   0.167   0.094  0.00  0.00    -0.013 C 
ATOM      8  C   UNL     1       0.815  -0.386  -1.199  0.00  0.00    +0.003 C 
ATOM      9  C   UNL     1       0.684  -1.910  -1.212  0.00  0.00    +0.001 C 
ATOM     10  C   UNL     1       1.427  -2.497  -0.011  0.00  0.00    +0.011 C 
ATOM     11  C   UNL     1       0.824  -1.944   1.282  0.00  0.00    +0.061 C 
ATOM     12  C   UNL     1       0.956  -0.420   1.296  0.00  0.00    +0.014 C 
ENDBRANCH   1  11
BRANCH   3  13
ATOM     13  C   UNL     1       1.698  -4.420   5.520  0.00  0.00    +0.061 A 
ATOM     14  C   UNL     1       0.967  -5.607   5.442  0.00  0.00    +0.029 A 
ATOM     15  C   UNL     1       0.763  -6.365   6.576  0.00  0.00    +0.014 A 
ATOM     16  C   UNL     1       1.280  -5.955   7.794  0.00  0.00    +0.016 A 
ATOM     17  C   UNL     1       2.005  -4.784   7.887  0.00  0.00    +0.024 A 
ATOM     18  C   UNL     1       2.226  -4.011   6.754  0.00  0.00    +0.037 A 
ATOM     19  I   UNL     1      -0.335  -8.145   6.456  0.00  0.00    -0.044 I 
BRANCH  18  20
ATOM     20  N   UNL     1       2.961  -2.833   6.844  0.00  0.00    -0.357 N 
ATOM     21  H   UNL     1       3.033  -2.247   6.075  0.00  0.00    +0.142 HD
ATOM     22  H   UNL     1       3.401  -2.598   7.676  0.00  0.00    +0.142 HD
ENDBRANCH  18  20
ENDBRANCH   3  13
TORSDOF 3
