REMARK  Name = ZINC04005223
REMARK  3 active torsions:
REMARK  status: ('A' for Active; 'I' for Inactive)
REMARK    1  A    between atoms: C_1  and  C_2
REMARK    2  A    between atoms: C_2  and  N_3
REMARK    3  A    between atoms: C_14  and  C_16
REMARK                            x       y       z     vdW  Elec       q    Type
REMARK                         _______ _______ _______ _____ _____    ______ ____
ROOT
ATOM      1  C   UNL     1      -1.728  -3.365   0.002  0.00  0.00    +0.217 C 
ATOM      2  C   UNL     1      -0.964  -5.622  -0.515  0.00  0.00    +0.159 C 
ATOM      3  N   UNL     1      -0.882  -5.987   0.815  0.00  0.00    -0.259 N 
ATOM      4  C   UNL     1      -1.479  -5.137   1.736  0.00  0.00    +0.205 A 
ATOM      5  N   UNL     1      -1.898  -3.878   1.361  0.00  0.00    -0.287 N 
ATOM      6  C   UNL     1      -2.450  -3.293   2.463  0.00  0.00    +0.072 A 
ATOM      7  C   UNL     1      -3.033  -2.051   2.683  0.00  0.00    +0.028 A 
ATOM      8  C   UNL     1      -3.497  -1.789   3.962  0.00  0.00    +0.002 A 
ATOM      9  C   UNL     1      -3.391  -2.715   4.985  0.00  0.00    +0.002 A 
ATOM     10  C   UNL     1      -2.815  -3.957   4.793  0.00  0.00    +0.030 A 
ATOM     11  C   UNL     1      -2.340  -4.245   3.509  0.00  0.00    +0.091 A 
ATOM     12  N   UNL     1      -1.740  -5.339   2.997  0.00  0.00    -0.214 NA
ATOM     13  N   UNL     1      -0.622  -6.547  -1.474  0.00  0.00    -0.332 N 
ATOM     14  H   UNL     1      -0.429  -6.799   1.092  0.00  0.00    +0.158 HD
ATOM     15  H   UNL     1      -0.331  -7.434  -1.210  0.00  0.00    +0.145 HD
ATOM     16  H   UNL     1      -0.672  -6.313  -2.414  0.00  0.00    +0.145 HD
ATOM     17  N   UNL     1      -1.351  -4.436  -0.999  0.00  0.00    -0.337 N 
ATOM     18  H   UNL     1      -1.390  -4.259  -2.010  0.00  0.00    +0.164 HD
ENDROOT
BRANCH   1  30
ATOM     19  N   UNL     1       2.128   0.762  -0.014  0.00  0.00    -0.340 N 
ATOM     20  C   UNL     1       1.322   1.887  -0.000  0.00  0.00    +0.050 A 
ATOM     21  C   UNL     1       1.613   3.247   0.004  0.00  0.00    +0.026 A 
ATOM     22  C   UNL     1       0.590   4.171   0.018  0.00  0.00    +0.002 A 
ATOM     23  C   UNL     1      -0.733   3.758   0.028  0.00  0.00    +0.001 A 
ATOM     24  C   UNL     1      -1.041   2.415   0.020  0.00  0.00    +0.010 A 
ATOM     25  C   UNL     1      -0.018   1.470   0.010  0.00  0.00    +0.008 A 
ATOM     26  C   UNL     1       0.002  -0.004   0.002  0.00  0.00    +0.008 A 
ATOM     27  C   UNL     1       1.353  -0.384  -0.013  0.00  0.00    +0.050 A 
ATOM     28  C   UNL     1       1.681  -1.736  -0.023  0.00  0.00    +0.027 A 
ATOM     29  C   UNL     1       0.684  -2.688  -0.018  0.00  0.00    +0.009 A 
ATOM     30  C   UNL     1      -0.650  -2.311  -0.004  0.00  0.00    -0.004 A 
ATOM     31  C   UNL     1      -0.995  -0.976   0.006  0.00  0.00    +0.018 A 
BRANCH  19  33
ATOM     32  C   UNL     1       4.088   0.798  -1.476  0.00  0.00    +0.027 C 
ATOM     33  C   UNL     1       3.593   0.783  -0.029  0.00  0.00    +0.119 C 
ENDBRANCH  19  33
ENDBRANCH   1  30
TORSDOF 2
