REMARK  Name = ZINC66473318
REMARK  2 active torsions:
REMARK  status: ('A' for Active; 'I' for Inactive)
REMARK    1  A    between atoms: C_8  and  C_19
REMARK    2  A    between atoms: N_10  and  C_12
REMARK                            x       y       z     vdW  Elec       q    Type
REMARK                         _______ _______ _______ _____ _____    ______ ____
ROOT
ATOM      1  C   UNL     1       0.387   1.269  -0.383  0.00  0.00    +0.000 A 
ATOM      2  C   UNL     1       0.975   1.507   0.845  0.00  0.00    +0.000 A 
ATOM      3  C   UNL     1       1.898   0.613   1.350  0.00  0.00    +0.005 A 
ATOM      4  C   UNL     1       2.239  -0.524   0.631  0.00  0.00    -0.030 A 
ATOM      5  C   UNL     1       1.655  -0.759  -0.595  0.00  0.00    -0.041 A 
ATOM      6  C   UNL     1       0.726   0.139  -1.100  0.00  0.00    +0.004 A 
ATOM      7  C   UNL     1       2.002  -1.973  -1.417  0.00  0.00    +0.063 C 
ATOM      8  C   UNL     1       2.695  -3.017  -0.540  0.00  0.00    +0.148 C 
ATOM      9  N   UNL     1       3.789  -2.360   0.193  0.00  0.00    -0.281 NA
ATOM     10  C   UNL     1       3.247  -1.472   1.227  0.00  0.00    +0.121 C 
ENDROOT
BRANCH   9  11
ATOM     11  C   UNL     1       4.701  -3.352   0.777  0.00  0.00    +0.080 C 
ATOM     12  C   UNL     1       5.933  -2.639   1.339  0.00  0.00    +0.023 C 
ATOM     13  C   UNL     1       6.741  -3.647   2.167  0.00  0.00    +0.006 C 
ATOM     14  C   UNL     1       5.925  -4.020   3.406  0.00  0.00    +0.027 C 
ATOM     15  C   UNL     1       4.526  -4.392   3.011  0.00  0.00    -0.030 C 
ATOM     16  C   UNL     1       3.993  -4.096   1.871  0.00  0.00    -0.012 C 
ENDBRANCH   9  11
BRANCH   8  17
ATOM     17  C   UNL     1       3.249  -4.118  -1.406  0.00  0.00    +0.228 C 
ATOM     18  O   UNL     1       4.342  -3.995  -1.918  0.00  0.00    -0.274 OA
ATOM     19  N   UNL     1       2.532  -5.240  -1.611  0.00  0.00    -0.328 N 
ATOM     20  H   UNL     1       1.658  -5.339  -1.202  0.00  0.00    +0.145 HD
ATOM     21  H   UNL     1       2.889  -5.949  -2.169  0.00  0.00    +0.145 HD
ENDBRANCH   8  17
TORSDOF 2
