REMARK  Name = ZINC39693126
REMARK  10 active torsions:
REMARK  status: ('A' for Active; 'I' for Inactive)
REMARK    1  A    between atoms: C_1  and  C_2
REMARK    2  A    between atoms: C_2  and  C_3
REMARK    3  A    between atoms: C_2  and  N_4
REMARK    4  A    between atoms: C_5  and  S_10
REMARK    5  A    between atoms: S_10  and  C_11
REMARK    6  A    between atoms: C_11  and  C_12
REMARK    7  A    between atoms: N_14  and  CA_15
REMARK    8  A    between atoms: CA_15  and  CB_17
REMARK    9  A    between atoms: CA_15  and  C_27
REMARK   10  A    between atoms: CB_17  and  CG_18
REMARK                            x       y       z     vdW  Elec       q    Type
REMARK                         _______ _______ _______ _____ _____    ______ ____
ROOT
ATOM      1  C   UNK A   0       1.637   3.040   1.300  0.00  0.00    +0.224 C 
ATOM      2  O   UNK A   0       2.452   2.728   2.142  0.00  0.00    -0.275 OA
ATOM      3  N   TRP A   1       0.915   4.169   1.446  0.00  0.00    -0.301 N 
ATOM      4  H   TRP A   1       0.264   4.419   0.772  0.00  0.00    +0.150 HD
ENDROOT
BRANCH   1   5
ATOM      5  C   UNK A   0       1.431   2.166   0.089  0.00  0.00    +0.167 C 
BRANCH   5   6
ATOM      6  S   UNK A   0       2.540   0.734   0.182  0.00  0.00    -0.117 S 
BRANCH   6   8
ATOM      7  N   UNK A   0       0.997  -1.085  -1.093  0.00  0.00    -0.228 NA
ATOM      8  C   UNK A   0       2.166  -0.210  -1.321  0.00  0.00    +0.184 C 
ATOM      9  N   UNK A   0       1.786   0.709  -2.419  0.00  0.00    -0.323 NA
ATOM     10  N   UNK A   0       0.716  -0.007  -3.132  0.00  0.00    +0.409 N 
ATOM     11  N   UNK A   0      -0.032  -0.661  -2.047  0.00  0.00    -0.280 NA
ATOM     12  H   UNK A   0       1.452   1.589  -2.055  0.00  0.00    +0.106 HD
ATOM     13  H   UNK A   0       0.125   0.641  -3.632  0.00  0.00    -0.032 HD
ATOM     14  H   UNK A   0      -0.553  -1.452  -2.393  0.00  0.00    +0.121 HD
ATOM     15  H   UNK A   0       1.105  -0.694  -3.761  0.00  0.00    -0.032 HD
BRANCH   7  17
ATOM     16  C   UNK A   0      -0.862  -1.631   0.406  0.00  0.00    +0.025 C 
ATOM     17  C   UNK A   0       0.513  -0.968   0.289  0.00  0.00    +0.067 C 
ATOM     18  C   UNK A   0       1.496  -1.663   1.234  0.00  0.00    +0.025 C 
ENDBRANCH   7  17
ENDBRANCH   6   8
ENDBRANCH   5   6
ENDBRANCH   1   5
BRANCH   3  19
ATOM     19  CA  TRP A   1       1.115   5.019   2.622  0.00  0.00    +0.191 C 
BRANCH  19  20
ATOM     20  C   TRP A   1       0.274   4.506   3.762  0.00  0.00    +0.376 C 
ATOM     21  O   TRP A   1      -0.428   3.521   3.606  0.00  0.00    -0.244 OA
ATOM     22  OXT TRP A   1       0.295   5.075   4.840  0.00  0.00    -0.244 OA
ENDBRANCH  19  20
BRANCH  19  23
ATOM     23  CB  TRP A   1       0.703   6.455   2.290  0.00  0.00    +0.071 C 
BRANCH  23  24
ATOM     24  CG  TRP A   1       1.624   7.011   1.235  0.00  0.00    -0.020 A 
ATOM     25  CD2 TRP A   1       1.491   6.844  -0.214  0.00  0.00    +0.003 A 
ATOM     26  CE3 TRP A   1       0.571   6.188  -1.034  0.00  0.00    +0.010 A 
ATOM     27  CZ3 TRP A   1       0.729   6.221  -2.392  0.00  0.00    +0.001 A 
ATOM     28  CH2 TRP A   1       1.797   6.900  -2.961  0.00  0.00    +0.002 A 
ATOM     29  CZ2 TRP A   1       2.717   7.554  -2.170  0.00  0.00    +0.026 A 
ATOM     30  CE2 TRP A   1       2.575   7.535  -0.786  0.00  0.00    +0.047 A 
ATOM     31  NE1 TRP A   1       3.304   8.075   0.249  0.00  0.00    -0.360 N 
ATOM     32  CD1 TRP A   1       2.720   7.758   1.445  0.00  0.00    +0.087 A 
ATOM     33  HE1 TRP A   1       4.109   8.606   0.146  0.00  0.00    +0.165 HD
ENDBRANCH  23  24
ENDBRANCH  19  23
ENDBRANCH   3  19
TORSDOF 8
