REMARK  Name = ZINC11736850
REMARK  3 active torsions:
REMARK  status: ('A' for Active; 'I' for Inactive)
REMARK    1  A    between atoms: C_2  and  S_12
REMARK    2  A    between atoms: C_4  and  N_11
REMARK    3  A    between atoms: S_12  and  N_15
REMARK                            x       y       z     vdW  Elec       q    Type
REMARK                         _______ _______ _______ _____ _____    ______ ____
ROOT
ATOM      1  C   UNL     1      -2.204   3.008   2.438  0.00  0.00    +0.032 A 
ATOM      2  C   UNL     1      -1.912   2.366   3.625  0.00  0.00    +0.107 A 
ATOM      3  C   UNL     1      -1.016   1.316   3.637  0.00  0.00    +0.051 A 
ATOM      4  C   UNL     1      -0.412   0.915   2.454  0.00  0.00    +0.030 A 
ATOM      5  C   UNL     1      -0.707   1.566   1.255  0.00  0.00    -0.023 A 
ATOM      6  C   UNL     1      -1.603   2.609   1.250  0.00  0.00    -0.041 A 
ATOM      7  C   UNL     1      -1.973   3.354  -0.006  0.00  0.00    +0.035 C 
ATOM      8  C   UNL     1      -0.942   3.101  -1.104  0.00  0.00    +0.005 C 
ATOM      9  C   UNL     1      -0.741   1.587  -1.238  0.00  0.00    +0.005 C 
ATOM     10  C   UNL     1      -0.013   1.086   0.008  0.00  0.00    +0.037 C 
ENDROOT
BRANCH   4  11
ATOM     11  N   UNL     1       0.495  -0.147   2.463  0.00  0.00    -0.358 N 
ATOM     12  H   UNL     1       0.701  -0.602   3.295  0.00  0.00    +0.142 HD
ATOM     13  H   UNL     1       0.919  -0.430   1.638  0.00  0.00    +0.142 HD
ENDBRANCH   4  11
BRANCH   2  14
ATOM     14  S   UNL     1      -2.682   2.886   5.122  0.00  0.00    +0.061 S 
ATOM     15  O   UNL     1      -1.828   2.477   6.181  0.00  0.00    -0.153 OA
ATOM     16  O   UNL     1      -3.066   4.241   4.932  0.00  0.00    -0.153 OA
BRANCH  14  17
ATOM     17  N   UNL     1      -4.082   2.016   5.281  0.00  0.00    -0.172 NA
ATOM     18  C   UNL     1      -5.351   2.514   4.726  0.00  0.00    +0.137 C 
ATOM     19  C   UNL     1      -5.980   1.391   3.886  0.00  0.00    +0.177 C 
ATOM     20  O   UNL     1      -6.057   0.202   4.676  0.00  0.00    -0.377 OA
ATOM     21  C   UNL     1      -4.788  -0.309   5.089  0.00  0.00    +0.177 C 
ATOM     22  C   UNL     1      -4.096   0.725   5.986  0.00  0.00    +0.137 C 
ENDBRANCH  14  17
ENDBRANCH   2  14
TORSDOF 3
