REMARK  Name = ZINC67557816
REMARK  10 active torsions:
REMARK  status: ('A' for Active; 'I' for Inactive)
REMARK    1  A    between atoms: C_1  and  C_2
REMARK    2  A    between atoms: C_4  and  C_8
REMARK    3  A    between atoms: C_5  and  C_7
REMARK    4  A    between atoms: C_8  and  C_10
REMARK    5  A    between atoms: C_8  and  N_11
REMARK    6  A    between atoms: C_12  and  C_14
REMARK    7  A    between atoms: N_16  and  C_17
REMARK    8  A    between atoms: C_21  and  N_23
REMARK    9  A    between atoms: C_24  and  O_26
REMARK   10  A    between atoms: O_26  and  C_27
REMARK                            x       y       z     vdW  Elec       q    Type
REMARK                         _______ _______ _______ _____ _____    ______ ____
ROOT
ATOM      1  C   UNL     1      -4.913  -3.760   1.510  0.00  0.00    +0.303 C 
ATOM      2  O   UNL     1      -5.343  -2.630   1.406  0.00  0.00    -0.265 OA
ATOM      3  N   UNL     1      -5.671  -4.721   2.074  0.00  0.00    -0.278 N 
ATOM      4  H   UNL     1      -5.354  -5.637   2.098  0.00  0.00    +0.155 HD
ENDROOT
BRANCH   3   5
ATOM      5  C   UNL     1      -6.915  -4.397   2.624  0.00  0.00    +0.036 A 
ATOM      6  C   UNL     1      -7.703  -3.418   2.032  0.00  0.00    +0.026 A 
ATOM      7  C   UNL     1      -8.932  -3.097   2.575  0.00  0.00    +0.042 A 
ATOM      8  C   UNL     1      -9.382  -3.749   3.709  0.00  0.00    +0.145 A 
ATOM      9  C   UNL     1      -8.597  -4.730   4.306  0.00  0.00    +0.073 A 
ATOM     10  C   UNL     1      -7.365  -5.057   3.759  0.00  0.00    +0.049 A 
ATOM     11  F   UNL     1     -10.584  -3.432   4.238  0.00  0.00    -0.204 F 
BRANCH   9  12
ATOM     12  N   UNL     1      -9.052  -5.390   5.454  0.00  0.00    -0.248 N 
ATOM     13  C   UNL     1      -8.176  -5.769   6.405  0.00  0.00    +0.404 C 
ATOM     14  O   UNL     1      -6.984  -5.614   6.230  0.00  0.00    -0.226 OA
ATOM     15  H   UNL     1      -9.998  -5.573   5.565  0.00  0.00    +0.158 HD
BRANCH  13  16
ATOM     16  O   UNL     1      -8.621  -6.321   7.550  0.00  0.00    -0.453 OA
ATOM     17  C   UNL     1      -7.637  -6.700   8.514  0.00  0.00    +0.282 C 
ENDBRANCH  13  16
ENDBRANCH   9  12
ENDBRANCH   3   5
BRANCH   1  19
ATOM     18  N   UNL     1      -2.784  -3.124   0.451  0.00  0.00    -0.301 N 
ATOM     19  C   UNL     1      -3.542  -4.085   1.014  0.00  0.00    +0.300 C 
ATOM     20  O   UNL     1      -3.111  -5.215   1.119  0.00  0.00    -0.265 OA
ATOM     21  H   UNL     1      -3.128  -2.221   0.367  0.00  0.00    +0.150 HD
BRANCH  18  22
ATOM     22  C   UNL     1      -1.439  -3.443  -0.036  0.00  0.00    +0.104 C 
ATOM     23  C   UNL     1      -1.530  -4.000  -1.458  0.00  0.00    +0.033 C 
BRANCH  22  27
ATOM     24  C   UNL     1       0.006   1.442  -0.028  0.00  0.00    +0.086 C 
ATOM     25  C   UNL     1       0.018  -0.065  -0.035  0.00  0.00    +0.103 A 
ATOM     26  C   UNL     1      -1.066  -0.860  -0.028  0.00  0.00    +0.050 A 
ATOM     27  C   UNL     1      -0.596  -2.194  -0.039  0.00  0.00    +0.013 A 
ATOM     28  C   UNL     1       0.747  -2.133  -0.051  0.00  0.00    +0.107 A 
ATOM     29  O   UNL     1       1.114  -0.841  -0.055  0.00  0.00    -0.465 OA
ATOM     30  C   UNL     1       1.683  -3.315  -0.065  0.00  0.00    +0.086 C 
ENDBRANCH  22  27
ENDBRANCH  18  22
ENDBRANCH   1  19
TORSDOF 6
