REMARK  Name = ZINC08126982
REMARK  6 active torsions:
REMARK  status: ('A' for Active; 'I' for Inactive)
REMARK    1  A    between atoms: C_1  and  N_55
REMARK    2  A    between atoms: C_2  and  C_3
REMARK    3  A    between atoms: C_2  and  N_55
REMARK    4  A    between atoms: N_5  and  C_6
REMARK    5  A    between atoms: C_7  and  C_15
REMARK    6  A    between atoms: C_18  and  N_55
REMARK                            x       y       z     vdW  Elec       q    Type
REMARK                         _______ _______ _______ _____ _____    ______ ____
ROOT
ATOM      1  C   UNL     1      -0.171   5.331   1.463  0.00  0.00    +0.201 C 
ATOM      2  O   UNL     1       0.476   5.348   2.489  0.00  0.00    -0.278 OA
ATOM      3  N   UNL     1      -1.086   6.292   1.227  0.00  0.00    -0.281 N 
ATOM      4  H   UNL     1      -1.602   6.279   0.406  0.00  0.00    +0.155 HD
ENDROOT
BRANCH   3   5
ATOM      5  C   UNL     1      -1.288   7.301   2.157  0.00  0.00    +0.084 A 
ATOM      6  C   UNL     1      -2.171   8.369   2.092  0.00  0.00    +0.068 A 
ATOM      7  C   UNL     1      -2.191   9.293   3.213  0.00  0.00    -0.023 A 
ATOM      8  C   UNL     1      -1.323   9.008   4.208  0.00  0.00    -0.004 A 
ATOM      9  S   UNL     1      -0.495   7.536   3.680  0.00  0.00    -0.077 S 
ATOM     10  C   UNL     1      -1.118   9.780   5.476  0.00  0.00    +0.043 C 
ATOM     11  C   UNL     1      -1.773  11.159   5.314  0.00  0.00    +0.005 C 
ATOM     12  C   UNL     1      -3.184  10.971   4.749  0.00  0.00    +0.005 C 
ATOM     13  C   UNL     1      -3.105  10.510   3.293  0.00  0.00    +0.037 C 
BRANCH   6  14
ATOM     14  C   UNL     1      -3.054   8.557   0.936  0.00  0.00    +0.244 C 
ATOM     15  O   UNL     1      -4.161   8.052   0.928  0.00  0.00    -0.270 OA
ATOM     16  N   UNL     1      -2.639   9.288  -0.117  0.00  0.00    -0.325 N 
ATOM     17  H   UNL     1      -1.756   9.691  -0.111  0.00  0.00    +0.145 HD
ATOM     18  H   UNL     1      -3.223   9.412  -0.881  0.00  0.00    +0.145 HD
ENDBRANCH   6  14
ENDBRANCH   3   5
BRANCH   1  19
ATOM     19  C   UNL     1       0.050   4.236   0.452  0.00  0.00    +0.019 C 
BRANCH  19  21
ATOM     20  C   UNL     1       2.417   3.947   0.869  0.00  0.00    -0.095 C 
ATOM     21  N   UNL     1       1.085   3.315   0.968  0.00  0.00    +0.388 N 
ATOM     22  H   UNL     1       0.886   3.109   1.954  0.00  0.00    -0.081 HD
BRANCH  21  23
ATOM     23  C   UNL     1       1.065   2.053   0.200  0.00  0.00    -0.037 C 
ATOM     24  C   UNL     1       1.515   2.300  -1.239  0.00  0.00    -0.010 C 
ATOM     25  C   UNL     1       1.692   0.944  -1.931  0.00  0.00    +0.003 C 
ATOM     26  C   UNL     1       2.914   0.253  -1.329  0.00  0.00    +0.035 C 
ATOM     27  C   UNL     1       2.824   0.234   0.175  0.00  0.00    -0.046 A 
ATOM     28  C   UNL     1       1.979   1.064   0.877  0.00  0.00    -0.058 A 
ATOM     29  C   UNL     1       1.947   1.000   2.264  0.00  0.00    +0.002 A 
ATOM     30  C   UNL     1       2.756   0.113   2.943  0.00  0.00    +0.000 A 
ATOM     31  C   UNL     1       3.602  -0.723   2.238  0.00  0.00    +0.000 A 
ATOM     32  C   UNL     1       3.634  -0.661   0.860  0.00  0.00    +0.004 A 
ENDBRANCH  21  23
ENDBRANCH  19  21
ENDBRANCH   1  19
TORSDOF 5
