REMARK  Name = ZINC05740674
REMARK  8 active torsions:
REMARK  status: ('A' for Active; 'I' for Inactive)
REMARK    1  A    between atoms: C_1  and  C_2
REMARK    2  A    between atoms: C_6  and  C_7
REMARK    3  A    between atoms: C_7  and  C_9
REMARK    4  A    between atoms: C_7  and  N_21
REMARK    5  A    between atoms: C_15  and  C_20
REMARK    6  A    between atoms: C_18  and  O_19
REMARK    7  A    between atoms: N_21  and  C_22
REMARK    8  A    between atoms: C_26  and  C_27
REMARK                            x       y       z     vdW  Elec       q    Type
REMARK                         _______ _______ _______ _____ _____    ______ ____
ROOT
ATOM      1  C   UNL     1       4.796   4.116  -0.021  0.00  0.00    +0.143 C 
ENDROOT
BRANCH   1   2
ATOM      2  C   UNL     1       3.499   3.354  -0.112  0.00  0.00    +0.021 A 
ATOM      3  C   UNL     1       3.513   1.964  -0.025  0.00  0.00    +0.010 A 
ATOM      4  C   UNL     1       2.358   1.246  -0.103  0.00  0.00    +0.010 A 
ATOM      5  C   UNL     1       1.134   1.913  -0.275  0.00  0.00    +0.004 A 
ATOM      6  C   UNL     1      -0.080   1.205  -0.360  0.00  0.00    +0.012 A 
ATOM      7  C   UNL     1      -1.232   1.919  -0.532  0.00  0.00    +0.023 A 
ATOM      8  C   UNL     1      -1.183   3.310  -0.606  0.00  0.00    +0.039 A 
ATOM      9  N   UNL     1      -0.050   3.965  -0.526  0.00  0.00    -0.248 NA
ATOM     10  C   UNL     1       1.112   3.326  -0.364  0.00  0.00    +0.113 A 
ATOM     11  C   UNL     1       2.328   4.036  -0.279  0.00  0.00    +0.148 A 
ATOM     12  C   UNL     1      -2.465   4.080  -0.790  0.00  0.00    +0.065 C 
BRANCH  11  13
ATOM     13  O   UNL     1       2.334   5.392  -0.362  0.00  0.00    -0.504 OA
ATOM     14  H   UNL     1       2.243   5.839   0.490  0.00  0.00    +0.292 HD
ENDBRANCH  11  13
ENDBRANCH   1   2
BRANCH   1  20
ATOM     15  C   UNL     1       4.490   6.910   1.218  0.00  0.00    +0.044 C 
ATOM     16  C   UNL     1       4.936   5.708   2.010  0.00  0.00    -0.038 A 
ATOM     17  C   UNL     1       5.227   5.823   3.357  0.00  0.00    +0.011 A 
ATOM     18  C   UNL     1       5.633   4.724   4.038  0.00  0.00    +0.046 A 
ATOM     19  S   UNL     1       5.605   3.471   2.768  0.00  0.00    -0.099 S 
ATOM     20  C   UNL     1       5.055   4.496   1.414  0.00  0.00    +0.017 A 
ENDBRANCH   1  20
BRANCH   1  21
ATOM     21  N   UNL     1       5.892   3.275  -0.508  0.00  0.00    -0.319 N 
ATOM     22  H   UNL     1       5.807   2.308  -0.490  0.00  0.00    +0.148 HD
BRANCH  21  23
ATOM     23  C   UNL     1       7.053   3.861  -0.998  0.00  0.00    +0.097 A 
ATOM     24  C   UNL     1       7.168   5.247  -1.022  0.00  0.00    +0.041 A 
ATOM     25  C   UNL     1       8.329   5.817  -1.512  0.00  0.00    +0.005 A 
ATOM     26  C   UNL     1       9.340   4.979  -1.963  0.00  0.00    +0.021 A 
ATOM     27  C   UNL     1       9.159   3.612  -1.910  0.00  0.00    +0.014 A 
ATOM     28  C   UNL     1      10.252   2.697  -2.397  0.00  0.00    +0.063 C 
ATOM     29  N   UNL     1       8.034   3.017  -1.429  0.00  0.00    -0.347 N 
ATOM     30  H   UNL     1       7.930   1.996  -1.393  0.00  0.00    +0.167 HD
ENDBRANCH  21  23
ENDBRANCH   1  21
TORSDOF 5
