REMARK  Name = ZINC04430275
REMARK  2 active torsions:
REMARK  status: ('A' for Active; 'I' for Inactive)
REMARK    1  A    between atoms: C_3  and  C_14
REMARK    2  A    between atoms: C_11  and  N_12
REMARK                            x       y       z     vdW  Elec       q    Type
REMARK                         _______ _______ _______ _____ _____    ______ ____
ROOT
ATOM      1  C   UNL     1      -2.363  -2.968   0.027  0.00  0.00    +0.056 C 
ATOM      2  C   UNL     1      -3.593  -2.163  -0.390  0.00  0.00    +0.019 C 
ATOM      3  C   UNL     1      -3.643  -0.882   0.450  0.00  0.00    +0.080 C 
ATOM      4  C   UNL     1      -2.496   0.028   0.013  0.00  0.00    +0.053 C 
ATOM      5  C   UNL     1      -1.196  -0.729   0.015  0.00  0.00    +0.014 A 
ATOM      6  C   UNL     1      -1.134  -2.101   0.007  0.00  0.00    +0.051 A 
ATOM      7  N   UNL     1       0.058  -2.692  -0.009  0.00  0.00    -0.219 NA
ATOM      8  C   UNL     1       1.175  -1.984  -0.019  0.00  0.00    +0.214 A 
ATOM      9  N   UNL     1       1.157  -0.660  -0.013  0.00  0.00    -0.200 NA
ATOM     10  C   UNL     1       0.002  -0.004   0.002  0.00  0.00    +0.125 A 
ATOM     11  N   UNL     1       2.393  -2.643  -0.038  0.00  0.00    -0.327 N 
ATOM     12  H   UNL     1       3.219  -2.134  -0.046  0.00  0.00    +0.145 HD
ATOM     13  H   UNL     1       2.420  -3.612  -0.043  0.00  0.00    +0.145 HD
ENDROOT
BRANCH   3  14
ATOM     14  C   UNL     1      -4.958  -0.181   0.226  0.00  0.00    +0.214 C 
ATOM     15  O   UNL     1      -5.778  -0.657  -0.530  0.00  0.00    -0.276 OA
ATOM     16  N   UNL     1      -5.224   0.975   0.867  0.00  0.00    -0.329 N 
ATOM     17  H   UNL     1      -4.568   1.355   1.472  0.00  0.00    +0.145 HD
ATOM     18  H   UNL     1      -6.070   1.426   0.723  0.00  0.00    +0.145 HD
ENDBRANCH   3  14
BRANCH  10  19
ATOM     19  N   UNL     1      -0.017   1.381   0.010  0.00  0.00    -0.343 N 
ATOM     20  H   UNL     1       0.817   1.877   0.004  0.00  0.00    +0.144 HD
ATOM     21  H   UNL     1      -0.863   1.855   0.016  0.00  0.00    +0.144 HD
ENDBRANCH  10  19
TORSDOF 2
