REMARK  Name = ZINC28575282
REMARK  6 active torsions:
REMARK  status: ('A' for Active; 'I' for Inactive)
REMARK    1  A    between atoms: C_1  and  C_2
REMARK    2  A    between atoms: C_9  and  C_25
REMARK    3  A    between atoms: C_10  and  C_12
REMARK    4  A    between atoms: N_14  and  N_15
REMARK    5  A    between atoms: C_16  and  C_18
REMARK    6  A    between atoms: C_18  and  C_19
REMARK                            x       y       z     vdW  Elec       q    Type
REMARK                         _______ _______ _______ _____ _____    ______ ____
ROOT
ATOM      1  C   UNL     1       0.082  -3.640   3.216  0.00  0.00    +0.296 C 
ATOM      2  O   UNL     1       0.084  -4.426   2.287  0.00  0.00    -0.265 OA
ATOM      3  N   UNL     1       0.062  -2.314   2.977  0.00  0.00    -0.228 N 
ATOM      4  H   UNL     1       0.060  -1.604   3.817  0.00  0.00    +0.173 HD
ENDROOT
BRANCH   1  14
ATOM      5  C   UNL     1       0.166  -4.487  10.576  0.00  0.00    +0.045 C 
ATOM      6  C   UNL     1       0.156  -4.825   9.108  0.00  0.00    -0.029 A 
ATOM      7  C   UNL     1       0.133  -3.810   8.175  0.00  0.00    +0.051 A 
ATOM      8  C   UNL     1       0.123  -4.116   6.820  0.00  0.00    +0.137 A 
ATOM      9  C   UNL     1       0.138  -5.466   6.421  0.00  0.00    +0.025 A 
ATOM     10  C   UNL     1       0.161  -6.480   7.381  0.00  0.00    +0.032 A 
ATOM     11  C   UNL     1       0.170  -6.155   8.709  0.00  0.00    +0.045 A 
ATOM     12 CL   UNL     1       0.200  -7.413   9.905  0.00  0.00    -0.083 Cl
ATOM     13  C   UNL     1       0.123  -5.447   4.958  0.00  0.00    +0.008 A 
ATOM     14  C   UNL     1       0.102  -4.138   4.599  0.00  0.00    +0.195 A 
ATOM     15  O   UNL     1       0.108  -3.362   5.703  0.00  0.00    -0.450 OA
ATOM     16  C   UNL     1       0.131  -6.640   4.037  0.00  0.00    +0.048 C 
ENDBRANCH   1  14
BRANCH   3  17
ATOM     17  N   UNL     1       0.043  -1.840   1.659  0.00  0.00    -0.234 N 
ATOM     18  C   UNL     1       0.022  -0.514   1.420  0.00  0.00    +0.233 C 
ATOM     19  O   UNL     1       0.021   0.269   2.346  0.00  0.00    -0.274 OA
ATOM     20  H   UNL     1       0.044  -2.550   0.819  0.00  0.00    +0.173 HD
BRANCH  18  21
ATOM     21  C   UNL     1       0.002  -0.004   0.002  0.00  0.00    +0.132 C 
BRANCH  21  22
ATOM     22  C   UNL     1      -0.018   1.503   0.010  0.00  0.00    -0.039 A 
ATOM     23  C   UNL     1      -1.225   2.178   0.020  0.00  0.00    +0.004 A 
ATOM     24  C   UNL     1      -1.244   3.560   0.032  0.00  0.00    +0.000 A 
ATOM     25  C   UNL     1      -0.056   4.267   0.025  0.00  0.00    +0.000 A 
ATOM     26  C   UNL     1       1.151   3.592   0.010  0.00  0.00    +0.000 A 
ATOM     27  C   UNL     1       1.169   2.210   0.003  0.00  0.00    +0.004 A 
ENDBRANCH  21  22
ENDBRANCH  18  21
ENDBRANCH   3  17
TORSDOF 4
