REMARK  Name = ZINC42397624
REMARK  8 active torsions:
REMARK  status: ('A' for Active; 'I' for Inactive)
REMARK    1  A    between atoms: C_1  and  C_2
REMARK    2  A    between atoms: C_2  and  C_3
REMARK    3  A    between atoms: C_3  and  C_5
REMARK    4  A    between atoms: C_3  and  N_6
REMARK    5  A    between atoms: N_6  and  C_7
REMARK    6  A    between atoms: C_7  and  C_8
REMARK    7  A    between atoms: C_17  and  C_19
REMARK    8  A    between atoms: N_21  and  C_22
REMARK                            x       y       z     vdW  Elec       q    Type
REMARK                         _______ _______ _______ _____ _____    ______ ____
ROOT
ATOM      1  N   UNL     1      -0.037  -0.108   2.379  0.00  0.00    -0.272 N 
ATOM      2  C   UNL     1       0.630   0.629   3.288  0.00  0.00    +0.306 C 
ATOM      3  O   UNL     1       1.761   1.008   3.053  0.00  0.00    -0.252 OA
ATOM      4  N   UNL     1       0.043   0.948   4.460  0.00  0.00    -0.274 N 
ATOM      5  C   UNL     1      -1.248   0.427   4.943  0.00  0.00    +0.110 C 
ATOM      6  C   UNL     1      -1.179   0.563   6.484  0.00  0.00    +0.021 C 
ATOM      7  C   UNL     1      -0.410   1.902   6.644  0.00  0.00    +0.033 C 
ATOM      8  C   UNL     1       0.589   1.867   5.469  0.00  0.00    +0.163 C 
ENDROOT
BRANCH   8   9
ATOM      9  C   UNL     1       0.733   3.247   4.881  0.00  0.00    +0.233 C 
ATOM     10  O   UNL     1       0.413   3.452   3.730  0.00  0.00    -0.274 OA
ATOM     11  N   UNL     1       1.218   4.253   5.636  0.00  0.00    -0.317 N 
ATOM     12  C   UNL     1       1.358   5.595   5.064  0.00  0.00    +0.128 C 
ATOM     13  H   UNL     1       1.474   4.089   6.557  0.00  0.00    +0.148 HD
ENDBRANCH   8   9
BRANCH   1  14
ATOM     14  C   UNL     1       0.647  -0.578   1.172  0.00  0.00    +0.075 C 
ATOM     15  C   UNL     1       0.617  -2.107   1.131  0.00  0.00    +0.028 C 
BRANCH  14  17
ATOM     16  C   UNL     1       0.079   1.503  -0.088  0.00  0.00    +0.006 C 
ATOM     17  C   UNL     1      -0.059  -0.020  -0.065  0.00  0.00    +0.019 C 
ENDBRANCH  14  17
ENDBRANCH   1  14
BRANCH   1  18
ATOM     18  C   UNL     1      -1.448  -0.440   2.597  0.00  0.00    +0.234 C 
BRANCH  18  19
ATOM     19  C   UNL     1      -1.550  -1.793   3.252  0.00  0.00    +0.373 C 
ATOM     20  O   UNL     1      -0.538  -2.422   3.513  0.00  0.00    -0.245 OA
ATOM     21  O   UNL     1      -2.644  -2.259   3.522  0.00  0.00    -0.245 OA
ENDBRANCH  18  19
ENDBRANCH   1  18
TORSDOF 5
