REMARK  Name = ZINC00671718
REMARK  5 active torsions:
REMARK  status: ('A' for Active; 'I' for Inactive)
REMARK    1  A    between atoms: C_4  and  N_7
REMARK    2  A    between atoms: N_10  and  N_11
REMARK    3  A    between atoms: C_12  and  C_14
REMARK    4  A    between atoms: C_14  and  O_15
REMARK    5  A    between atoms: O_15  and  C_16
REMARK                            x       y       z     vdW  Elec       q    Type
REMARK                         _______ _______ _______ _____ _____    ______ ____
ROOT
ATOM      1  N   UNL     1       6.023  -1.922   0.136  0.00  0.00    -0.230 N 
ATOM      2  C   UNL     1       7.201  -2.571   0.223  0.00  0.00    +0.267 C 
ATOM      3  O   UNL     1       7.222  -3.781   0.307  0.00  0.00    -0.271 OA
ATOM      4  H   UNL     1       6.006  -0.955   0.068  0.00  0.00    +0.173 HD
ENDROOT
BRANCH   1   8
ATOM      5  N   UNL     1       3.622  -0.651  -0.036  0.00  0.00    -0.268 N 
ATOM      6  C   UNL     1       3.645  -1.995   0.058  0.00  0.00    +0.320 C 
ATOM      7  O   UNL     1       2.603  -2.622   0.065  0.00  0.00    -0.251 OA
ATOM      8  N   UNL     1       4.823  -2.644   0.144  0.00  0.00    -0.218 N 
ATOM      9  H   UNL     1       4.452  -0.156  -0.120  0.00  0.00    +0.156 HD
ATOM     10  H   UNL     1       4.839  -3.612   0.212  0.00  0.00    +0.174 HD
BRANCH   5  14
ATOM     11  C   UNL     1      -0.015   1.381   0.032  0.00  0.00    +0.000 A 
ATOM     12  C   UNL     1       0.140   0.219   0.766  0.00  0.00    +0.002 A 
ATOM     13  C   UNL     1       1.344  -0.457   0.745  0.00  0.00    +0.023 A 
ATOM     14  C   UNL     1       2.400   0.031  -0.013  0.00  0.00    +0.035 A 
ATOM     15  C   UNL     1       2.241   1.198  -0.749  0.00  0.00    +0.023 A 
ATOM     16  C   UNL     1       1.034   1.870  -0.724  0.00  0.00    +0.002 A 
ENDBRANCH   5  14
ENDBRANCH   1   8
BRANCH   2  17
ATOM     17  C   UNL     1       8.492  -1.794   0.214  0.00  0.00    +0.326 C 
BRANCH  17  18
ATOM     18  O   UNL     1       9.593  -2.699   0.315  0.00  0.00    -0.482 OA
BRANCH  18  19
ATOM     19  C   UNL     1      10.839  -2.157   0.321  0.00  0.00    +0.136 A 
ATOM     20  C   UNL     1      10.988  -0.769   0.235  0.00  0.00    +0.047 A 
ATOM     21  C   UNL     1      12.222  -0.196   0.239  0.00  0.00    +0.012 A 
ATOM     22  C   UNL     1      13.367  -1.007   0.330  0.00  0.00    -0.017 A 
ATOM     23  C   UNL     1      14.656  -0.448   0.337  0.00  0.00    +0.008 A 
ATOM     24  C   UNL     1      15.743  -1.262   0.426  0.00  0.00    +0.001 A 
ATOM     25  C   UNL     1      15.598  -2.646   0.511  0.00  0.00    +0.001 A 
ATOM     26  C   UNL     1      14.365  -3.223   0.508  0.00  0.00    +0.010 A 
ATOM     27  C   UNL     1      13.219  -2.414   0.417  0.00  0.00    -0.000 A 
ATOM     28  C   UNL     1      11.930  -2.974   0.416  0.00  0.00    +0.067 A 
ATOM     29 BR   UNL     1      11.707  -4.848   0.539  0.00  0.00    -0.046 Br
ENDBRANCH  18  19
ENDBRANCH  17  18
ENDBRANCH   2  17
TORSDOF 5
