REMARK  Name = ZINC06126093
REMARK  6 active torsions:
REMARK  status: ('A' for Active; 'I' for Inactive)
REMARK    1  A    between atoms: C_1  and  C_2
REMARK    2  A    between atoms: C_5  and  S_8
REMARK    3  A    between atoms: S_8  and  N_11
REMARK    4  A    between atoms: C_16  and  C_17
REMARK    5  A    between atoms: C_16  and  N_46
REMARK    6  A    between atoms: C_22  and  O_23
REMARK                            x       y       z     vdW  Elec       q    Type
REMARK                         _______ _______ _______ _____ _____    ______ ____
ROOT
ATOM      1  N   UNL     1      -0.897   1.885  -1.312  0.00  0.00    -0.180 NA
ATOM      2  C   UNL     1      -1.887   0.982  -1.919  0.00  0.00    +0.091 C 
ATOM      3  C   UNL     1      -3.215   1.745  -2.057  0.00  0.00    -0.061 C 
ATOM      4  C   UNL     1      -2.076   3.886  -2.056  0.00  0.00    -0.061 C 
ATOM      5  C   UNL     1      -0.706   3.213  -1.915  0.00  0.00    +0.091 C 
ATOM      6  N   UNL     1      -2.969   2.988  -2.820  0.00  0.00    +0.384 N 
ATOM      7  H   UNL     1      -2.517   2.748  -3.710  0.00  0.00    -0.081 HD
ENDROOT
BRANCH   1   8
ATOM      8  S   UNL     1      -0.017   1.417   0.010  0.00  0.00    +0.061 S 
ATOM      9  O   UNL     1       0.002  -0.004   0.002  0.00  0.00    -0.153 OA
ATOM     10  O   UNL     1       1.172   2.195   0.003  0.00  0.00    -0.153 OA
BRANCH   8  15
ATOM     11  C   UNL     1      -3.131   3.072   4.906  0.00  0.00    +0.044 C 
ATOM     12  C   UNL     1      -2.353   2.659   3.683  0.00  0.00    -0.050 A 
ATOM     13  C   UNL     1      -2.559   1.412   3.121  0.00  0.00    +0.005 A 
ATOM     14  C   UNL     1      -1.846   1.033   2.000  0.00  0.00    +0.029 A 
ATOM     15  C   UNL     1      -0.927   1.900   1.439  0.00  0.00    +0.105 A 
ATOM     16  C   UNL     1      -0.717   3.145   2.004  0.00  0.00    +0.029 A 
ATOM     17  C   UNL     1      -1.434   3.526   3.123  0.00  0.00    +0.005 A 
ENDBRANCH   8  15
ENDBRANCH   1   8
BRANCH   6  18
ATOM     18  C   UNL     1      -4.250   3.669  -3.100  0.00  0.00    -0.039 C 
BRANCH  18  19
ATOM     19  C   UNL     1      -5.238   2.663  -3.631  0.00  0.00    -0.021 A 
ATOM     20  C   UNL     1      -5.461   2.565  -4.991  0.00  0.00    +0.020 A 
ATOM     21  C   UNL     1      -6.365   1.639  -5.480  0.00  0.00    +0.018 A 
ATOM     22  C   UNL     1      -7.055   0.816  -4.607  0.00  0.00    +0.019 A 
ATOM     23  C   UNL     1      -6.839   0.915  -3.246  0.00  0.00    +0.046 A 
ATOM     24  C   UNL     1      -5.929   1.839  -2.755  0.00  0.00    +0.118 A 
ATOM     25 BR   UNL     1      -6.663   1.502  -7.342  0.00  0.00    -0.050 Br
BRANCH  24  26
ATOM     26  O   UNL     1      -5.714   1.938  -1.416  0.00  0.00    -0.507 OA
ATOM     27  H   UNL     1      -6.296   2.569  -0.970  0.00  0.00    +0.292 HD
ENDBRANCH  24  26
ENDBRANCH  18  19
ENDBRANCH   6  18
TORSDOF 5
