REMARK  Name = ZINC23538210
REMARK  9 active torsions:
REMARK  status: ('A' for Active; 'I' for Inactive)
REMARK    1  A    between atoms: C_1  and  C_2
REMARK    2  A    between atoms: C_5  and  C_9
REMARK    3  A    between atoms: C_6  and  O_8
REMARK    4  A    between atoms: N_14  and  S_17
REMARK    5  A    between atoms: S_17  and  C_20
REMARK    6  A    between atoms: C_23  and  C_26
REMARK    7  A    between atoms: C_26  and  C_27
REMARK    8  A    between atoms: C_26  and  C_28
REMARK    9  A    between atoms: C_26  and  C_29
REMARK                            x       y       z     vdW  Elec       q    Type
REMARK                         _______ _______ _______ _____ _____    ______ ____
ROOT
ATOM      1  C   UNL     1      -3.761   3.409  -3.634  0.00  0.00    +0.250 C 
ATOM      2  O   UNL     1      -3.513   4.475  -4.165  0.00  0.00    -0.270 OA
ATOM      3  N   UNL     1      -3.204   3.103  -2.445  0.00  0.00    -0.295 N 
ATOM      4  C   UNL     1      -2.226   4.005  -1.823  0.00  0.00    +0.125 C 
ATOM      5  C   UNL     1      -0.943   3.215  -1.536  0.00  0.00    +0.128 C 
ATOM      6  N   UNL     1      -1.303   1.972  -0.840  0.00  0.00    -0.174 NA
ATOM      7  C   UNL     1      -2.278   1.066  -1.465  0.00  0.00    +0.128 C 
ATOM      8  C   UNL     1      -3.565   1.860  -1.749  0.00  0.00    +0.125 C 
ENDROOT
BRANCH   1  13
ATOM      9  C   UNL     1      -7.321  -0.322  -6.190  0.00  0.00    +0.044 C 
ATOM     10  C   UNL     1      -6.386   0.654  -5.524  0.00  0.00    -0.047 A 
ATOM     11  C   UNL     1      -6.636   1.071  -4.226  0.00  0.00    +0.004 A 
ATOM     12  C   UNL     1      -5.789   1.964  -3.607  0.00  0.00    +0.017 A 
ATOM     13  C   UNL     1      -4.673   2.453  -4.290  0.00  0.00    +0.078 A 
ATOM     14  C   UNL     1      -4.426   2.033  -5.604  0.00  0.00    +0.129 A 
ATOM     15  C   UNL     1      -5.287   1.129  -6.210  0.00  0.00    +0.049 A 
BRANCH  14  16
ATOM     16  O   UNL     1      -3.348   2.505  -6.279  0.00  0.00    -0.506 OA
ATOM     17  H   UNL     1      -3.157   2.174  -7.311  0.00  0.00    +0.292 HD
ENDBRANCH  14  16
ENDBRANCH   1  13
BRANCH   6  18
ATOM     18  S   UNL     1      -0.618   1.594   0.620  0.00  0.00    +0.061 S 
ATOM     19  O   UNL     1      -0.702   0.182   0.754  0.00  0.00    -0.153 OA
ATOM     20  O   UNL     1       0.617   2.294   0.681  0.00  0.00    -0.153 OA
BRANCH  18  21
ATOM     21  C   UNL     1      -1.649   2.281   1.872  0.00  0.00    +0.105 A 
ATOM     22  C   UNL     1      -1.416   3.564   2.333  0.00  0.00    +0.029 A 
ATOM     23  C   UNL     1      -2.228   4.105   3.312  0.00  0.00    +0.006 A 
ATOM     24  C   UNL     1      -3.267   3.360   3.838  0.00  0.00    -0.042 A 
ATOM     25  C   UNL     1      -3.497   2.075   3.382  0.00  0.00    +0.006 A 
ATOM     26  C   UNL     1      -2.688   1.536   2.399  0.00  0.00    +0.029 A 
BRANCH  24  27
ATOM     27  C   UNL     1      -4.148   3.947   4.910  0.00  0.00    -0.013 C 
ATOM     28  C   UNL     1      -4.062   3.086   6.171  0.00  0.00    +0.015 C 
ATOM     29  C   UNL     1      -3.683   5.369   5.231  0.00  0.00    +0.015 C 
ATOM     30  C   UNL     1      -5.596   3.985   4.415  0.00  0.00    +0.015 C 
ENDBRANCH  24  27
ENDBRANCH  18  21
ENDBRANCH   6  18
TORSDOF 5
