REMARK  Name = ZINC62874491
REMARK  5 active torsions:
REMARK  status: ('A' for Active; 'I' for Inactive)
REMARK    1  A    between atoms: C_1  and  C_2
REMARK    2  A    between atoms: C_2  and  C_3
REMARK    3  A    between atoms: C_3  and  C_4
REMARK    4  A    between atoms: C_4  and  C_19
REMARK    5  A    between atoms: C_15  and  N_18
REMARK                            x       y       z     vdW  Elec       q    Type
REMARK                         _______ _______ _______ _____ _____    ______ ____
ROOT
ATOM      1  C   UNL     1       1.906  -1.743  -2.063  0.00  0.00    +0.088 C 
ATOM      2  C   UNL     1       2.625  -3.022  -2.498  0.00  0.00    +0.021 C 
ATOM      3  C   UNL     1       3.988  -3.103  -1.808  0.00  0.00    +0.020 C 
ATOM      4  C   UNL     1       3.785  -3.155  -0.290  0.00  0.00    +0.109 C 
ATOM      5  N   UNL     1       2.970  -2.003   0.117  0.00  0.00    -0.284 N 
ATOM      6  C   UNL     1       1.679  -1.780  -0.548  0.00  0.00    +0.127 C 
ATOM      7  C   UNL     1       3.397  -1.166   1.084  0.00  0.00    +0.305 C 
ATOM      8  O   UNL     1       4.468  -0.602   0.970  0.00  0.00    -0.252 OA
ATOM      9  N   UNL     1       2.638  -0.955   2.177  0.00  0.00    -0.286 N 
ATOM     10  C   UNL     1       1.257  -1.454   2.236  0.00  0.00    +0.108 C 
ATOM     11  C   UNL     1       0.326  -0.289   2.588  0.00  0.00    +0.003 C 
ATOM     12  C   UNL     1       0.811   0.374   3.880  0.00  0.00    -0.072 C 
ATOM     13  C   UNL     1       2.223   0.928   3.671  0.00  0.00    +0.003 C 
ATOM     14  C   UNL     1       3.176  -0.228   3.334  0.00  0.00    +0.108 C 
ENDROOT
BRANCH  12  15
ATOM     15  N   UNL     1      -0.098   1.471   4.238  0.00  0.00    +0.380 N 
ATOM     16  H   UNL     1      -1.028   1.105   4.376  0.00  0.00    -0.090 HD
ATOM     17  H   UNL     1       0.222   1.908   5.089  0.00  0.00    -0.090 HD
ATOM     18  H   UNL     1      -0.111   2.153   3.494  0.00  0.00    -0.090 HD
ENDBRANCH  12  15
BRANCH   1  19
ATOM     19  C   UNL     1       0.577  -1.648  -2.768  0.00  0.00    +0.364 C 
ATOM     20  O   UNL     1       0.338  -0.696  -3.491  0.00  0.00    -0.246 OA
ATOM     21  O   UNL     1      -0.258  -2.523  -2.615  0.00  0.00    -0.246 OA
ENDBRANCH   1  19
BRANCH   1  22
ATOM     22  C   UNL     1       2.763  -0.528  -2.422  0.00  0.00    +0.019 C 
BRANCH  22  24
ATOM     23  C   UNL     1       3.021   1.940  -2.132  0.00  0.00    +0.004 C 
ATOM     24  C   UNL     1       2.115   0.738  -1.858  0.00  0.00    -0.002 C 
ENDBRANCH  22  24
ENDBRANCH   1  22
TORSDOF 4
