REMARK  Name = ZINC39440009
REMARK  8 active torsions:
REMARK  status: ('A' for Active; 'I' for Inactive)
REMARK    1  A    between atoms: C_1  and  C_2
REMARK    2  A    between atoms: C_2  and  C_3
REMARK    3  A    between atoms: C_2  and  C_4
REMARK    4  A    between atoms: C_10  and  S_14
REMARK    5  A    between atoms: S_14  and  C_15
REMARK    6  A    between atoms: C_15  and  C_16
REMARK    7  A    between atoms: C_19  and  N_23
REMARK    8  A    between atoms: C_20  and  C_21
REMARK                            x       y       z     vdW  Elec       q    Type
REMARK                         _______ _______ _______ _____ _____    ______ ____
ROOT
ATOM      1  C   UNL     1      -1.301  -0.520   0.617  0.00  0.00    +0.058 C 
ATOM      2  C   UNL     1      -1.284  -2.051   0.634  0.00  0.00    +0.171 C 
ATOM      3  C   UNL     1      -2.727  -2.466   0.879  0.00  0.00    +0.212 C 
ATOM      4  N   UNL     1      -2.998  -3.176   1.935  0.00  0.00    -0.192 NA
ATOM      5  C   UNL     1      -2.049  -3.525   2.814  0.00  0.00    +0.184 C 
ATOM      6  N   UNL     1      -0.774  -3.192   2.722  0.00  0.00    -0.154 NA
ATOM      7  C   UNL     1      -0.286  -2.473   1.697  0.00  0.00    +0.251 C 
ATOM      8  O   UNL     1       0.889  -2.169   1.621  0.00  0.00    -0.273 OA
ATOM      9  O   UNL     1      -3.659  -2.065   0.002  0.00  0.00    -0.426 OA
ATOM     10  C   UNL     1      -3.553  -0.794  -0.454  0.00  0.00    +0.200 C 
ATOM     11  C   UNL     1      -2.466  -0.034  -0.201  0.00  0.00    +0.091 C 
ENDROOT
BRANCH   1  13
ATOM     12  C   UNL     1       0.015  -0.310  -1.497  0.00  0.00    +0.008 C 
ATOM     13  C   UNL     1       0.002  -0.004   0.002  0.00  0.00    -0.008 C 
ATOM     14  C   UNL     1       0.103   1.508   0.214  0.00  0.00    +0.008 C 
ENDBRANCH   1  13
BRANCH  10  15
ATOM     15  N   UNL     1      -4.580  -0.264  -1.195  0.00  0.00    -0.328 N 
ATOM     16  H   UNL     1      -5.366  -0.798  -1.386  0.00  0.00    +0.145 HD
ATOM     17  H   UNL     1      -4.518   0.645  -1.528  0.00  0.00    +0.145 HD
ENDBRANCH  10  15
BRANCH  11  18
ATOM     18  C   UNL     1      -2.422   1.294  -0.734  0.00  0.00    +0.100 C 
ATOM     19  N   UNL     1      -2.387   2.348  -1.157  0.00  0.00    -0.191 NA
ENDBRANCH  11  18
BRANCH   5  20
ATOM     20  S   UNL     1      -2.539  -4.502   4.196  0.00  0.00    -0.084 S 
BRANCH  20  21
ATOM     21  C   UNL     1      -1.001  -4.754   5.123  0.00  0.00    +0.103 C 
BRANCH  21  22
ATOM     22  C   UNL     1      -1.282  -5.586   6.348  0.00  0.00    -0.023 C 
ATOM     23  C   UNL     1      -0.757  -6.781   6.463  0.00  0.00    +0.005 C 
ENDBRANCH  21  22
ENDBRANCH  20  21
ENDBRANCH   5  20
TORSDOF 6
