REMARK  Name = ZINC39580841
REMARK  4 active torsions:
REMARK  status: ('A' for Active; 'I' for Inactive)
REMARK    1  A    between atoms: C_4  and  C_7
REMARK    2  A    between atoms: C_11  and  C_35
REMARK    3  A    between atoms: C_14  and  C_29
REMARK    4  A    between atoms: C_20  and  C_23
REMARK                            x       y       z     vdW  Elec       q    Type
REMARK                         _______ _______ _______ _____ _____    ______ ____
ROOT
ATOM      1  C   UNL     1       4.138  -0.680  -0.326  0.00  0.00    -0.027 C 
ATOM      2  C   UNL     1       4.323  -1.429  -1.657  0.00  0.00    +0.079 C 
ATOM      3  C   UNL     1       3.116  -2.365  -1.843  0.00  0.00    +0.158 C 
ATOM      4  O   UNL     1       3.040  -3.256  -0.730  0.00  0.00    -0.363 OA
ATOM      5  C   UNL     1       4.154  -4.137  -0.576  0.00  0.00    +0.158 C 
ATOM      6  C   UNL     1       5.422  -3.306  -0.316  0.00  0.00    +0.079 C 
ATOM      7  C   UNL     1       5.552  -2.317  -1.487  0.00  0.00    +0.143 C 
ATOM      8  O   UNL     1       6.518  -2.254  -2.209  0.00  0.00    -0.297 OA
ATOM      9  C   UNL     1       5.185  -2.467   0.951  0.00  0.00    -0.027 C 
ATOM     10  N   UNL     1       3.980  -1.652   0.761  0.00  0.00    +0.389 N 
ATOM     11  H   UNL     1       3.775  -1.161   1.618  0.00  0.00    -0.084 HD
ATOM     12  H   UNL     1       3.213  -2.271   0.543  0.00  0.00    -0.084 HD
ENDROOT
BRANCH   1  16
ATOM     13  C   UNL     1       0.659   1.787  -0.551  0.00  0.00    +0.000 A 
ATOM     14  C   UNL     1       1.672   1.935  -1.480  0.00  0.00    +0.000 A 
ATOM     15  C   UNL     1       2.798   1.137  -1.407  0.00  0.00    +0.002 A 
ATOM     16  C   UNL     1       2.911   0.191  -0.405  0.00  0.00    -0.061 A 
ATOM     17  C   UNL     1       1.898   0.043   0.524  0.00  0.00    +0.002 A 
ATOM     18  C   UNL     1       0.771   0.841   0.450  0.00  0.00    +0.000 A 
ENDBRANCH   1  16
BRANCH   9  19
ATOM     19  C   UNL     1       6.362  -1.554   1.177  0.00  0.00    -0.061 A 
ATOM     20  C   UNL     1       6.204  -0.388   1.902  0.00  0.00    +0.002 A 
ATOM     21  C   UNL     1       7.284   0.449   2.110  0.00  0.00    +0.000 A 
ATOM     22  C   UNL     1       8.523   0.119   1.594  0.00  0.00    +0.000 A 
ATOM     23  C   UNL     1       8.682  -1.048   0.870  0.00  0.00    +0.000 A 
ATOM     24  C   UNL     1       7.603  -1.887   0.666  0.00  0.00    +0.002 A 
ENDBRANCH   9  19
BRANCH   5  25
ATOM     25  C   UNL     1       4.331  -4.950  -1.833  0.00  0.00    -0.018 A 
ATOM     26  C   UNL     1       5.578  -5.445  -2.165  0.00  0.00    +0.006 A 
ATOM     27  C   UNL     1       5.741  -6.190  -3.318  0.00  0.00    +0.000 A 
ATOM     28  C   UNL     1       4.656  -6.441  -4.138  0.00  0.00    +0.000 A 
ATOM     29  C   UNL     1       3.409  -5.947  -3.804  0.00  0.00    +0.000 A 
ATOM     30  C   UNL     1       3.246  -5.205  -2.650  0.00  0.00    +0.006 A 
ENDBRANCH   5  25
BRANCH   3  31
ATOM     31  C   UNL     1       1.852  -1.548  -1.923  0.00  0.00    -0.018 A 
ATOM     32  C   UNL     1       1.689  -0.625  -2.939  0.00  0.00    +0.006 A 
ATOM     33  C   UNL     1       0.530   0.125  -3.012  0.00  0.00    +0.000 A 
ATOM     34  C   UNL     1      -0.467  -0.049  -2.070  0.00  0.00    +0.000 A 
ATOM     35  C   UNL     1      -0.304  -0.972  -1.054  0.00  0.00    +0.000 A 
ATOM     36  C   UNL     1       0.854  -1.725  -0.983  0.00  0.00    +0.006 A 
ENDBRANCH   3  31
TORSDOF 4
