REMARK  Name = ZINC15181099
REMARK  6 active torsions:
REMARK  status: ('A' for Active; 'I' for Inactive)
REMARK    1  A    between atoms: C_6  and  N_7
REMARK    2  A    between atoms: C_11  and  C_13
REMARK    3  A    between atoms: C_13  and  O_14
REMARK    4  A    between atoms: O_14  and  C_15
REMARK    5  A    between atoms: C_15  and  C_17
REMARK    6  A    between atoms: C_22  and  O_23
REMARK                            x       y       z     vdW  Elec       q    Type
REMARK                         _______ _______ _______ _____ _____    ______ ____
ROOT
ATOM      1  N   UNL     1       3.622  -0.664  -0.047  0.00  0.00    -0.269 N 
ATOM      2  C   UNL     1       3.639  -2.008   0.046  0.00  0.00    +0.310 C 
ATOM      3  O   UNL     1       2.595  -2.630   0.056  0.00  0.00    -0.252 OA
ATOM      4  N   UNL     1       4.814  -2.663   0.129  0.00  0.00    -0.237 N 
ATOM      5  C   UNL     1       4.832  -4.007   0.222  0.00  0.00    +0.258 C 
ATOM      6  O   UNL     1       3.790  -4.628   0.232  0.00  0.00    -0.272 OA
ATOM      7  H   UNL     1       4.454  -0.172  -0.132  0.00  0.00    +0.156 HD
ATOM      8  H   UNL     1       5.647  -2.166   0.121  0.00  0.00    +0.159 HD
ENDROOT
BRANCH   1  14
ATOM      9  C   UNL     1       1.347  -0.460   0.741  0.00  0.00    +0.027 A 
ATOM     10  C   UNL     1       0.143   0.217   0.766  0.00  0.00    +0.051 A 
ATOM     11  C   UNL     1      -0.016   1.383   0.032  0.00  0.00    +0.162 A 
ATOM     12  C   UNL     1       1.040   1.873  -0.728  0.00  0.00    +0.164 A 
ATOM     13  C   UNL     1       2.247   1.192  -0.755  0.00  0.00    +0.072 A 
ATOM     14  C   UNL     1       2.401   0.025  -0.020  0.00  0.00    +0.038 A 
ATOM     15  O   UNL     1       0.905   3.021  -1.448  0.00  0.00    -0.485 OA
ATOM     16  C   UNL     1      -0.430   3.473  -1.696  0.00  0.00    +0.270 C 
ATOM     17  C   UNL     1      -1.216   3.395  -0.380  0.00  0.00    +0.270 C 
ATOM     18  O   UNL     1      -1.213   2.033   0.063  0.00  0.00    -0.485 OA
ENDBRANCH   1  14
BRANCH   5  19
ATOM     19  C   UNL     1       6.146  -4.739   0.314  0.00  0.00    +0.328 C 
BRANCH  19  20
ATOM     20  O   UNL     1       5.899  -6.167   0.405  0.00  0.00    -0.452 OA
BRANCH  20  21
ATOM     21  C   UNL     1       6.978  -6.969   0.495  0.00  0.00    +0.343 C 
ATOM     22  O   UNL     1       8.094  -6.489   0.497  0.00  0.00    -0.245 OA
BRANCH  21  23
ATOM     23  C   UNL     1       6.804  -8.430   0.590  0.00  0.00    +0.101 A 
ATOM     24  C   UNL     1       5.522  -8.987   0.587  0.00  0.00    +0.034 A 
ATOM     25  C   UNL     1       5.367 -10.354   0.676  0.00  0.00    +0.019 A 
ATOM     26  C   UNL     1       6.476 -11.179   0.767  0.00  0.00    +0.019 A 
ATOM     27  C   UNL     1       7.748 -10.642   0.771  0.00  0.00    +0.047 A 
ATOM     28  C   UNL     1       7.924  -9.269   0.677  0.00  0.00    +0.131 A 
ATOM     29 BR   UNL     1       3.631 -11.106   0.673  0.00  0.00    -0.050 Br
BRANCH  28  30
ATOM     30  O   UNL     1       9.173  -8.741   0.675  0.00  0.00    -0.506 OA
ATOM     31  H   UNL     1       9.511  -8.527   1.555  0.00  0.00    +0.292 HD
ENDBRANCH  28  30
ENDBRANCH  21  23
ENDBRANCH  20  21
ENDBRANCH  19  20
ENDBRANCH   5  19
TORSDOF 6
