REMARK  Name = ZINC38259396
REMARK  6 active torsions:
REMARK  status: ('A' for Active; 'I' for Inactive)
REMARK    1  A    between atoms: C_1  and  C_2
REMARK    2  A    between atoms: C_2  and  N_3
REMARK    3  A    between atoms: C_9  and  O_21
REMARK    4  A    between atoms: C_10  and  O_20
REMARK    5  A    between atoms: N_15  and  C_18
REMARK    6  A    between atoms: C_18  and  C_19
REMARK                            x       y       z     vdW  Elec       q    Type
REMARK                         _______ _______ _______ _____ _____    ______ ____
ROOT
ATOM      1  N   UNL     1       0.688  -0.476  -1.203  0.00  0.00    -0.288 N 
ATOM      2  C   UNL     1      -0.019  -0.698  -2.332  0.00  0.00    +0.266 A 
ATOM      3  O   UNL     1      -1.222  -0.507  -2.355  0.00  0.00    -0.267 OA
ATOM      4  C   UNL     1       0.657  -1.153  -3.487  0.00  0.00    +0.110 A 
ATOM      5  C   UNL     1       0.243  -1.495  -4.859  0.00  0.00    +0.038 A 
ATOM      6  C   UNL     1      -0.975  -1.497  -5.533  0.00  0.00    +0.061 A 
ATOM      7  C   UNL     1      -1.023  -1.884  -6.859  0.00  0.00    +0.159 A 
ATOM      8  C   UNL     1       0.145  -2.271  -7.516  0.00  0.00    +0.162 A 
ATOM      9  C   UNL     1       1.356  -2.272  -6.850  0.00  0.00    +0.096 A 
ATOM     10  C   UNL     1       1.419  -1.883  -5.517  0.00  0.00    +0.142 A 
ATOM     11  O   UNL     1       2.443  -1.789  -4.640  0.00  0.00    -0.438 OA
ATOM     12  C   UNL     1       2.027  -1.363  -3.439  0.00  0.00    +0.217 A 
ATOM     13  N   UNL     1       2.688  -1.119  -2.257  0.00  0.00    -0.291 N 
ATOM     14  C   UNL     1       2.016  -0.681  -1.177  0.00  0.00    +0.166 A 
ATOM     15  S   UNL     1       2.876  -0.381   0.273  0.00  0.00    -0.013 S 
ENDROOT
BRANCH   1  17
ATOM     16  C   UNL     1      -0.019   1.526   0.010  0.00  0.00    +0.027 C 
ATOM     17  C   UNL     1       0.002  -0.004   0.002  0.00  0.00    +0.124 C 
ENDBRANCH   1  17
BRANCH  13  18
ATOM     18  C   UNL     1       4.135  -1.332  -2.176  0.00  0.00    +0.124 C 
ATOM     19  C   UNL     1       4.862  -0.040  -2.554  0.00  0.00    +0.027 C 
ENDBRANCH  13  18
BRANCH   8  20
ATOM     20  O   UNL     1       0.091  -2.652  -8.820  0.00  0.00    -0.503 OA
ATOM     21  H   UNL     1       0.213  -1.926  -9.447  0.00  0.00    +0.292 HD
ENDBRANCH   8  20
BRANCH   7  22
ATOM     22  O   UNL     1      -2.211  -1.889  -7.523  0.00  0.00    -0.503 OA
ATOM     23  H   UNL     1      -2.417  -1.054  -7.965  0.00  0.00    +0.292 HD
ENDBRANCH   7  22
TORSDOF 4
