REMARK  Name = ZINC03954116
REMARK  4 active torsions:
REMARK  status: ('A' for Active; 'I' for Inactive)
REMARK    1  A    between atoms: C_1  and  C_2
REMARK    2  A    between atoms: C_13  and  O_15
REMARK    3  A    between atoms: O_15  and  C_16
REMARK    4  A    between atoms: C_16  and  O_27
REMARK                            x       y       z     vdW  Elec       q    Type
REMARK                         _______ _______ _______ _____ _____    ______ ____
ROOT
ATOM      1  C   UNL     1       4.806   0.460  -3.197  0.00  0.00    +0.014 C 
ATOM      2  C   UNL     1       5.256   1.406  -2.081  0.00  0.00    -0.003 C 
ATOM      3  C   UNL     1       6.441   0.797  -1.363  0.00  0.00    +0.010 C 
ATOM      4  C   UNL     1       7.523   0.497  -2.412  0.00  0.00    +0.005 C 
ATOM      5  C   UNL     1       7.920   1.750  -3.187  0.00  0.00    -0.000 C 
ATOM      6  C   UNL     1       6.700   2.442  -3.813  0.00  0.00    -0.003 C 
ATOM      7  C   UNL     1       5.726   2.753  -2.691  0.00  0.00    +0.001 C 
ATOM      8  C   UNL     1       4.395   3.382  -3.118  0.00  0.00    +0.007 C 
ATOM      9  C   UNL     1       3.457   3.054  -1.924  0.00  0.00    +0.032 C 
ATOM     10  C   UNL     1       4.057   1.806  -1.228  0.00  0.00    +0.129 C 
ATOM     11  C   UNL     1       7.150   3.743  -4.483  0.00  0.00    +0.008 C 
ATOM     12  C   UNL     1       8.082   3.413  -5.651  0.00  0.00    +0.031 C 
ATOM     13  C   UNL     1       9.228   2.563  -5.133  0.00  0.00    -0.063 C 
ATOM     14  C   UNL     1      10.467   2.917  -5.473  0.00  0.00    +0.045 C 
ATOM     15  C   UNL     1      11.609   2.110  -5.030  0.00  0.00    +0.156 C 
ATOM     16  O   UNL     1      12.733   2.566  -4.985  0.00  0.00    -0.293 OA
ATOM     17  C   UNL     1      11.312   0.678  -4.630  0.00  0.00    +0.079 C 
ATOM     18  C   UNL     1      10.128   0.709  -3.665  0.00  0.00    +0.016 C 
ATOM     19  C   UNL     1       8.911   1.365  -4.292  0.00  0.00    +0.019 C 
ENDROOT
BRANCH  10  20
ATOM     20  O   UNL     1       3.096   0.749  -1.196  0.00  0.00    -0.333 OA
BRANCH  20  21
ATOM     21  C   UNL     1       2.291   0.731  -0.016  0.00  0.00    +0.298 C 
ATOM     22  C   UNL     1       1.363   1.922  -0.001  0.00  0.00    +0.231 C 
ATOM     23  O   UNL     1       1.691   3.089   0.003  0.00  0.00    -0.286 OA
ATOM     24  C   UNL     1      -0.017   1.404   0.010  0.00  0.00    +0.034 A 
ATOM     25  C   UNL     1      -1.242   2.075   0.030  0.00  0.00    +0.012 A 
ATOM     26  C   UNL     1      -2.424   1.359   0.033  0.00  0.00    +0.001 A 
ATOM     27  C   UNL     1      -2.405  -0.025   0.026  0.00  0.00    +0.001 A 
ATOM     28  C   UNL     1      -1.205  -0.708   0.010  0.00  0.00    +0.012 A 
ATOM     29  C   UNL     1       0.002  -0.004   0.002  0.00  0.00    +0.034 A 
ATOM     30  C   UNL     1       1.395  -0.485  -0.014  0.00  0.00    +0.231 C 
ATOM     31  O   UNL     1       1.756  -1.643  -0.023  0.00  0.00    -0.286 OA
BRANCH  21  32
ATOM     32  O   UNL     1       3.120   0.735   1.148  0.00  0.00    -0.353 OA
ATOM     33  H   UNL     1       2.629   0.741   1.981  0.00  0.00    +0.214 HD
ENDBRANCH  21  32
ENDBRANCH  20  21
ENDBRANCH  10  20
TORSDOF 3
