REMARK  Name = ZINC05131996
REMARK  6 active torsions:
REMARK  status: ('A' for Active; 'I' for Inactive)
REMARK    1  A    between atoms: C_1  and  C_2
REMARK    2  A    between atoms: C_1  and  O_23
REMARK    3  A    between atoms: C_2  and  C_4
REMARK    4  A    between atoms: C_2  and  O_22
REMARK    5  A    between atoms: C_6  and  O_21
REMARK    6  A    between atoms: C_14  and  C_17
REMARK                            x       y       z     vdW  Elec       q    Type
REMARK                         _______ _______ _______ _____ _____    ______ ____
ROOT
ATOM      1  C   UNL     1       1.575  -0.507   2.431  0.00  0.00    +0.183 C 
ATOM      2  C   UNL     1       1.573  -1.423   1.190  0.00  0.00    +0.180 C 
ATOM      3  C   UNL     1       1.380  -0.421   0.024  0.00  0.00    +0.208 C 
ATOM      4  C   UNL     1       2.119   0.838   0.578  0.00  0.00    +0.285 C 
ATOM      5  O   UNL     1       1.905   0.815   1.994  0.00  0.00    -0.340 OA
ATOM      6  O   UNL     1       1.337   1.909  -0.001  0.00  0.00    -0.316 OA
ATOM      7  C   UNL     1      -0.017   1.430   0.010  0.00  0.00    +0.305 C 
ATOM      8  O   UNL     1       0.002  -0.004   0.002  0.00  0.00    -0.336 OA
ENDROOT
BRANCH   7   9
ATOM      9  C   UNL     1      -0.753   1.941  -1.230  0.00  0.00    +0.241 C 
ATOM     10 CL   UNL     1      -2.446   1.320  -1.224  0.00  0.00    -0.078 Cl
ATOM     11 CL   UNL     1      -0.775   3.744  -1.215  0.00  0.00    -0.078 Cl
ATOM     12 CL   UNL     1       0.094   1.362  -2.713  0.00  0.00    -0.078 Cl
ENDBRANCH   7   9
BRANCH   2  13
ATOM     13  O   UNL     1       2.819  -2.110   1.066  0.00  0.00    -0.386 OA
ATOM     14  H   UNL     1       2.899  -2.638   0.260  0.00  0.00    +0.210 HD
ENDBRANCH   2  13
BRANCH   1  15
ATOM     15  C   UNL     1       2.620  -0.997   3.435  0.00  0.00    +0.171 C 
BRANCH  15  16
ATOM     16  O   UNL     1       2.306  -2.333   3.835  0.00  0.00    -0.387 OA
ATOM     17  H   UNL     1       1.440  -2.424   4.256  0.00  0.00    +0.210 HD
ENDBRANCH  15  16
BRANCH  15  18
ATOM     18  C   UNL     1       2.615  -0.083   4.662  0.00  0.00    +0.189 C 
BRANCH  18  19
ATOM     19  O   UNL     1       3.668  -0.470   5.548  0.00  0.00    -0.392 OA
ATOM     20  H   UNL     1       3.725   0.068   6.350  0.00  0.00    +0.210 HD
ENDBRANCH  18  19
ENDBRANCH  15  18
ENDBRANCH   1  15
TORSDOF 6
