REMARK  Name = ZINC61691175
REMARK  3 active torsions:
REMARK  status: ('A' for Active; 'I' for Inactive)
REMARK    1  A    between atoms: C_4  and  N_8
REMARK    2  A    between atoms: N_8  and  C_9
REMARK    3  A    between atoms: C_16  and  O_18
REMARK                            x       y       z     vdW  Elec       q    Type
REMARK                         _______ _______ _______ _____ _____    ______ ____
ROOT
ATOM      1  N   UNL     1       3.621  -0.651  -0.036  0.00  0.00    -0.336 N 
ATOM      2  H   UNL     1       4.454  -0.153  -0.042  0.00  0.00    +0.147 HD
ENDROOT
BRANCH   1   6
ATOM      3  C   UNL     1      -0.017   1.379   0.010  0.00  0.00    +0.017 A 
ATOM      4  C   UNL     1       1.170   2.090   0.002  0.00  0.00    +0.023 A 
ATOM      5  C   UNL     1       2.378   1.420  -0.013  0.00  0.00    +0.062 A 
ATOM      6  C   UNL     1       2.400   0.030  -0.021  0.00  0.00    +0.047 A 
ATOM      7  C   UNL     1       1.208  -0.680  -0.013  0.00  0.00    +0.039 A 
ATOM      8  C   UNL     1       0.002  -0.004   0.002  0.00  0.00    +0.020 A 
ATOM      9 BR   UNL     1      -1.623  -0.971   0.013  0.00  0.00    -0.050 Br
ATOM     10 CL   UNL     1       3.867   2.313  -0.023  0.00  0.00    -0.082 Cl
ENDBRANCH   1   6
BRANCH   1  11
ATOM     11  C   UNL     1       3.642  -2.116  -0.044  0.00  0.00    +0.121 C 
ATOM     12  C   UNL     1       3.501  -2.619   1.410  0.00  0.00    +0.190 C 
ATOM     13  S   UNL     1       4.609  -4.095   1.389  0.00  0.00    -0.027 S 
ATOM     14  O   UNL     1       3.908  -5.202   0.839  0.00  0.00    -0.174 OA
ATOM     15  O   UNL     1       5.247  -4.222   2.652  0.00  0.00    -0.174 OA
ATOM     16  C   UNL     1       5.823  -3.462   0.150  0.00  0.00    +0.199 C 
ATOM     17  C   UNL     1       4.918  -2.579  -0.732  0.00  0.00    +0.157 C 
BRANCH  17  18
ATOM     18  O   UNL     1       5.662  -1.427  -1.136  0.00  0.00    -0.388 OA
ATOM     19  H   UNL     1       6.494  -1.634  -1.584  0.00  0.00    +0.210 HD
ENDBRANCH  17  18
ENDBRANCH   1  11
TORSDOF 3
