REMARK  Name = ZINC45075420
REMARK  5 active torsions:
REMARK  status: ('A' for Active; 'I' for Inactive)
REMARK    1  A    between atoms: C_1  and  O_2
REMARK    2  A    between atoms: O_2  and  C_3
REMARK    3  A    between atoms: C_5  and  C_11
REMARK    4  A    between atoms: C_8  and  O_9
REMARK    5  A    between atoms: N_13  and  N_14
REMARK                            x       y       z     vdW  Elec       q    Type
REMARK                         _______ _______ _______ _____ _____    ______ ____
ROOT
ATOM      1  C   UNL     1      -4.856   0.228   0.038  0.00  0.00    +0.260 C 
ATOM      2  O   UNL     1      -4.813   1.443   0.040  0.00  0.00    -0.269 OA
ATOM      3  N   UNL     1      -6.046  -0.405   0.046  0.00  0.00    -0.230 N 
ATOM      4  H   UNL     1      -6.080  -1.374   0.045  0.00  0.00    +0.173 HD
ENDROOT
BRANCH   3   5
ATOM      5  N   UNL     1      -7.234   0.338   0.056  0.00  0.00    -0.232 N 
ATOM      6  C   UNL     1      -8.456  -0.311   0.065  0.00  0.00    +0.232 A 
ATOM      7  N   UNL     1      -8.485  -1.636   0.068  0.00  0.00    -0.222 NA
ATOM      8  C   UNL     1      -9.636  -2.287   0.076  0.00  0.00    +0.116 A 
ATOM      9  C   UNL     1     -10.820  -1.567   0.081  0.00  0.00    +0.039 A 
ATOM     10  C   UNL     1     -10.754  -0.183   0.076  0.00  0.00    +0.116 A 
ATOM     11  N   UNL     1      -9.570   0.407   0.074  0.00  0.00    -0.222 NA
ATOM     12  H   UNL     1      -7.200   1.308   0.058  0.00  0.00    +0.173 HD
ENDBRANCH   3   5
BRANCH   1  15
ATOM     13  C   UNL     1      -1.201  -0.638   0.010  0.00  0.00    +0.163 A 
ATOM     14  C   UNL     1      -2.370   0.099   0.019  0.00  0.00    +0.062 A 
ATOM     15  C   UNL     1      -3.605  -0.555   0.028  0.00  0.00    +0.043 A 
ATOM     16  C   UNL     1      -3.652  -1.952   0.026  0.00  0.00    +0.032 A 
ATOM     17  C   UNL     1      -2.482  -2.681   0.017  0.00  0.00    +0.064 A 
ATOM     18  C   UNL     1      -1.255  -2.030   0.003  0.00  0.00    +0.173 A 
ATOM     19 BR   UNL     1      -2.549  -4.571   0.016  0.00  0.00    -0.046 Br
BRANCH  13  21
ATOM     20  C   UNL     1      -0.017   1.425   0.010  0.00  0.00    +0.277 C 
ATOM     21  O   UNL     1       0.002  -0.004   0.002  0.00  0.00    -0.491 OA
ENDBRANCH  13  21
BRANCH  18  22
ATOM     22  O   UNL     1      -0.105  -2.753  -0.012  0.00  0.00    -0.503 OA
ATOM     23  H   UNL     1       0.236  -2.967   0.867  0.00  0.00    +0.292 HD
ENDBRANCH  18  22
ENDBRANCH   1  15
TORSDOF 4
