REMARK  Name = ZINC15056843
REMARK  6 active torsions:
REMARK  status: ('A' for Active; 'I' for Inactive)
REMARK    1  A    between atoms: C_1  and  C_2
REMARK    2  A    between atoms: C_7  and  N_8
REMARK    3  A    between atoms: C_9  and  C_11
REMARK    4  A    between atoms: C_11  and  O_12
REMARK    5  A    between atoms: O_12  and  C_13
REMARK    6  A    between atoms: C_18  and  C_19
REMARK                            x       y       z     vdW  Elec       q    Type
REMARK                         _______ _______ _______ _____ _____    ______ ____
ROOT
ATOM      1  C   UNL     1      -0.573  -0.357   7.264  0.00  0.00    +0.128 A 
ATOM      2  C   UNL     1      -0.702   1.004   7.486  0.00  0.00    +0.046 A 
ATOM      3  C   UNL     1      -0.767   1.493   8.777  0.00  0.00    +0.004 A 
ATOM      4  C   UNL     1      -0.705   0.630   9.858  0.00  0.00    +0.001 A 
ATOM      5  C   UNL     1      -0.577  -0.727   9.659  0.00  0.00    +0.011 A 
ATOM      6  C   UNL     1      -0.515  -1.237   8.357  0.00  0.00    +0.018 A 
ENDROOT
BRANCH   6   7
ATOM      7  C   UNL     1      -0.385  -2.683   8.135  0.00  0.00    +0.032 C 
ATOM      8  C   UNL     1       0.051  -3.487   9.138  0.00  0.00    +0.078 C 
ATOM      9  C   UNL     1       0.084  -4.960   9.209  0.00  0.00    +0.256 C 
ATOM     10  O   UNL     1      -0.313  -5.650   8.288  0.00  0.00    -0.269 OA
ATOM     11  N   UNL     1       0.565  -5.497  10.318  0.00  0.00    -0.261 N 
ATOM     12  C   UNL     1       1.010  -4.696  11.350  0.00  0.00    +0.158 C 
ATOM     13  N   UNL     1       1.508  -5.057  12.500  0.00  0.00    -0.279 NA
ATOM     14  S   UNL     1       0.745  -3.045  10.724  0.00  0.00    -0.049 S 
ATOM     15  H   UNL     1       0.604  -6.462  10.406  0.00  0.00    +0.157 HD
ATOM     16  H   UNL     1       1.785  -4.384  13.142  0.00  0.00    +0.189 HD
ENDBRANCH   6   7
BRANCH   1  17
ATOM     17  O   UNL     1      -0.510  -0.839   5.996  0.00  0.00    -0.482 OA
BRANCH  17  18
ATOM     18  C   UNL     1      -0.575   0.117   4.936  0.00  0.00    +0.324 C 
BRANCH  18  20
ATOM     19  N   UNL     1      -0.532   0.107   2.462  0.00  0.00    -0.282 N 
ATOM     20  C   UNL     1      -0.490  -0.597   3.611  0.00  0.00    +0.255 C 
ATOM     21  O   UNL     1      -0.384  -1.805   3.579  0.00  0.00    -0.272 OA
ATOM     22  H   UNL     1      -0.536   1.077   2.488  0.00  0.00    +0.155 HD
BRANCH  19  29
ATOM     23  C   UNL     1      -1.947   1.322   0.314  0.00  0.00    +0.045 C 
ATOM     24  C   UNL     1      -1.248  -0.004   0.159  0.00  0.00    -0.029 A 
ATOM     25  C   UNL     1      -1.277  -0.663  -1.055  0.00  0.00    +0.005 A 
ATOM     26  C   UNL     1      -0.636  -1.879  -1.198  0.00  0.00    +0.000 A 
ATOM     27  C   UNL     1       0.037  -2.440  -0.128  0.00  0.00    +0.002 A 
ATOM     28  C   UNL     1       0.071  -1.786   1.088  0.00  0.00    +0.023 A 
ATOM     29  C   UNL     1      -0.568  -0.561   1.234  0.00  0.00    +0.036 A 
ENDBRANCH  19  29
ENDBRANCH  18  20
ENDBRANCH  17  18
ENDBRANCH   1  17
TORSDOF 5
