REMARK  Name = ZINC43410586
REMARK  3 active torsions:
REMARK  status: ('A' for Active; 'I' for Inactive)
REMARK    1  A    between atoms: C_1  and  C_2
REMARK    2  A    between atoms: C_10  and  C_19
REMARK    3  A    between atoms: N_20  and  O_21
REMARK                            x       y       z     vdW  Elec       q    Type
REMARK                         _______ _______ _______ _____ _____    ______ ____
ROOT
ATOM      1  C   UNL     1      -2.237   0.608   2.788  0.00  0.00    +0.039 C 
ATOM      2  C   UNL     1      -1.787   0.054   1.434  0.00  0.00    +0.132 C 
ATOM      3  C   UNL     1      -1.982  -1.466   1.412  0.00  0.00    +0.137 C 
ATOM      4  N   UNL     1      -1.372  -1.995   0.182  0.00  0.00    -0.311 N 
ATOM      5  C   UNL     1       0.010  -1.598  -0.130  0.00  0.00    +0.134 C 
ATOM      6  C   UNL     1       0.108  -0.072  -0.033  0.00  0.00    +0.179 C 
ATOM      7  O   UNL     1      -0.404   0.355   1.232  0.00  0.00    -0.374 OA
ATOM      8  C   UNL     1      -2.079  -2.841  -0.658  0.00  0.00    +0.110 A 
ATOM      9  C   UNL     1      -1.948  -4.232  -0.520  0.00  0.00    +0.056 A 
ATOM     10  C   UNL     1      -2.669  -5.056  -1.385  0.00  0.00    +0.020 A 
ATOM     11  C   UNL     1      -3.489  -4.471  -2.344  0.00  0.00    -0.027 A 
ATOM     12  C   UNL     1      -3.573  -3.099  -2.416  0.00  0.00    +0.021 A 
ATOM     13  N   UNL     1      -2.876  -2.337  -1.580  0.00  0.00    -0.346 N 
ATOM     14  C   UNL     1      -4.455  -2.398  -3.418  0.00  0.00    +0.053 C 
ATOM     15  C   UNL     1      -4.838  -3.346  -4.553  0.00  0.00    +0.006 C 
ATOM     16  C   UNL     1      -5.397  -4.635  -3.940  0.00  0.00    +0.005 C 
ATOM     17  C   UNL     1      -4.249  -5.385  -3.268  0.00  0.00    +0.037 C 
ATOM     18  H   UNL     1      -2.953  -1.373  -1.653  0.00  0.00    +0.167 HD
ENDROOT
BRANCH   9  19
ATOM     19  C   UNL     1      -1.067  -4.811   0.516  0.00  0.00    +0.166 C 
ATOM     20  N   UNL     1      -0.484  -4.033   1.382  0.00  0.00    -0.071 NA
ATOM     21  N   UNL     1      -0.861  -6.179   0.565  0.00  0.00    -0.340 N 
ATOM     22  H   UNL     1      -1.295  -6.758  -0.081  0.00  0.00    +0.144 HD
ATOM     23  H   UNL     1      -0.283  -6.559   1.245  0.00  0.00    +0.144 HD
BRANCH  20  24
ATOM     24  O   UNL     1       0.443  -4.573   2.307  0.00  0.00    -0.408 OA
ATOM     25  H   UNL     1       0.823  -3.920   2.910  0.00  0.00    +0.328 HD
ENDBRANCH  20  24
ENDBRANCH   9  19
TORSDOF 2
