REMARK  Name = ZINC47401639
REMARK  3 active torsions:
REMARK  status: ('A' for Active; 'I' for Inactive)
REMARK    1  A    between atoms: C_3  and  C_17
REMARK    2  A    between atoms: C_8  and  C_10
REMARK    3  A    between atoms: C_17  and  N_18
REMARK                            x       y       z     vdW  Elec       q    Type
REMARK                         _______ _______ _______ _____ _____    ______ ____
ROOT
ATOM      1  C   UNL     1      -0.226   1.996   1.062  0.00  0.00    +0.019 C 
ATOM      2  C   UNL     1       1.201   2.550   1.090  0.00  0.00    +0.008 C 
ATOM      3  C   UNL     1       2.050   1.727   2.061  0.00  0.00    +0.024 C 
ATOM      4  C   UNL     1       2.105   0.274   1.579  0.00  0.00    +0.112 C 
ATOM      5  N   UNL     1       0.732  -0.221   1.410  0.00  0.00    -0.301 N 
ATOM      6  C   UNL     1      -0.197   0.546   0.569  0.00  0.00    +0.108 C 
ATOM      7  C   UNL     1       0.332  -1.357   2.016  0.00  0.00    +0.219 C 
ATOM      8  O   UNL     1       1.131  -2.031   2.630  0.00  0.00    -0.275 OA
ENDROOT
BRANCH   7   9
ATOM      9  C   UNL     1      -1.109  -1.789   1.930  0.00  0.00    +0.079 C 
ATOM     10  C   UNL     1      -1.445  -2.703   3.115  0.00  0.00    +0.017 C 
ATOM     11  C   UNL     1      -2.950  -2.980   3.101  0.00  0.00    +0.027 C 
ATOM     12  C   UNL     1      -3.383  -3.413   1.731  0.00  0.00    -0.031 C 
ATOM     13  C   UNL     1      -2.683  -3.232   0.658  0.00  0.00    -0.030 C 
ATOM     14  C   UNL     1      -1.336  -2.568   0.632  0.00  0.00    +0.039 C 
ENDBRANCH   7   9
BRANCH   3  15
ATOM     15  C   UNL     1       3.467   2.302   2.113  0.00  0.00    +0.110 C 
BRANCH  15  16
ATOM     16  N   UNL     1       3.426   3.651   2.683  0.00  0.00    -0.299 N 
ATOM     17  C   UNL     1       4.565   4.356   2.827  0.00  0.00    +0.297 C 
ATOM     18  O   UNL     1       5.627   3.873   2.485  0.00  0.00    -0.253 OA
ATOM     19  N   UNL     1       4.527   5.598   3.351  0.00  0.00    -0.313 N 
ATOM     20  H   UNL     1       2.579   4.036   2.956  0.00  0.00    +0.150 HD
ATOM     21  H   UNL     1       3.680   5.983   3.625  0.00  0.00    +0.146 HD
ATOM     22  H   UNL     1       5.347   6.106   3.455  0.00  0.00    +0.146 HD
ENDBRANCH  15  16
ENDBRANCH   3  15
TORSDOF 3
