REMARK  Name = ZINC65975591
REMARK  10 active torsions:
REMARK  status: ('A' for Active; 'I' for Inactive)
REMARK    1  A    between atoms: C_1  and  C_2
REMARK    2  A    between atoms: C_5  and  N_9
REMARK    3  A    between atoms: C_6  and  C_8
REMARK    4  A    between atoms: C_13  and  C_15
REMARK    5  A    between atoms: C_15  and  C_16
REMARK    6  A    between atoms: C_15  and  N_17
REMARK    7  A    between atoms: N_17  and  C_18
REMARK    8  A    between atoms: C_21  and  N_24
REMARK    9  A    between atoms: N_24  and  C_25
REMARK   10  A    between atoms: C_26  and  C_28
REMARK                            x       y       z     vdW  Elec       q    Type
REMARK                         _______ _______ _______ _____ _____    ______ ____
ROOT
ATOM      1  N   UNL     1       0.062  -4.159  -0.051  0.00  0.00    -0.269 N 
ATOM      2  C   UNL     1      -0.089  -4.844  -1.202  0.00  0.00    +0.310 C 
ATOM      3  O   UNL     1      -0.189  -4.247  -2.255  0.00  0.00    -0.252 OA
ATOM      4  N   UNL     1      -0.129  -6.191  -1.184  0.00  0.00    -0.238 N 
ATOM      5  C   UNL     1      -0.279  -6.876  -2.335  0.00  0.00    +0.240 C 
ATOM      6  O   UNL     1      -0.379  -6.280  -3.386  0.00  0.00    -0.273 OA
ATOM      7  H   UNL     1       0.209  -4.635   0.781  0.00  0.00    +0.156 HD
ATOM      8  H   UNL     1      -0.049  -6.668  -0.343  0.00  0.00    +0.159 HD
ENDROOT
BRANCH   1  13
ATOM      9  C   UNL     1      -0.169   1.509  -0.073  0.00  0.00    +0.044 C 
ATOM     10  C   UNL     1      -0.108   0.004  -0.067  0.00  0.00    -0.050 A 
ATOM     11  C   UNL     1       0.445  -0.669  -1.141  0.00  0.00    +0.005 A 
ATOM     12  C   UNL     1       0.503  -2.048  -1.139  0.00  0.00    +0.024 A 
ATOM     13  C   UNL     1       0.005  -2.761  -0.056  0.00  0.00    +0.038 A 
ATOM     14  C   UNL     1      -0.549  -2.083   1.022  0.00  0.00    -0.029 A 
ATOM     15  C   UNL     1      -0.599  -0.703   1.016  0.00  0.00    +0.008 A 
ATOM     16  C   UNL     1      -1.090  -2.852   2.199  0.00  0.00    +0.045 C 
ENDBRANCH   1  13
BRANCH   5  17
ATOM     17  C   UNL     1      -0.323  -8.382  -2.315  0.00  0.00    +0.154 C 
ATOM     18  C   UNL     1      -1.498  -8.847  -1.452  0.00  0.00    +0.038 C 
BRANCH  17  19
ATOM     19  N   UNL     1      -0.492  -8.883  -3.681  0.00  0.00    -0.333 N 
ATOM     20  H   UNL     1      -0.908  -8.324  -4.356  0.00  0.00    +0.147 HD
BRANCH  19  21
ATOM     21  C   UNL     1      -0.054 -10.170  -4.014  0.00  0.00    +0.028 A 
ATOM     22  C   UNL     1       0.536 -10.973  -3.047  0.00  0.00    +0.025 A 
ATOM     23  C   UNL     1       0.969 -12.243  -3.375  0.00  0.00    +0.025 A 
ATOM     24  C   UNL     1       0.815 -12.716  -4.671  0.00  0.00    +0.036 A 
ATOM     25  C   UNL     1       0.225 -11.912  -5.638  0.00  0.00    +0.025 A 
ATOM     26  C   UNL     1      -0.214 -10.645  -5.309  0.00  0.00    +0.025 A 
BRANCH  24  27
ATOM     27  N   UNL     1       1.254 -14.004  -5.004  0.00  0.00    -0.275 N 
ATOM     28  C   UNL     1       1.718 -14.914  -3.954  0.00  0.00    +0.138 C 
ATOM     29  C   UNL     1       1.251 -14.406  -6.291  0.00  0.00    +0.216 C 
ATOM     30  O   UNL     1       0.979 -13.617  -7.172  0.00  0.00    -0.276 OA
ATOM     31  C   UNL     1       1.585 -15.835  -6.635  0.00  0.00    +0.109 C 
ENDBRANCH  24  27
ENDBRANCH  19  21
ENDBRANCH  17  19
ENDBRANCH   5  17
TORSDOF 5
