REMARK  Name = ZINC62794486
REMARK  6 active torsions:
REMARK  status: ('A' for Active; 'I' for Inactive)
REMARK    1  A    between atoms: C_3  and  N_12
REMARK    2  A    between atoms: C_6  and  C_7
REMARK    3  A    between atoms: N_8  and  O_9
REMARK    4  A    between atoms: N_15  and  C_18
REMARK    5  A    between atoms: C_18  and  C_19
REMARK    6  A    between atoms: C_19  and  O_20
REMARK                            x       y       z     vdW  Elec       q    Type
REMARK                         _______ _______ _______ _____ _____    ______ ____
ROOT
ATOM      1  C   UNL     1       0.005   1.379   0.028  0.00  0.00    +0.013 A 
ATOM      2  C   UNL     1       1.195   2.072  -0.007  0.00  0.00    +0.025 A 
ATOM      3  C   UNL     1       2.400   1.384  -0.100  0.00  0.00    +0.048 A 
ATOM      4  C   UNL     1       2.407  -0.007  -0.157  0.00  0.00    +0.063 A 
ATOM      5  C   UNL     1       1.219  -0.705  -0.121  0.00  0.00    +0.033 A 
ATOM      6  C   UNL     1       0.009  -0.016  -0.028  0.00  0.00    +0.019 A 
ATOM      7 CL   UNL     1       3.913  -0.863  -0.274  0.00  0.00    -0.082 Cl
ENDROOT
BRANCH   3   8
ATOM      8  N   UNL     1       3.603   2.088  -0.136  0.00  0.00    -0.326 N 
ATOM      9  C   UNL     1       4.183   2.525  -1.415  0.00  0.00    +0.120 C 
ATOM     10  C   UNL     1       4.507   4.020  -1.316  0.00  0.00    +0.103 C 
ATOM     11  N   UNL     1       5.350   4.258  -0.137  0.00  0.00    -0.297 NA
ATOM     12  C   UNL     1       4.643   3.912   1.103  0.00  0.00    +0.103 C 
ATOM     13  C   UNL     1       4.322   2.418   1.104  0.00  0.00    +0.120 C 
BRANCH  11  14
ATOM     14  C   UNL     1       5.825   5.648  -0.102  0.00  0.00    +0.112 C 
BRANCH  14  15
ATOM     15  C   UNL     1       6.889   5.796   0.987  0.00  0.00    +0.171 C 
BRANCH  15  16
ATOM     16  O   UNL     1       8.035   5.014   0.642  0.00  0.00    -0.394 OA
ATOM     17  H   UNL     1       8.752   5.061   1.290  0.00  0.00    +0.209 HD
ENDBRANCH  15  16
ENDBRANCH  14  15
ENDBRANCH  11  14
ENDBRANCH   3   8
BRANCH   6  18
ATOM     18  C   UNL     1      -1.268  -0.762   0.011  0.00  0.00    +0.162 C 
ATOM     19  N   UNL     1      -1.298  -1.975   0.481  0.00  0.00    -0.072 NA
ATOM     20  N   UNL     1      -2.430  -0.170  -0.453  0.00  0.00    -0.340 N 
ATOM     21  H   UNL     1      -2.408   0.734  -0.804  0.00  0.00    +0.144 HD
ATOM     22  H   UNL     1      -3.268  -0.659  -0.428  0.00  0.00    +0.144 HD
BRANCH  19  23
ATOM     23  O   UNL     1      -0.142  -2.531   1.080  0.00  0.00    -0.408 OA
ATOM     24  H   UNL     1      -0.262  -3.437   1.399  0.00  0.00    +0.328 HD
ENDBRANCH  19  23
ENDBRANCH   6  18
TORSDOF 6
