REMARK  Name = ZINC40533363
REMARK  11 active torsions:
REMARK  status: ('A' for Active; 'I' for Inactive)
REMARK    1  A    between atoms: C_1  and  C_2
REMARK    2  A    between atoms: C_2  and  C_3
REMARK    3  A    between atoms: C_2  and  N_4
REMARK    4  A    between atoms: N_4  and  C_5
REMARK    5  A    between atoms: N_4  and  C_21
REMARK    6  A    between atoms: C_5  and  C_6
REMARK    7  A    between atoms: C_6  and  N_7
REMARK    8  A    between atoms: C_12  and  O_20
REMARK    9  A    between atoms: C_15  and  C_17
REMARK   10  A    between atoms: C_21  and  C_22
REMARK   11  A    between atoms: C_21  and  C_23
REMARK                            x       y       z     vdW  Elec       q    Type
REMARK                         _______ _______ _______ _____ _____    ______ ____
ROOT
ATOM      1  N   UNL     1      -4.520   0.820  -1.906  0.00  0.00    -0.301 N 
ATOM      2  C   UNL     1      -5.723   1.403  -1.734  0.00  0.00    +0.303 C 
ATOM      3  O   UNL     1      -6.143   1.614  -0.613  0.00  0.00    -0.253 OA
ATOM      4  N   UNL     1      -6.462   1.752  -2.807  0.00  0.00    -0.269 N 
ATOM      5  C   UNL     1      -6.079   1.550  -4.216  0.00  0.00    +0.141 C 
ATOM      6  C   UNL     1      -7.421   1.514  -4.990  0.00  0.00    +0.134 C 
ATOM      7  C   UNL     1      -8.251   2.579  -4.224  0.00  0.00    +0.067 C 
ATOM      8  C   UNL     1      -7.785   2.392  -2.764  0.00  0.00    +0.193 C 
ATOM      9  H   UNL     1      -4.186   0.652  -2.800  0.00  0.00    +0.150 HD
ENDROOT
BRANCH   8  10
ATOM     10  C   UNL     1      -7.684   3.734  -2.086  0.00  0.00    +0.376 C 
ATOM     11  O   UNL     1      -6.590   4.198  -1.812  0.00  0.00    -0.244 OA
ATOM     12  O   UNL     1      -8.696   4.356  -1.811  0.00  0.00    -0.244 OA
ENDBRANCH   8  10
BRANCH   6  13
ATOM     13  O   UNL     1      -7.235   1.894  -6.355  0.00  0.00    -0.390 OA
ATOM     14  H   UNL     1      -6.643   1.310  -6.848  0.00  0.00    +0.210 HD
ENDBRANCH   6  13
BRANCH   1  15
ATOM     15  C   UNL     1      -3.718   0.441  -0.740  0.00  0.00    +0.087 C 
BRANCH  15  16
ATOM     16  C   UNL     1      -2.408  -0.196  -1.208  0.00  0.00    -0.059 C 
BRANCH  16  17
ATOM     17  N   UNL     1      -1.616  -0.603  -0.040  0.00  0.00    +0.384 N 
ATOM     18  H   UNL     1      -1.479   0.191   0.567  0.00  0.00    -0.081 HD
BRANCH  17  20
ATOM     19  C   UNL     1       0.420  -0.018  -1.267  0.00  0.00    -0.014 C 
ATOM     20  C   UNL     1      -0.311  -1.110  -0.485  0.00  0.00    -0.074 C 
ATOM     21  C   UNL     1       0.523  -1.511   0.733  0.00  0.00    -0.014 C 
ENDBRANCH  17  20
BRANCH  17  22
ATOM     22  C   UNL     1      -2.329  -1.660   0.690  0.00  0.00    -0.074 C 
ATOM     23  C   UNL     1      -2.028  -3.016   0.048  0.00  0.00    -0.014 C 
ATOM     24  C   UNL     1      -1.868  -1.673   2.148  0.00  0.00    -0.014 C 
ENDBRANCH  17  22
ENDBRANCH  16  17
ENDBRANCH  15  16
ENDBRANCH   1  15
TORSDOF 7
