REMARK  Name = ZINC05934041
REMARK  7 active torsions:
REMARK  status: ('A' for Active; 'I' for Inactive)
REMARK    1  A    between atoms: C_4  and  O_7
REMARK    2  A    between atoms: O_7  and  C_8
REMARK    3  A    between atoms: C_10  and  O_23
REMARK    4  A    between atoms: C_12  and  O_22
REMARK    5  A    between atoms: C_14  and  O_21
REMARK    6  A    between atoms: C_16  and  C_19
REMARK    7  A    between atoms: C_19  and  O_20
REMARK                            x       y       z     vdW  Elec       q    Type
REMARK                         _______ _______ _______ _____ _____    ______ ____
ROOT
ATOM      1  C   UNL     1      -3.611   3.009   0.052  0.00  0.00    +0.339 C 
ATOM      2  C   UNL     1      -4.826   3.910  -0.182  0.00  0.00    +0.214 C 
ATOM      3  C   UNL     1      -4.933   4.918   0.966  0.00  0.00    +0.180 C 
ATOM      4  C   UNL     1      -5.020   4.157   2.293  0.00  0.00    +0.177 C 
ATOM      5  C   UNL     1      -3.797   3.247   2.431  0.00  0.00    +0.179 C 
ATOM      6  O   UNL     1      -3.740   2.355   1.316  0.00  0.00    -0.331 OA
ENDROOT
BRANCH   4   7
ATOM      7  O   UNL     1      -5.048   5.088   3.377  0.00  0.00    -0.386 OA
ATOM      8  H   UNL     1      -5.798   5.697   3.353  0.00  0.00    +0.210 HD
ENDBRANCH   4   7
BRANCH   3   9
ATOM      9  O   UNL     1      -6.107   5.715   0.795  0.00  0.00    -0.386 OA
ATOM     10  H   UNL     1      -6.119   6.225  -0.027  0.00  0.00    +0.210 HD
ENDBRANCH   3   9
BRANCH   2  11
ATOM     11  O   UNL     1      -6.010   3.111  -0.229  0.00  0.00    -0.383 OA
ATOM     12  H   UNL     1      -6.009   2.446  -0.931  0.00  0.00    +0.210 HD
ENDBRANCH   2  11
BRANCH   1  13
ATOM     13  O   UNL     1      -2.422   3.802   0.045  0.00  0.00    -0.461 OA
BRANCH  13  17
ATOM     14  C   UNL     1       1.176   1.783   0.000  0.00  0.00    +0.000 A 
ATOM     15  C   UNL     1      -0.013   1.076   0.008  0.00  0.00    +0.004 A 
ATOM     16  C   UNL     1      -1.218   1.750   0.017  0.00  0.00    +0.046 A 
ATOM     17  C   UNL     1      -1.237   3.137   0.031  0.00  0.00    +0.124 A 
ATOM     18  C   UNL     1      -0.043   3.844   0.024  0.00  0.00    +0.046 A 
ATOM     19  C   UNL     1       1.160   3.165   0.008  0.00  0.00    +0.004 A 
ENDBRANCH  13  17
ENDBRANCH   1  13
BRANCH   5  20
ATOM     20  C   UNL     1      -3.906   2.438   3.725  0.00  0.00    +0.190 C 
BRANCH  20  21
ATOM     21  O   UNL     1      -2.713   1.675   3.912  0.00  0.00    -0.392 OA
ATOM     22  H   UNL     1      -2.712   1.137   4.716  0.00  0.00    +0.210 HD
ENDBRANCH  20  21
ENDBRANCH   5  20
TORSDOF 7
