REMARK  Name = ZINC29616344
REMARK  5 active torsions:
REMARK  status: ('A' for Active; 'I' for Inactive)
REMARK    1  A    between atoms: C_1  and  C_2
REMARK    2  A    between atoms: C_5  and  C_9
REMARK    3  A    between atoms: C_10  and  C_11
REMARK    4  A    between atoms: N_13  and  C_14
REMARK    5  A    between atoms: C_18  and  N_20
REMARK                            x       y       z     vdW  Elec       q    Type
REMARK                         _______ _______ _______ _____ _____    ______ ____
ROOT
ATOM      1  C   UNL     1       3.554   1.880  -0.165  0.00  0.00    +0.241 C 
ATOM      2  O   UNL     1       3.467   3.093  -0.123  0.00  0.00    -0.270 OA
ATOM      3  N   UNL     1       2.442   1.121  -0.088  0.00  0.00    -0.282 N 
ATOM      4  H   UNL     1       2.526   0.025  -0.041  0.00  0.00    +0.155 HD
ENDROOT
BRANCH   3   5
ATOM      5  C   UNL     1       1.182   1.728  -0.067  0.00  0.00    +0.035 A 
ATOM      6  C   UNL     1       0.147   1.156   0.664  0.00  0.00    +0.023 A 
ATOM      7  C   UNL     1      -1.097   1.755   0.686  0.00  0.00    +0.004 A 
ATOM      8  C   UNL     1      -1.318   2.923  -0.019  0.00  0.00    +0.023 A 
ATOM      9  C   UNL     1      -0.286   3.502  -0.747  0.00  0.00    +0.037 A 
ATOM     10  C   UNL     1       0.964   2.900  -0.775  0.00  0.00    +0.046 A 
BRANCH   9  11
ATOM     11  N   UNL     1      -0.509   4.688  -1.456  0.00  0.00    -0.270 N 
ATOM     12  C   UNL     1      -1.335   5.628  -0.954  0.00  0.00    +0.301 C 
ATOM     13  O   UNL     1      -1.952   5.411   0.071  0.00  0.00    -0.253 OA
ATOM     14  N   UNL     1      -1.478   6.808  -1.589  0.00  0.00    -0.313 N 
ATOM     15  H   UNL     1      -0.009   4.854  -2.421  0.00  0.00    +0.156 HD
ATOM     16  H   UNL     1      -2.152   7.575  -1.180  0.00  0.00    +0.146 HD
ATOM     17  H   UNL     1      -0.920   7.004  -2.517  0.00  0.00    +0.146 HD
ENDBRANCH   9  11
ENDBRANCH   3   5
BRANCH   1  19
ATOM     18  C   UNL     1       5.977   2.002  -0.377  0.00  0.00    +0.013 C 
ATOM     19  C   UNL     1       4.865   1.244  -0.300  0.00  0.00    +0.068 C 
BRANCH  18  24
ATOM     20  C   UNL     1      11.131  -0.492  -0.904  0.00  0.00    +0.045 C 
ATOM     21  C   UNL     1       9.780   0.161  -0.766  0.00  0.00    -0.032 A 
ATOM     22  C   UNL     1       9.684   1.541  -0.719  0.00  0.00    +0.005 A 
ATOM     23  C   UNL     1       8.452   2.147  -0.593  0.00  0.00    +0.008 A 
ATOM     24  C   UNL     1       7.296   1.363  -0.512  0.00  0.00    -0.023 A 
ATOM     25  C   UNL     1       7.401  -0.030  -0.555  0.00  0.00    +0.028 A 
ATOM     26  C   UNL     1       8.641  -0.622  -0.687  0.00  0.00    +0.044 A 
ATOM     27 CL   UNL     1       8.773  -2.352  -0.747  0.00  0.00    -0.083 Cl
ENDBRANCH  18  24
ENDBRANCH   1  19
TORSDOF 4
