REMARK  Name = ZINC32862311
REMARK  2 active torsions:
REMARK  status: ('A' for Active; 'I' for Inactive)
REMARK    1  A    between atoms: C_7  and  N_12
REMARK    2  A    between atoms: N_15  and  C_16
REMARK                            x       y       z     vdW  Elec       q    Type
REMARK                         _______ _______ _______ _____ _____    ______ ____
ROOT
ATOM      1  N   UNL     1      -0.011   0.966   0.013  0.00  0.00    -0.292 N 
ATOM      2  C   UNL     1       1.147   1.655  -0.002  0.00  0.00    +0.304 C 
ATOM      3  O   UNL     1       1.130   2.871  -0.004  0.00  0.00    -0.252 OA
ATOM      4  N   UNL     1       2.323   0.998  -0.015  0.00  0.00    -0.269 N 
ATOM      5  H   UNL     1       0.004  -0.134   0.020  0.00  0.00    +0.151 HD
ATOM      6  H   UNL     1       2.341  -0.100   0.064  0.00  0.00    +0.156 HD
ENDROOT
BRANCH   1  13
ATOM      7  C   UNL     1      -1.021   2.836  -3.556  0.00  0.00    +0.001 A 
ATOM      8  C   UNL     1      -2.322   2.700  -4.004  0.00  0.00    +0.004 A 
ATOM      9  C   UNL     1      -3.299   2.230  -3.151  0.00  0.00    +0.046 A 
ATOM     10  C   UNL     1      -2.979   1.891  -1.840  0.00  0.00    +0.125 A 
ATOM     11  C   UNL     1      -1.677   2.031  -1.393  0.00  0.00    +0.015 A 
ATOM     12  C   UNL     1      -0.701   2.502  -2.255  0.00  0.00    +0.009 A 
ATOM     13  C   UNL     1      -1.290   1.681   0.021  0.00  0.00    +0.111 C 
ATOM     14  C   UNL     1      -2.367   0.790   0.645  0.00  0.00    +0.068 C 
ATOM     15  C   UNL     1      -3.735   1.430   0.377  0.00  0.00    +0.231 C 
ATOM     16  O   UNL     1      -3.967   1.424  -1.032  0.00  0.00    -0.492 OA
ENDBRANCH   1  13
BRANCH   4  17
ATOM     17  C   UNL     1       3.524   1.711  -0.128  0.00  0.00    +0.038 A 
ATOM     18  C   UNL     1       4.590   1.169  -0.833  0.00  0.00    +0.027 A 
ATOM     19  C   UNL     1       5.772   1.874  -0.950  0.00  0.00    +0.051 A 
ATOM     20  C   UNL     1       5.902   3.119  -0.356  0.00  0.00    +0.166 A 
ATOM     21  C   UNL     1       4.836   3.663   0.356  0.00  0.00    +0.168 A 
ATOM     22  C   UNL     1       3.649   2.958   0.469  0.00  0.00    +0.073 A 
ATOM     23  O   UNL     1       5.212   4.883   0.839  0.00  0.00    -0.453 OA
ATOM     24  C   UNL     1       6.649   4.902   0.762  0.00  0.00    +0.466 C 
ATOM     25  O   UNL     1       6.946   3.999  -0.320  0.00  0.00    -0.453 OA
ENDBRANCH   4  17
TORSDOF 2
