REMARK  Name = ZINC54507611
REMARK  8 active torsions:
REMARK  status: ('A' for Active; 'I' for Inactive)
REMARK    1  A    between atoms: C_1  and  C_2
REMARK    2  A    between atoms: C_3  and  C_23
REMARK    3  A    between atoms: C_7  and  N_8
REMARK    4  A    between atoms: N_11  and  C_12
REMARK    5  A    between atoms: C_12  and  C_14
REMARK    6  A    between atoms: C_12  and  C_15
REMARK    7  A    between atoms: C_20  and  O_21
REMARK    8  A    between atoms: O_21  and  C_22
REMARK                            x       y       z     vdW  Elec       q    Type
REMARK                         _______ _______ _______ _____ _____    ______ ____
ROOT
ATOM      1  N   UNL     1       1.057  -0.165   1.937  0.00  0.00    -0.269 N 
ATOM      2  C   UNL     1       0.824  -0.563   3.204  0.00  0.00    +0.304 C 
ATOM      3  O   UNL     1       0.083  -1.503   3.419  0.00  0.00    -0.252 OA
ATOM      4  N   UNL     1       1.412   0.080   4.231  0.00  0.00    -0.292 N 
ATOM      5  H   UNL     1       1.574   0.638   1.769  0.00  0.00    +0.156 HD
ATOM      6  H   UNL     1       2.003   0.830   4.060  0.00  0.00    +0.151 HD
ENDROOT
BRANCH   1  13
ATOM      7  C   UNL     1       0.739   1.137  -0.570  0.00  0.00    +0.046 C 
ATOM      8  C   UNL     1       0.382  -0.314  -0.374  0.00  0.00    -0.017 A 
ATOM      9  C   UNL     1      -0.115  -1.063  -1.441  0.00  0.00    +0.042 A 
ATOM     10  C   UNL     1      -0.443  -2.406  -1.252  0.00  0.00    +0.013 A 
ATOM     11  C   UNL     1      -0.275  -2.990  -0.012  0.00  0.00    +0.003 A 
ATOM     12  C   UNL     1       0.217  -2.248   1.045  0.00  0.00    +0.023 A 
ATOM     13  C   UNL     1       0.552  -0.911   0.865  0.00  0.00    +0.038 A 
BRANCH   9  14
ATOM     14  C   UNL     1      -0.294  -0.436  -2.768  0.00  0.00    +0.247 C 
ATOM     15  O   UNL     1       0.600   0.231  -3.251  0.00  0.00    -0.270 OA
ATOM     16  N   UNL     1      -1.449  -0.603  -3.442  0.00  0.00    -0.293 N 
ATOM     17  C   UNL     1      -2.591  -1.298  -2.827  0.00  0.00    +0.136 C 
ATOM     18  C   UNL     1      -3.837  -0.420  -2.993  0.00  0.00    +0.179 C 
ATOM     19  O   UNL     1      -3.979  -0.059  -4.369  0.00  0.00    -0.377 OA
ATOM     20  C   UNL     1      -2.898   0.722  -4.884  0.00  0.00    +0.179 C 
ATOM     21  C   UNL     1      -1.607  -0.092  -4.813  0.00  0.00    +0.136 C 
ENDBRANCH   9  14
ENDBRANCH   1  13
BRANCH   4  22
ATOM     22  C   UNL     1       1.158  -0.352   5.608  0.00  0.00    +0.105 C 
ATOM     23  C   UNL     1      -0.124   0.305   6.121  0.00  0.00    +0.033 C 
BRANCH  22  24
ATOM     24  C   UNL     1       2.316   0.053   6.483  0.00  0.00    +0.014 A 
ATOM     25  C   UNL     1       3.110   1.126   6.127  0.00  0.00    +0.009 A 
ATOM     26  C   UNL     1       4.172   1.498   6.929  0.00  0.00    +0.001 A 
ATOM     27  C   UNL     1       4.443   0.798   8.090  0.00  0.00    +0.004 A 
ATOM     28  C   UNL     1       3.653  -0.275   8.451  0.00  0.00    +0.046 A 
ATOM     29  C   UNL     1       2.582  -0.647   7.651  0.00  0.00    +0.125 A 
BRANCH  29  30
ATOM     30  O   UNL     1       1.800  -1.700   8.007  0.00  0.00    -0.495 OA
ATOM     31  C   UNL     1       2.133  -2.374   9.221  0.00  0.00    +0.277 C 
ENDBRANCH  29  30
ENDBRANCH  22  24
ENDBRANCH   4  22
TORSDOF 5
