REMARK  Name = ZINC05375463
REMARK  7 active torsions:
REMARK  status: ('A' for Active; 'I' for Inactive)
REMARK    1  A    between atoms: C_1  and  O_2
REMARK    2  A    between atoms: O_2  and  C_3
REMARK    3  A    between atoms: C_8  and  O_9
REMARK    4  A    between atoms: O_9  and  C_10
REMARK    5  A    between atoms: C_14  and  N_16
REMARK    6  A    between atoms: N_16  and  N_17
REMARK    7  A    between atoms: C_18  and  C_20
REMARK                            x       y       z     vdW  Elec       q    Type
REMARK                         _______ _______ _______ _____ _____    ______ ____
ROOT
ATOM      1  C   UNL     1       1.170   2.096   0.002  0.00  0.00    +0.162 A 
ATOM      2  C   UNL     1      -0.017   1.382   0.010  0.00  0.00    +0.050 A 
ATOM      3  C   UNL     1       0.002  -0.004   0.002  0.00  0.00    +0.013 A 
ATOM      4  C   UNL     1       1.199  -0.678  -0.013  0.00  0.00    +0.027 A 
ATOM      5  C   UNL     1       2.409   0.026  -0.021  0.00  0.00    +0.112 A 
ATOM      6  C   UNL     1       2.389   1.426  -0.013  0.00  0.00    +0.176 A 
ATOM      7  C   UNL     1       3.506  -0.953  -0.037  0.00  0.00    +0.345 C 
ATOM      8  O   UNL     1       4.688  -0.671  -0.047  0.00  0.00    -0.245 OA
ATOM      9  O   UNL     1       3.015  -2.204  -0.040  0.00  0.00    -0.436 OA
ATOM     10  C   UNL     1       1.562  -2.142  -0.025  0.00  0.00    +0.295 C 
ENDROOT
BRANCH   1  12
ATOM     11  C   UNL     1      -0.143   4.080   0.025  0.00  0.00    +0.277 C 
ATOM     12  O   UNL     1       1.143   3.456   0.010  0.00  0.00    -0.491 OA
ENDBRANCH   1  12
BRANCH   6  13
ATOM     13  O   UNL     1       3.552   2.125  -0.021  0.00  0.00    -0.491 OA
ATOM     14  C   UNL     1       4.096   2.466  -1.298  0.00  0.00    +0.277 C 
ENDBRANCH   6  13
BRANCH  10  15
ATOM     15  N   UNL     1       1.040  -2.801   1.179  0.00  0.00    -0.198 NA
ATOM     16  H   UNL     1       0.233  -2.313   1.537  0.00  0.00    +0.148 HD
BRANCH  15  17
ATOM     17  N   UNL     1       0.750  -4.113   0.933  0.00  0.00    -0.244 N 
ATOM     18  C   UNL     1       0.258  -4.890   1.918  0.00  0.00    +0.259 C 
ATOM     19  O   UNL     1       0.072  -4.424   3.025  0.00  0.00    -0.269 OA
ATOM     20  H   UNL     1       0.898  -4.485   0.050  0.00  0.00    +0.169 HD
BRANCH  18  21
ATOM     21  C   UNL     1      -0.056  -6.310   1.652  0.00  0.00    +0.052 A 
ATOM     22  C   UNL     1       0.156  -6.848   0.381  0.00  0.00    +0.014 A 
ATOM     23  C   UNL     1      -0.139  -8.174   0.139  0.00  0.00    +0.001 A 
ATOM     24  C   UNL     1      -0.643  -8.970   1.153  0.00  0.00    +0.001 A 
ATOM     25  C   UNL     1      -0.856  -8.444   2.413  0.00  0.00    +0.016 A 
ATOM     26  C   UNL     1      -0.561  -7.120   2.671  0.00  0.00    +0.030 A 
ATOM     27 BR   UNL     1      -0.845  -6.404   4.398  0.00  0.00    -0.050 Br
ENDBRANCH  18  21
ENDBRANCH  15  17
ENDBRANCH  10  15
TORSDOF 5
