REMARK  Name = ZINC17073270
REMARK  6 active torsions:
REMARK  status: ('A' for Active; 'I' for Inactive)
REMARK    1  A    between atoms: C_5  and  C_7
REMARK    2  A    between atoms: C_7  and  O_8
REMARK    3  A    between atoms: O_8  and  C_9
REMARK    4  A    between atoms: C_12  and  C_15
REMARK    5  A    between atoms: N_16  and  N_17
REMARK    6  A    between atoms: C_18  and  C_19
REMARK                            x       y       z     vdW  Elec       q    Type
REMARK                         _______ _______ _______ _____ _____    ______ ____
ROOT
ATOM      1  C   UNL     1       0.062  -4.242  -0.033  0.00  0.00    +0.140 C 
ATOM      2  N   UNL     1       1.202  -4.881  -0.041  0.00  0.00    -0.180 NA
ENDROOT
BRANCH   1   6
ATOM      3  C   UNL     1       0.008  -0.001  -0.016  0.00  0.00    +0.121 A 
ATOM      4  C   UNL     1       1.222  -0.678  -0.030  0.00  0.00    +0.046 A 
ATOM      5  C   UNL     1       1.245  -2.055  -0.030  0.00  0.00    +0.013 A 
ATOM      6  C   UNL     1       0.043  -2.772  -0.028  0.00  0.00    -0.005 A 
ATOM      7  C   UNL     1      -1.177  -2.085  -0.020  0.00  0.00    +0.013 A 
ATOM      8  C   UNL     1      -1.188  -0.708  -0.014  0.00  0.00    +0.046 A 
BRANCH   3   9
ATOM      9  O   UNL     1      -0.009   1.357  -0.011  0.00  0.00    -0.487 OA
BRANCH   9  10
ATOM     10  C   UNL     1       1.256   2.022  -0.013  0.00  0.00    +0.267 C 
BRANCH  10  15
ATOM     11  C   UNL     1      -0.443   5.394   0.008  0.00  0.00    +0.001 A 
ATOM     12  C   UNL     1       0.642   6.251   0.006  0.00  0.00    +0.003 A 
ATOM     13  C   UNL     1       1.926   5.741  -0.001  0.00  0.00    +0.039 A 
ATOM     14  C   UNL     1       2.126   4.371  -0.008  0.00  0.00    +0.130 A 
ATOM     15  C   UNL     1       1.039   3.513  -0.006  0.00  0.00    +0.025 A 
ATOM     16  C   UNL     1      -0.244   4.026  -0.005  0.00  0.00    +0.010 A 
ATOM     17  F   UNL     1       3.381   3.871  -0.016  0.00  0.00    -0.205 F 
ENDBRANCH  10  15
ENDBRANCH   9  10
ENDBRANCH   3   9
ENDBRANCH   1   6
BRANCH   2  18
ATOM     18  N   UNL     1       1.218  -6.171  -0.046  0.00  0.00    -0.263 N 
ATOM     19  C   UNL     1       2.365  -6.814  -0.053  0.00  0.00    +0.143 C 
ATOM     20  N   UNL     1       3.551  -6.109  -0.056  0.00  0.00    -0.342 N 
ATOM     21  H   UNL     1       4.511  -6.647  -0.062  0.00  0.00    +0.144 HD
ATOM     22  H   UNL     1       3.538  -5.010  -0.052  0.00  0.00    +0.144 HD
ATOM     23  H   UNL     1       0.273  -6.733  -0.043  0.00  0.00    +0.190 HD
BRANCH  19  24
ATOM     24  C   UNL     1       2.384  -8.291  -0.059  0.00  0.00    +0.187 A 
ATOM     25  C   UNL     1       1.246  -9.234   0.054  0.00  0.00    +0.191 A 
ATOM     26  N   UNL     1       1.838 -10.403  -0.011  0.00  0.00    -0.033 NA
ATOM     27  O   UNL     1       3.030 -10.247  -0.125  0.00  0.00    -0.240 OA
ATOM     28  N   UNL     1       3.417  -9.102  -0.160  0.00  0.00    -0.044 NA
ATOM     29  N   UNL     1      -0.106  -8.951   0.191  0.00  0.00    -0.339 N 
ATOM     30  H   UNL     1      -0.835  -9.771   0.263  0.00  0.00    +0.144 HD
ATOM     31  H   UNL     1      -0.448  -7.906   0.228  0.00  0.00    +0.144 HD
ENDBRANCH  19  24
ENDBRANCH   2  18
TORSDOF 6
