REMARK  Name = ZINC67177586
REMARK  4 active torsions:
REMARK  status: ('A' for Active; 'I' for Inactive)
REMARK    1  A    between atoms: C_6  and  C_7
REMARK    2  A    between atoms: C_14  and  C_16
REMARK    3  A    between atoms: C_16  and  C_17
REMARK    4  A    between atoms: C_17  and  N_18
REMARK                            x       y       z     vdW  Elec       q    Type
REMARK                         _______ _______ _______ _____ _____    ______ ____
ROOT
ATOM      1  C   UNL     1      -1.293  -0.774   0.010  0.00  0.00    +0.166 C 
ATOM      2  C   UNL     1      -1.617  -1.246  -1.412  0.00  0.00    +0.144 C 
ATOM      3  N   UNL     1      -2.778  -2.149  -1.348  0.00  0.00    -0.296 N 
ATOM      4  C   UNL     1      -2.741  -3.256  -0.380  0.00  0.00    +0.136 C 
ATOM      5  C   UNL     1      -2.362  -2.686   0.992  0.00  0.00    +0.179 C 
ATOM      6  O   UNL     1      -1.167  -1.912   0.867  0.00  0.00    -0.369 OA
ATOM      7  C   UNL     1      -3.844  -1.966  -2.153  0.00  0.00    +0.217 C 
ATOM      8  O   UNL     1      -3.856  -1.047  -2.944  0.00  0.00    -0.276 OA
ENDROOT
BRANCH   1  14
ATOM      9  C   UNL     1      -0.017   1.378   0.010  0.00  0.00    +0.009 A 
ATOM     10  C   UNL     1       1.170   2.087   0.002  0.00  0.00    +0.041 A 
ATOM     11  C   UNL     1       2.379   1.413  -0.013  0.00  0.00    +0.158 A 
ATOM     12  C   UNL     1       2.397   0.026  -0.021  0.00  0.00    +0.159 A 
ATOM     13  C   UNL     1       1.208  -0.680  -0.013  0.00  0.00    +0.047 A 
ATOM     14  C   UNL     1       0.002  -0.004   0.002  0.00  0.00    -0.015 A 
ATOM     15  F   UNL     1       3.576  -0.634  -0.036  0.00  0.00    -0.202 F 
ATOM     16  F   UNL     1       3.539   2.105  -0.021  0.00  0.00    -0.202 F 
ENDBRANCH   1  14
BRANCH   7  17
ATOM     17  C   UNL     1      -5.021  -2.904  -2.069  0.00  0.00    +0.114 C 
BRANCH  17  18
ATOM     18  C   UNL     1      -6.085  -2.477  -3.081  0.00  0.00    +0.115 C 
BRANCH  18  19
ATOM     19  N   UNL     1      -7.230  -3.388  -2.999  0.00  0.00    -0.299 N 
ATOM     20  C   UNL     1      -8.295  -3.206  -3.804  0.00  0.00    +0.297 C 
ATOM     21  O   UNL     1      -8.307  -2.285  -4.598  0.00  0.00    -0.253 OA
ATOM     22  N   UNL     1      -9.348  -4.044  -3.729  0.00  0.00    -0.313 N 
ATOM     23  H   UNL     1      -7.220  -4.123  -2.366  0.00  0.00    +0.150 HD
ATOM     24  H   UNL     1      -9.338  -4.779  -3.096  0.00  0.00    +0.146 HD
ATOM     25  H   UNL     1     -10.115  -3.913  -4.308  0.00  0.00    +0.146 HD
ENDBRANCH  18  19
ENDBRANCH  17  18
ENDBRANCH   7  17
TORSDOF 4
