REMARK  Name = ZINC32117017
REMARK  6 active torsions:
REMARK  status: ('A' for Active; 'I' for Inactive)
REMARK    1  A    between atoms: C_1  and  C_2
REMARK    2  A    between atoms: C_3  and  C_4
REMARK    3  A    between atoms: C_4  and  N_5
REMARK    4  A    between atoms: N_13  and  C_27
REMARK    5  A    between atoms: N_17  and  N_18
REMARK    6  A    between atoms: C_19  and  C_20
REMARK                            x       y       z     vdW  Elec       q    Type
REMARK                         _______ _______ _______ _____ _____    ______ ____
ROOT
ATOM      1  N   UNL     1      -0.131  -1.634  -2.697  0.00  0.00    -0.301 N 
ATOM      2  C   UNL     1      -1.428  -2.124  -2.753  0.00  0.00    +0.153 A 
ATOM      3  C   UNL     1      -2.619  -1.841  -2.060  0.00  0.00    +0.280 A 
ATOM      4  O   UNL     1      -2.633  -0.998  -1.180  0.00  0.00    -0.265 OA
ATOM      5  N   UNL     1      -3.743  -2.516  -2.375  0.00  0.00    -0.273 N 
ATOM      6  H   UNL     1      -4.680  -2.306  -1.838  0.00  0.00    +0.173 HD
ATOM      7  C   UNL     1      -3.742  -3.449  -3.343  0.00  0.00    +0.331 A 
ATOM      8  O   UNL     1      -4.775  -4.038  -3.599  0.00  0.00    -0.246 OA
ATOM      9  N   UNL     1      -2.626  -3.748  -4.034  0.00  0.00    -0.280 N 
ATOM     10  C   UNL     1      -1.440  -3.088  -3.756  0.00  0.00    +0.170 A 
ATOM     11  N   UNL     1      -0.206  -3.163  -4.257  0.00  0.00    -0.195 NA
ATOM     12  C   UNL     1       0.583  -2.307  -3.639  0.00  0.00    +0.218 A 
ATOM     13  N   UNL     1       1.921  -2.122  -3.906  0.00  0.00    -0.206 N 
ATOM     14  C   UNL     1      -2.666  -4.772  -5.081  0.00  0.00    +0.155 C 
ATOM     15  H   UNL     1       2.498  -1.380  -3.335  0.00  0.00    +0.177 HD
ENDROOT
BRANCH  13  16
ATOM     16  N   UNL     1       2.547  -2.879  -4.905  0.00  0.00    -0.188 NA
ATOM     17  C   UNL     1       3.830  -2.791  -5.077  0.00  0.00    +0.138 C 
BRANCH  17  18
ATOM     18  C   UNL     1       4.689  -2.304  -3.982  0.00  0.00    -0.005 A 
ATOM     19  C   UNL     1       6.016  -1.948  -4.237  0.00  0.00    +0.010 A 
ATOM     20  C   UNL     1       6.812  -1.487  -3.209  0.00  0.00    +0.016 A 
ATOM     21  C   UNL     1       6.303  -1.390  -1.925  0.00  0.00    +0.018 A 
ATOM     22  C   UNL     1       4.991  -1.748  -1.665  0.00  0.00    +0.016 A 
ATOM     23  C   UNL     1       4.182  -2.204  -2.684  0.00  0.00    +0.010 A 
ATOM     24 BR   UNL     1       7.405  -0.766  -0.521  0.00  0.00    -0.050 Br
ENDBRANCH  17  18
ENDBRANCH  13  16
BRANCH   1  25
ATOM     25  C   UNL     1       0.373  -0.596  -1.794  0.00  0.00    +0.152 C 
BRANCH  25  28
ATOM     26  C   UNL     1      -0.592   3.058  -2.475  0.00  0.00    +0.035 C 
ATOM     27  C   UNL     1      -0.436   1.708  -1.825  0.00  0.00    -0.033 C 
ATOM     28  C   UNL     1       0.217   0.754  -2.444  0.00  0.00    -0.010 C 
ENDBRANCH  25  28
ENDBRANCH   1  25
TORSDOF 4
