REMARK  Name = ZINC48767856
REMARK  5 active torsions:
REMARK  status: ('A' for Active; 'I' for Inactive)
REMARK    1  A    between atoms: C_1  and  C_2
REMARK    2  A    between atoms: C_7  and  N_8
REMARK    3  A    between atoms: N_11  and  C_12
REMARK    4  A    between atoms: C_17  and  O_18
REMARK    5  A    between atoms: O_18  and  C_19
REMARK                            x       y       z     vdW  Elec       q    Type
REMARK                         _______ _______ _______ _____ _____    ______ ____
ROOT
ATOM      1  N   UNL     1      -0.000  -0.016   2.415  0.00  0.00    -0.269 N 
ATOM      2  C   UNL     1      -0.070  -0.695   3.578  0.00  0.00    +0.308 C 
ATOM      3  O   UNL     1      -0.055  -1.911   3.574  0.00  0.00    -0.252 OA
ATOM      4  N   UNL     1      -0.157  -0.026   4.745  0.00  0.00    -0.265 N 
ATOM      5  H   UNL     1       0.051   0.952   2.421  0.00  0.00    +0.156 HD
ATOM      6  H   UNL     1      -0.234   0.941   4.744  0.00  0.00    +0.157 HD
ENDROOT
BRANCH   1  13
ATOM      7  C   UNL     1      -1.310   1.178   0.189  0.00  0.00    +0.046 C 
ATOM      8  C   UNL     1      -0.629  -0.163   0.088  0.00  0.00    -0.028 A 
ATOM      9  C   UNL     1      -0.625  -0.847  -1.112  0.00  0.00    +0.019 A 
ATOM     10  C   UNL     1      -0.000  -2.077  -1.206  0.00  0.00    +0.014 A 
ATOM     11  C   UNL     1       0.621  -2.627  -0.099  0.00  0.00    +0.016 A 
ATOM     12  C   UNL     1       0.620  -1.948   1.104  0.00  0.00    +0.024 A 
ATOM     13  C   UNL     1      -0.002  -0.710   1.199  0.00  0.00    +0.038 A 
ATOM     14  I   UNL     1       0.004  -3.111  -3.028  0.00  0.00    -0.044 I 
ENDBRANCH   1  13
BRANCH   4  15
ATOM     15  C   UNL     1      -0.136  -0.727   5.958  0.00  0.00    +0.097 A 
ATOM     16  C   UNL     1      -0.717  -1.986   6.055  0.00  0.00    +0.030 A 
ATOM     17  C   UNL     1      -0.671  -2.642   7.277  0.00  0.00    +0.022 A 
ATOM     18  C   UNL     1      -0.055  -2.030   8.351  0.00  0.00    +0.115 A 
ATOM     19  N   UNL     1       0.488  -0.833   8.230  0.00  0.00    -0.220 NA
ATOM     20  C   UNL     1       0.473  -0.175   7.085  0.00  0.00    +0.236 A 
BRANCH  20  21
ATOM     21  O   UNL     1       1.050   1.052   7.005  0.00  0.00    -0.478 OA
ATOM     22  C   UNL     1       1.656   1.562   8.194  0.00  0.00    +0.279 C 
ENDBRANCH  20  21
ENDBRANCH   4  15
TORSDOF 3
