REMARK  Name = ZINC12904105
REMARK  3 active torsions:
REMARK  status: ('A' for Active; 'I' for Inactive)
REMARK    1  A    between atoms: C_8  and  C_23
REMARK    2  A    between atoms: C_12  and  C_14
REMARK    3  A    between atoms: C_14  and  C_15
REMARK                            x       y       z     vdW  Elec       q    Type
REMARK                         _______ _______ _______ _____ _____    ______ ____
ROOT
ATOM      1  C   UNL     1       1.137   1.765  -0.044  0.00  0.00    +0.000 A 
ATOM      2  C   UNL     1      -0.060   1.075  -0.060  0.00  0.00    +0.000 A 
ATOM      3  C   UNL     1      -1.251   1.771  -0.043  0.00  0.00    +0.005 A 
ATOM      4  C   UNL     1      -1.256   3.159   0.003  0.00  0.00    -0.027 A 
ATOM      5  C   UNL     1      -0.064   3.848   0.011  0.00  0.00    -0.040 A 
ATOM      6  C   UNL     1       1.134   3.144  -0.010  0.00  0.00    +0.004 A 
ATOM      7  C   UNL     1       0.010   5.352   0.034  0.00  0.00    +0.067 C 
ATOM      8  C   UNL     1      -1.302   5.954   0.533  0.00  0.00    +0.166 C 
ATOM      9  N   UNL     1      -2.405   5.294  -0.185  0.00  0.00    -0.285 N 
ATOM     10  C   UNL     1      -2.592   3.857   0.043  0.00  0.00    +0.144 C 
ATOM     11  C   UNL     1      -3.211   5.982  -1.017  0.00  0.00    +0.221 C 
ATOM     12  O   UNL     1      -2.976   7.146  -1.264  0.00  0.00    -0.275 OA
ENDROOT
BRANCH   8  13
ATOM     13  C   UNL     1      -1.323   7.434   0.253  0.00  0.00    +0.231 C 
ATOM     14  O   UNL     1      -0.653   7.890  -0.649  0.00  0.00    -0.274 OA
ATOM     15  N   UNL     1      -2.088   8.252   1.004  0.00  0.00    -0.328 N 
ATOM     16  H   UNL     1      -2.624   7.887   1.725  0.00  0.00    +0.145 HD
ATOM     17  H   UNL     1      -2.101   9.204   0.823  0.00  0.00    +0.145 HD
ENDBRANCH   8  13
BRANCH  11  18
ATOM     18  C   UNL     1      -4.404   5.306  -1.642  0.00  0.00    +0.134 C 
BRANCH  18  19
ATOM     19  C   UNL     1      -5.133   6.287  -2.524  0.00  0.00    -0.002 A 
ATOM     20  C   UNL     1      -6.148   7.066  -2.000  0.00  0.00    +0.046 A 
ATOM     21  C   UNL     1      -6.814   7.970  -2.809  0.00  0.00    +0.020 A 
ATOM     22  C   UNL     1      -6.471   8.086  -4.143  0.00  0.00    +0.003 A 
ATOM     23  C   UNL     1      -5.460   7.304  -4.669  0.00  0.00    +0.020 A 
ATOM     24  C   UNL     1      -4.791   6.403  -3.860  0.00  0.00    +0.046 A 
ATOM     25 CL   UNL     1      -3.522   5.420  -4.520  0.00  0.00    -0.083 Cl
ATOM     26 CL   UNL     1      -6.582   6.916  -0.326  0.00  0.00    -0.083 Cl
ENDBRANCH  18  19
ENDBRANCH  11  18
TORSDOF 3
