REMARK  Name = ZINC39656478
REMARK  9 active torsions:
REMARK  status: ('A' for Active; 'I' for Inactive)
REMARK    1  A    between atoms: C_1  and  C_2
REMARK    2  A    between atoms: C_2  and  S_3
REMARK    3  A    between atoms: S_3  and  C_4
REMARK    4  A    between atoms: C_4  and  C_5
REMARK    5  A    between atoms: C_5  and  N_6
REMARK    6  A    between atoms: C_7  and  C_9
REMARK    7  A    between atoms: C_20  and  C_22
REMARK    8  A    between atoms: C_23  and  C_35
REMARK    9  A    between atoms: C_26  and  C_27
REMARK                            x       y       z     vdW  Elec       q    Type
REMARK                         _______ _______ _______ _____ _____    ______ ____
ROOT
ATOM      1  C   UNL     1      -1.969  -6.513  -0.442  0.00  0.00    +0.100 C 
ATOM      2  C   UNL     1      -1.611  -7.072   0.953  0.00  0.00    +0.121 C 
ATOM      3  N   UNL     1      -2.914  -7.442   1.554  0.00  0.00    -0.296 N 
ATOM      4  C   UNL     1      -3.686  -8.025   0.431  0.00  0.00    +0.115 C 
ATOM      5  C   UNL     1      -3.330  -7.143  -0.782  0.00  0.00    -0.004 C 
ATOM      6  C   UNL     1      -4.384  -6.056  -0.970  0.00  0.00    -0.010 C 
ATOM      7  C   UNL     1      -5.714  -6.704  -1.363  0.00  0.00    -0.082 C 
ATOM      8  N   UNL     1      -5.541  -7.465  -2.606  0.00  0.00    +0.379 N 
ATOM      9  C   UNL     1      -4.595  -8.566  -2.392  0.00  0.00    -0.082 C 
ATOM     10  C   UNL     1      -3.217  -7.997  -2.041  0.00  0.00    -0.010 C 
ATOM     11  C   UNL     1      -3.308  -7.284   2.833  0.00  0.00    +0.252 C 
ATOM     12  O   UNL     1      -4.419  -7.642   3.176  0.00  0.00    -0.270 OA
ATOM     13  H   UNL     1      -6.432  -7.840  -2.896  0.00  0.00    -0.086 HD
ATOM     14  H   UNL     1      -5.186  -6.854  -3.327  0.00  0.00    -0.086 HD
ENDROOT
BRANCH  11  15
ATOM     15  C   UNL     1      -2.393  -6.679   3.816  0.00  0.00    +0.106 A 
ATOM     16  C   UNL     1      -2.375  -5.375   4.215  0.00  0.00    +0.147 A 
ATOM     17  O   UNL     1      -1.401  -5.226   5.116  0.00  0.00    -0.359 OA
ATOM     18  N   UNL     1      -0.755  -6.466   5.322  0.00  0.00    -0.077 NA
ATOM     19  C   UNL     1      -1.328  -7.365   4.563  0.00  0.00    +0.128 A 
ATOM     20  C   UNL     1      -3.295  -4.288   3.721  0.00  0.00    +0.090 C 
BRANCH  19  21
ATOM     21  C   UNL     1      -0.969  -8.801   4.469  0.00  0.00    +0.041 A 
ATOM     22  C   UNL     1       0.318  -9.177   4.084  0.00  0.00    +0.052 A 
ATOM     23  C   UNL     1       0.647 -10.516   3.999  0.00  0.00    +0.021 A 
ATOM     24  C   UNL     1      -0.297 -11.483   4.295  0.00  0.00    +0.003 A 
ATOM     25  C   UNL     1      -1.575 -11.117   4.678  0.00  0.00    +0.021 A 
ATOM     26  C   UNL     1      -1.914  -9.781   4.772  0.00  0.00    +0.052 A 
ATOM     27 CL   UNL     1      -3.515  -9.322   5.261  0.00  0.00    -0.083 Cl
ATOM     28 CL   UNL     1       1.504  -7.965   3.711  0.00  0.00    -0.083 Cl
ENDBRANCH  19  21
ENDBRANCH  11  15
BRANCH   1  30
ATOM     29  N   UNL     1      -1.835  -4.278  -1.495  0.00  0.00    -0.314 N 
ATOM     30  C   UNL     1      -2.084  -5.011  -0.391  0.00  0.00    +0.218 C 
ATOM     31  O   UNL     1      -2.402  -4.462   0.642  0.00  0.00    -0.275 OA
ATOM     32  H   UNL     1      -1.581  -4.718  -2.321  0.00  0.00    +0.149 HD
BRANCH  29  33
ATOM     33  C   UNL     1      -1.947  -2.818  -1.445  0.00  0.00    +0.115 C 
BRANCH  33  34
ATOM     34  C   UNL     1      -1.614  -2.235  -2.820  0.00  0.00    +0.088 C 
BRANCH  34  35
ATOM     35  S   UNL     1      -1.753  -0.427  -2.759  0.00  0.00    -0.159 S 
BRANCH  35  37
ATOM     36  C   UNL     1      -1.411   1.628  -4.532  0.00  0.00    +0.015 C 
ATOM     37  C   UNL     1      -1.333   0.102  -4.442  0.00  0.00    +0.066 C 
ENDBRANCH  35  37
ENDBRANCH  34  35
ENDBRANCH  33  34
ENDBRANCH  29  33
ENDBRANCH   1  30
TORSDOF 7
