REMARK  Name = ZINC27266369
REMARK  10 active torsions:
REMARK  status: ('A' for Active; 'I' for Inactive)
REMARK    1  A    between atoms: C_1  and  C_2
REMARK    2  A    between atoms: C_7  and  N_12
REMARK    3  A    between atoms: C_9  and  C_11
REMARK    4  A    between atoms: N_12  and  C_13
REMARK    5  A    between atoms: C_13  and  N_15
REMARK    6  A    between atoms: N_15  and  N_16
REMARK    7  A    between atoms: C_17  and  C_19
REMARK    8  A    between atoms: C_20  and  C_21
REMARK    9  A    between atoms: N_23  and  C_30
REMARK   10  A    between atoms: N_26  and  C_29
REMARK                            x       y       z     vdW  Elec       q    Type
REMARK                         _______ _______ _______ _____ _____    ______ ____
ROOT
ATOM      1  N   UNL     1       1.144   1.900   0.028  0.00  0.00    -0.232 N 
ATOM      2  C   UNL     1      -0.014   1.211   0.022  0.00  0.00    +0.253 C 
ATOM      3  O   UNL     1       0.001  -0.006   0.005  0.00  0.00    -0.269 OA
ATOM      4  H   UNL     1       1.130   3.000   0.043  0.00  0.00    +0.173 HD
ENDROOT
BRANCH   1   5
ATOM      5  N   UNL     1       2.366   1.215   0.013  0.00  0.00    -0.246 N 
ATOM      6  H   UNL     1       2.380   0.115  -0.003  0.00  0.00    +0.172 HD
BRANCH   5   7
ATOM      7  C   UNL     1       3.525   1.904   0.018  0.00  0.00    +0.147 C 
ATOM      8  S   UNL     1       5.018   1.067   0.000  0.00  0.00    -0.017 S 
BRANCH   7   9
ATOM      9  N   UNL     1       3.508   3.251   0.037  0.00  0.00    -0.322 N 
ATOM     10  H   UNL     1       2.548   3.789   0.049  0.00  0.00    +0.148 HD
BRANCH   9  16
ATOM     11  C   UNL     1       5.628   7.533   1.310  0.00  0.00    +0.008 C 
ATOM     12  C   UNL     1       5.855   6.157   0.679  0.00  0.00    -0.009 C 
ATOM     13  C   UNL     1       6.352   6.330  -0.757  0.00  0.00    +0.003 C 
ATOM     14  C   UNL     1       6.579   4.955  -1.387  0.00  0.00    +0.002 C 
ATOM     15  C   UNL     1       5.264   4.173  -1.393  0.00  0.00    +0.022 C 
ATOM     16  C   UNL     1       4.767   4.000   0.043  0.00  0.00    +0.075 C 
ATOM     17  C   UNL     1       4.540   5.375   0.673  0.00  0.00    +0.009 C 
ATOM     18  C   UNL     1       3.494   6.142  -0.139  0.00  0.00    +0.009 C 
ENDBRANCH   9  16
ENDBRANCH   7   9
ENDBRANCH   5   7
ENDBRANCH   1   5
BRANCH   2  19
ATOM     19  C   UNL     1      -1.250   1.904   0.031  0.00  0.00    +0.069 C 
ATOM     20  C   UNL     1      -2.413   1.212   0.020  0.00  0.00    +0.020 C 
BRANCH  20  21
ATOM     21  C   UNL     1      -3.689   1.923   0.141  0.00  0.00    +0.056 A 
ATOM     22  C   UNL     1      -4.882   1.231   0.248  0.00  0.00    +0.103 A 
ATOM     23  N   UNL     1      -6.045   1.925   0.363  0.00  0.00    -0.303 N 
ATOM     24  C   UNL     1      -6.064   3.268   0.364  0.00  0.00    +0.331 A 
ATOM     25  O   UNL     1      -7.131   3.840   0.465  0.00  0.00    -0.246 OA
ATOM     26  N   UNL     1      -4.941   3.999   0.258  0.00  0.00    -0.264 N 
ATOM     27  C   UNL     1      -3.739   3.396   0.145  0.00  0.00    +0.263 A 
ATOM     28  O   UNL     1      -2.720   4.053   0.049  0.00  0.00    -0.267 OA
ATOM     29  C   UNL     1      -5.023   5.462   0.266  0.00  0.00    +0.157 C 
ATOM     30  C   UNL     1      -7.308   1.192   0.482  0.00  0.00    +0.153 C 
ENDBRANCH  20  21
ENDBRANCH   2  19
TORSDOF 6
