REMARK  Name = ZINC32744926
REMARK  11 active torsions:
REMARK  status: ('A' for Active; 'I' for Inactive)
REMARK    1  A    between atoms: C_1  and  C_2
REMARK    2  A    between atoms: C_4  and  S_26
REMARK    3  A    between atoms: C_6  and  N_9
REMARK    4  A    between atoms: C_7  and  C_8
REMARK    5  A    between atoms: C_10  and  C_12
REMARK    6  A    between atoms: C_13  and  C_25
REMARK    7  A    between atoms: C_19  and  C_23
REMARK    8  A    between atoms: C_19  and  C_24
REMARK    9  A    between atoms: S_26  and  N_29
REMARK   10  A    between atoms: N_29  and  C_30
REMARK   11  A    between atoms: N_29  and  C_31
REMARK                            x       y       z     vdW  Elec       q    Type
REMARK                         _______ _______ _______ _____ _____    ______ ____
ROOT
ATOM      1  N   UNL     1      -1.231   4.786   3.696  0.00  0.00    -0.280 N 
ATOM      2  C   UNL     1      -0.266   5.594   3.214  0.00  0.00    +0.265 C 
ATOM      3  O   UNL     1       0.366   5.265   2.228  0.00  0.00    -0.268 OA
ATOM      4  H   UNL     1      -1.863   5.122   4.532  0.00  0.00    +0.155 HD
ENDROOT
BRANCH   2   5
ATOM      5  C   UNL     1       0.024   6.870   3.880  0.00  0.00    +0.106 A 
ATOM      6  C   UNL     1       0.973   7.775   3.494  0.00  0.00    -0.010 A 
ATOM      7  C   UNL     1       0.907   8.838   4.403  0.00  0.00    +0.042 A 
ATOM      8  C   UNL     1      -0.094   8.541   5.329  0.00  0.00    +0.028 A 
ATOM      9  N   UNL     1      -0.620   7.361   5.000  0.00  0.00    -0.354 N 
ATOM     10  H   UNL     1      -1.431   6.782   5.466  0.00  0.00    +0.166 HD
ATOM     11  C   UNL     1      -0.452   9.460   6.470  0.00  0.00    +0.060 C 
ATOM     12  C   UNL     1       0.717  10.412   6.737  0.00  0.00    -0.023 C 
ATOM     13  C   UNL     1       1.140  11.125   5.448  0.00  0.00    +0.086 C 
ATOM     14  C   UNL     1       1.682  10.085   4.479  0.00  0.00    +0.166 C 
ATOM     15  O   UNL     1       2.681  10.272   3.816  0.00  0.00    -0.292 OA
ATOM     16  C   UNL     1       1.903   9.614   7.283  0.00  0.00    +0.011 C 
ATOM     17  C   UNL     1       0.291  11.454   7.773  0.00  0.00    +0.011 C 
ATOM     18  C   UNL     1       1.909   7.652   2.319  0.00  0.00    +0.047 C 
ENDBRANCH   2   5
BRANCH   1  24
ATOM     19  C   UNL     1      -4.208   0.982   2.783  0.00  0.00    +0.044 C 
ATOM     20  C   UNL     1      -2.863   1.654   2.676  0.00  0.00    -0.044 A 
ATOM     21  C   UNL     1      -1.824   1.019   2.020  0.00  0.00    +0.032 A 
ATOM     22  C   UNL     1      -0.589   1.633   1.920  0.00  0.00    +0.107 A 
ATOM     23  C   UNL     1      -0.388   2.879   2.479  0.00  0.00    +0.052 A 
ATOM     24  C   UNL     1      -1.430   3.522   3.134  0.00  0.00    +0.039 A 
ATOM     25  C   UNL     1      -2.670   2.903   3.233  0.00  0.00    -0.026 A 
ATOM     26  C   UNL     1      -3.803   3.594   3.947  0.00  0.00    +0.046 C 
BRANCH  22  27
ATOM     27  S   UNL     1       0.732   0.820   1.083  0.00  0.00    +0.060 S 
ATOM     28  O   UNL     1       0.445  -0.572   1.128  0.00  0.00    -0.153 OA
ATOM     29  O   UNL     1       1.937   1.366   1.600  0.00  0.00    -0.153 OA
BRANCH  27  30
ATOM     30  N   UNL     1       0.653   1.268  -0.509  0.00  0.00    -0.183 NA
ATOM     31  C   UNL     1       1.378   2.454  -0.973  0.00  0.00    +0.131 C 
ATOM     32  C   UNL     1      -0.142   0.480  -1.454  0.00  0.00    +0.131 C 
ENDBRANCH  27  30
ENDBRANCH  22  27
ENDBRANCH   1  24
TORSDOF 4
