REMARK  Name = ZINC11526393
REMARK  6 active torsions:
REMARK  status: ('A' for Active; 'I' for Inactive)
REMARK    1  A    between atoms: C_3  and  C_6
REMARK    2  A    between atoms: N_8  and  C_9
REMARK    3  A    between atoms: C_12  and  N_15
REMARK    4  A    between atoms: C_16  and  C_18
REMARK    5  A    between atoms: C_18  and  N_19
REMARK    6  A    between atoms: C_20  and  C_22
REMARK                            x       y       z     vdW  Elec       q    Type
REMARK                         _______ _______ _______ _____ _____    ______ ____
ROOT
ATOM      1  N   UNL     1       1.045   3.623  -0.134  0.00  0.00    -0.284 N 
ATOM      2  C   UNL     1       2.147   4.329  -0.458  0.00  0.00    +0.234 C 
ATOM      3  O   UNL     1       3.204   3.759  -0.628  0.00  0.00    -0.274 OA
ATOM      4  H   UNL     1       0.216   4.084   0.068  0.00  0.00    +0.155 HD
ENDROOT
BRANCH   1   8
ATOM      5  C   UNL     1       1.203  -0.541   0.004  0.00  0.00    +0.034 A 
ATOM      6  C   UNL     1       2.303   0.209   0.400  0.00  0.00    +0.025 A 
ATOM      7  C   UNL     1       2.251   1.587   0.354  0.00  0.00    +0.025 A 
ATOM      8  C   UNL     1       1.098   2.224  -0.088  0.00  0.00    +0.034 A 
ATOM      9  C   UNL     1      -0.002   1.474  -0.483  0.00  0.00    +0.025 A 
ATOM     10  C   UNL     1       0.051   0.096  -0.438  0.00  0.00    +0.025 A 
BRANCH   5  13
ATOM     11  C   UNL     1       1.968  -2.555   1.016  0.00  0.00    +0.284 C 
ATOM     12  O   UNL     1       2.488  -1.900   1.899  0.00  0.00    -0.266 OA
ATOM     13  N   UNL     1       1.256  -1.940   0.051  0.00  0.00    -0.279 N 
ATOM     14  H   UNL     1       0.780  -2.465  -0.611  0.00  0.00    +0.155 HD
BRANCH  11  17
ATOM     15  C   UNL     1       2.683  -6.100   1.512  0.00  0.00    +0.042 A 
ATOM     16  C   UNL     1       2.806  -4.760   1.911  0.00  0.00    +0.054 A 
ATOM     17  C   UNL     1       2.115  -4.014   1.000  0.00  0.00    +0.189 A 
ATOM     18  O   UNL     1       1.588  -4.854   0.086  0.00  0.00    -0.458 OA
ATOM     19  C   UNL     1       1.932  -6.113   0.389  0.00  0.00    +0.196 A 
ENDBRANCH  11  17
ENDBRANCH   5  13
ENDBRANCH   1   8
BRANCH   2  20
ATOM     20  C   UNL     1       2.065   5.826  -0.609  0.00  0.00    +0.200 C 
BRANCH  20  21
ATOM     21  N   UNL     1       3.385   6.354  -0.961  0.00  0.00    -0.303 N 
ATOM     22  C   UNL     1       3.553   7.679  -1.148  0.00  0.00    +0.246 C 
ATOM     23  O   UNL     1       2.610   8.435  -1.024  0.00  0.00    -0.270 OA
ATOM     24  H   UNL     1       4.138   5.751  -1.060  0.00  0.00    +0.150 HD
BRANCH  22  25
ATOM     25  C   UNL     1       4.885   8.211  -1.504  0.00  0.00    +0.055 A 
ATOM     26  C   UNL     1       5.971   7.345  -1.647  0.00  0.00    +0.016 A 
ATOM     27  C   UNL     1       7.211   7.848  -1.979  0.00  0.00    +0.021 A 
ATOM     28  C   UNL     1       7.381   9.210  -2.171  0.00  0.00    +0.042 A 
ATOM     29  C   UNL     1       6.309  10.074  -2.031  0.00  0.00    +0.040 A 
ATOM     30  C   UNL     1       5.061   9.583  -1.704  0.00  0.00    +0.054 A 
ATOM     31 CL   UNL     1       3.716  10.667  -1.536  0.00  0.00    -0.083 Cl
ATOM     32 CL   UNL     1       8.946   9.834  -2.589  0.00  0.00    -0.083 Cl
ENDBRANCH  22  25
ENDBRANCH  20  21
ENDBRANCH   2  20
TORSDOF 6
