REMARK  Name = ZINC39523161
REMARK  6 active torsions:
REMARK  status: ('A' for Active; 'I' for Inactive)
REMARK    1  A    between atoms: C_1  and  C_2
REMARK    2  A    between atoms: C_2  and  C_3
REMARK    3  A    between atoms: C_2  and  S_4
REMARK    4  A    between atoms: S_4  and  C_7
REMARK    5  A    between atoms: C_17  and  O_21
REMARK    6  A    between atoms: N_19  and  O_20
REMARK                            x       y       z     vdW  Elec       q    Type
REMARK                         _______ _______ _______ _____ _____    ______ ____
ROOT
ATOM      1  C   UNL     1      -1.466  -2.419   0.181  0.00  0.00    +0.133 C 
ATOM      2  C   UNL     1      -0.980  -2.630   1.616  0.00  0.00    +0.026 C 
ATOM      3  C   UNL     1      -0.795  -4.126   1.877  0.00  0.00    +0.004 C 
ATOM      4  C   UNL     1      -2.130  -4.847   1.680  0.00  0.00    +0.025 C 
ATOM      5  C   UNL     1      -2.615  -4.636   0.244  0.00  0.00    +0.051 C 
ATOM      6  C   UNL     1      -2.801  -3.140  -0.016  0.00  0.00    +0.051 C 
ATOM      7  C   UNL     1      -1.579  -5.197  -0.732  0.00  0.00    +0.025 C 
ATOM      8  C   UNL     1      -1.410  -6.699  -0.483  0.00  0.00    +0.006 C 
ATOM      9  C   UNL     1      -2.767  -7.390  -0.643  0.00  0.00    +0.050 C 
ATOM     10  C   UNL     1      -3.769  -6.766   0.331  0.00  0.00    +0.210 C 
ATOM     11  N   UNL     1      -3.896  -5.330   0.052  0.00  0.00    -0.156 NA
ENDROOT
BRANCH   1  12
ATOM     12  S   UNL     1      -1.686  -0.645  -0.129  0.00  0.00    -0.026 S 
ATOM     13  O   UNL     1      -2.526  -0.113   0.886  0.00  0.00    -0.174 OA
ATOM     14  O   UNL     1      -2.049  -0.468  -1.491  0.00  0.00    -0.174 OA
BRANCH  12  16
ATOM     15  C   UNL     1       0.937  -0.628  -0.905  0.00  0.00    +0.031 C 
ATOM     16  C   UNL     1      -0.012   0.013   0.109  0.00  0.00    +0.125 C 
ATOM     17  C   UNL     1      -0.027   1.530  -0.095  0.00  0.00    +0.031 C 
ENDBRANCH  12  16
ENDBRANCH   1  12
BRANCH  11  18
ATOM     18  O   UNL     1      -4.946  -4.727   0.873  0.00  0.00    -0.309 OA
ATOM     19  H   UNL     1      -5.810  -5.151   0.780  0.00  0.00    +0.237 HD
ENDBRANCH  11  18
BRANCH  10  20
ATOM     20  O   UNL     1      -5.042  -7.395   0.173  0.00  0.00    -0.375 OA
ATOM     21  H   UNL     1      -5.034  -8.347   0.343  0.00  0.00    +0.212 HD
ENDBRANCH  10  20
TORSDOF 4
