REMARK  Name = ZINC45112698
REMARK  6 active torsions:
REMARK  status: ('A' for Active; 'I' for Inactive)
REMARK    1  A    between atoms: C_1  and  C_2
REMARK    2  A    between atoms: C_2  and  C_4
REMARK    3  A    between atoms: N_9  and  C_10
REMARK    4  A    between atoms: C_10  and  C_11
REMARK    5  A    between atoms: C_10  and  C_12
REMARK    6  A    between atoms: C_10  and  C_13
REMARK                            x       y       z     vdW  Elec       q    Type
REMARK                         _______ _______ _______ _____ _____    ______ ____
ROOT
ATOM      1  C   UNL     1       0.731  -0.503   1.223  0.00  0.00    +0.238 C 
ATOM      2  O   UNL     1       1.780   0.007   1.554  0.00  0.00    -0.274 OA
ATOM      3  N   UNL     1       0.217  -1.517   1.947  0.00  0.00    -0.239 N 
ATOM      4  C   UNL     1       0.869  -1.964   3.039  0.00  0.00    +0.307 C 
ATOM      5  O   UNL     1       1.920  -1.452   3.371  0.00  0.00    -0.252 OA
ATOM      6  N   UNL     1       0.355  -2.977   3.763  0.00  0.00    -0.286 N 
ATOM      7  H   UNL     1      -0.622  -1.925   1.682  0.00  0.00    +0.159 HD
ATOM      8  H   UNL     1      -0.484  -3.386   3.498  0.00  0.00    +0.151 HD
ENDROOT
BRANCH   1  10
ATOM      9  C   UNL     1      -0.019   1.526   0.010  0.00  0.00    +0.034 C 
ATOM     10  C   UNL     1       0.002  -0.004   0.002  0.00  0.00    +0.163 C 
ATOM     11 CL   UNL     1       0.846  -0.586  -1.481  0.00  0.00    -0.112 Cl
ENDBRANCH   1  10
BRANCH   6  12
ATOM     12  C   UNL     1       1.063  -3.463   4.950  0.00  0.00    +0.106 C 
ATOM     13  C   UNL     1       2.451  -3.964   4.546  0.00  0.00    +0.041 C 
ATOM     14  C   UNL     1       1.207  -2.322   5.960  0.00  0.00    +0.041 C 
BRANCH  12  15
ATOM     15  C   UNL     1       0.284  -4.591   5.574  0.00  0.00    +0.233 C 
ATOM     16  O   UNL     1       0.869  -5.516   6.097  0.00  0.00    -0.274 OA
ATOM     17  N   UNL     1      -1.064  -4.574   5.550  0.00  0.00    -0.328 N 
ATOM     18  H   UNL     1      -1.532  -3.834   5.131  0.00  0.00    +0.145 HD
ATOM     19  H   UNL     1      -1.565  -5.300   5.952  0.00  0.00    +0.145 HD
ENDBRANCH  12  15
ENDBRANCH   6  12
TORSDOF 3
