REMARK  Name = ZINC45542751
REMARK  6 active torsions:
REMARK  status: ('A' for Active; 'I' for Inactive)
REMARK    1  A    between atoms: C_1  and  C_2
REMARK    2  A    between atoms: C_9  and  O_12
REMARK    3  A    between atoms: O_12  and  C_13
REMARK    4  A    between atoms: C_13  and  C_14
REMARK    5  A    between atoms: C_14  and  C_16
REMARK    6  A    between atoms: C_14  and  N_19
REMARK                            x       y       z     vdW  Elec       q    Type
REMARK                         _______ _______ _______ _____ _____    ______ ____
ROOT
ATOM      1  O   UNL     1       0.046  -1.980   3.588  0.00  0.00    -0.491 OA
ENDROOT
BRANCH   1  10
ATOM      2  C   UNL     1      -0.018   1.503   0.010  0.00  0.00    +0.065 C 
ATOM      3  C   UNL     1       0.002  -0.004   0.002  0.00  0.00    +0.039 A 
ATOM      4  C   UNL     1       0.005  -0.676  -1.219  0.00  0.00    +0.023 A 
ATOM      5  C   UNL     1       0.024  -2.041  -1.245  0.00  0.00    +0.012 A 
ATOM      6  C   UNL     1       0.039  -2.729  -0.017  0.00  0.00    +0.004 A 
ATOM      7  C   UNL     1       0.059  -4.132   0.035  0.00  0.00    +0.010 A 
ATOM      8  C   UNL     1       0.074  -4.763   1.241  0.00  0.00    +0.004 A 
ATOM      9  C   UNL     1       0.070  -4.037   2.429  0.00  0.00    +0.048 A 
ATOM     10  C   UNL     1       0.050  -2.672   2.419  0.00  0.00    +0.146 A 
ATOM     11  C   UNL     1       0.035  -1.984   1.187  0.00  0.00    +0.113 A 
ATOM     12  N   UNL     1       0.022  -0.648   1.143  0.00  0.00    -0.248 NA
ENDBRANCH   1  10
BRANCH   1  13
ATOM     13  C   UNL     1       0.062  -2.745   4.795  0.00  0.00    +0.222 C 
BRANCH  13  14
ATOM     14  C   UNL     1       0.054  -1.800   5.998  0.00  0.00    +0.050 C 
BRANCH  14  15
ATOM     15  C   UNL     1      -0.052  -2.604   7.268  0.00  0.00    +0.199 C 
ATOM     16  O   UNL     1       0.940  -2.831   7.928  0.00  0.00    -0.278 OA
ATOM     17  N   UNL     1      -1.251  -3.072   7.670  0.00  0.00    -0.331 N 
ATOM     18  H   UNL     1      -2.044  -2.891   7.143  0.00  0.00    +0.145 HD
ATOM     19  H   UNL     1      -1.319  -3.590   8.488  0.00  0.00    +0.145 HD
ENDBRANCH  14  15
BRANCH  14  20
ATOM     20  N   UNL     1       1.299  -1.020   6.016  0.00  0.00    +0.388 N 
ATOM     21  H   UNL     1       1.370  -0.481   5.165  0.00  0.00    -0.089 HD
ATOM     22  H   UNL     1       1.294  -0.397   6.809  0.00  0.00    -0.089 HD
ATOM     23  H   UNL     1       2.087  -1.646   6.085  0.00  0.00    -0.089 HD
ENDBRANCH  14  20
ENDBRANCH  13  14
ENDBRANCH   1  13
TORSDOF 5
