REMARK  Name = ZINC40824369
REMARK  6 active torsions:
REMARK  status: ('A' for Active; 'I' for Inactive)
REMARK    1  A    between atoms: C_1  and  C_2
REMARK    2  A    between atoms: C_6  and  C_7
REMARK    3  A    between atoms: N_9  and  N_10
REMARK    4  A    between atoms: N_10  and  C_11
REMARK    5  A    between atoms: N_10  and  C_17
REMARK    6  A    between atoms: N_27  and  N_28
REMARK                            x       y       z     vdW  Elec       q    Type
REMARK                         _______ _______ _______ _____ _____    ______ ____
ROOT
ATOM      1  C   UNL     1      -0.639  -1.131  -0.509  0.00  0.00    +0.048 C 
ATOM      2  C   UNL     1      -0.641  -2.449   0.221  0.00  0.00    +0.009 A 
ATOM      3  C   UNL     1      -0.800  -3.721  -0.343  0.00  0.00    +0.042 A 
ATOM      4  C   UNL     1      -0.740  -4.636   0.681  0.00  0.00    +0.115 A 
ATOM      5  O   UNL     1      -0.551  -3.970   1.818  0.00  0.00    -0.454 OA
ATOM      6  C   UNL     1      -0.483  -2.643   1.565  0.00  0.00    +0.194 A 
ATOM      7  C   UNL     1      -0.878  -6.122   0.463  0.00  0.00    +0.075 C 
ATOM      8  C   UNL     1      -1.579  -6.377  -0.874  0.00  0.00    +0.014 C 
ATOM      9  C   UNL     1      -0.868  -5.630  -2.007  0.00  0.00    +0.058 C 
ATOM     10  C   UNL     1      -1.000  -4.136  -1.749  0.00  0.00    +0.070 C 
ATOM     11  N   UNL     1      -1.268  -3.287  -2.693  0.00  0.00    -0.183 NA
ENDROOT
BRANCH  11  12
ATOM     12  N   UNL     1      -1.447  -3.736  -4.008  0.00  0.00    -0.191 N 
ATOM     13  C   UNL     1      -1.726  -2.855  -4.989  0.00  0.00    +0.317 C 
ATOM     14  O   UNL     1      -1.881  -3.245  -6.131  0.00  0.00    -0.251 OA
ATOM     15  N   UNL     1      -1.831  -1.542  -4.705  0.00  0.00    -0.312 N 
ATOM     16  H   UNL     1      -1.371  -4.681  -4.213  0.00  0.00    +0.179 HD
ATOM     17  H   UNL     1      -1.707  -1.231  -3.795  0.00  0.00    +0.147 HD
ATOM     18  H   UNL     1      -2.031  -0.907  -5.411  0.00  0.00    +0.147 HD
ENDBRANCH  11  12
BRANCH   6  19
ATOM     19  C   UNL     1      -0.278  -1.589   2.564  0.00  0.00    +0.296 C 
ATOM     20  O   UNL     1      -0.237  -0.423   2.219  0.00  0.00    -0.265 OA
ATOM     21  N   UNL     1      -0.134  -1.913   3.865  0.00  0.00    -0.223 N 
ATOM     22  H   UNL     1      -0.167  -2.842   4.140  0.00  0.00    +0.174 HD
BRANCH  21  23
ATOM     23  N   UNL     1       0.062  -0.906   4.819  0.00  0.00    -0.219 N 
BRANCH  23  24
ATOM     24  C   UNL     1      -1.010  -0.103   5.218  0.00  0.00    +0.053 A 
ATOM     25  C   UNL     1      -0.785   1.014   6.013  0.00  0.00    +0.025 A 
ATOM     26  C   UNL     1      -1.846   1.805   6.406  0.00  0.00    +0.002 A 
ATOM     27  C   UNL     1      -3.132   1.487   6.008  0.00  0.00    +0.000 A 
ATOM     28  C   UNL     1      -3.359   0.376   5.217  0.00  0.00    +0.002 A 
ATOM     29  C   UNL     1      -2.302  -0.416   4.816  0.00  0.00    +0.025 A 
ENDBRANCH  23  24
BRANCH  23  30
ATOM     30  C   UNL     1       1.329  -0.705   5.373  0.00  0.00    +0.053 A 
ATOM     31  C   UNL     1       2.424  -0.488   4.545  0.00  0.00    +0.025 A 
ATOM     32  C   UNL     1       3.675  -0.290   5.095  0.00  0.00    +0.002 A 
ATOM     33  C   UNL     1       3.839  -0.308   6.468  0.00  0.00    +0.000 A 
ATOM     34  C   UNL     1       2.751  -0.524   7.295  0.00  0.00    +0.002 A 
ATOM     35  C   UNL     1       1.496  -0.717   6.752  0.00  0.00    +0.025 A 
ENDBRANCH  23  30
ENDBRANCH  21  23
ENDBRANCH   6  19
TORSDOF 5
