REMARK  Name = ZINC02570311
REMARK  5 active torsions:
REMARK  status: ('A' for Active; 'I' for Inactive)
REMARK    1  A    between atoms: C_1  and  C_2
REMARK    2  A    between atoms: C_5  and  N_8
REMARK    3  A    between atoms: C_11  and  C_18
REMARK    4  A    between atoms: C_13  and  C_16
REMARK    5  A    between atoms: C_14  and  N_15
REMARK                            x       y       z     vdW  Elec       q    Type
REMARK                         _______ _______ _______ _____ _____    ______ ____
ROOT
ATOM      1  N   UNL     1      -0.822   3.754   2.439  0.00  0.00    -0.260 N 
ATOM      2  C   UNL     1      -0.394   3.045   1.348  0.00  0.00    +0.024 C 
ATOM      3  C   UNL     1      -0.406   3.600   0.117  0.00  0.00    +0.025 C 
ATOM      4  C   UNL     1      -0.911   5.005  -0.093  0.00  0.00    +0.097 C 
ATOM      5  C   UNL     1      -0.940   5.769   1.197  0.00  0.00    +0.077 C 
ATOM      6  C   UNL     1      -0.899   5.128   2.394  0.00  0.00    +0.107 C 
ATOM      7  C   UNL     1       0.047   2.885  -1.005  0.00  0.00    +0.162 C 
ATOM      8  O   UNL     1       0.012   3.410  -2.100  0.00  0.00    -0.292 OA
ATOM      9  C   UNL     1       0.575   1.482  -0.876  0.00  0.00    +0.080 C 
ATOM     10  C   UNL     1       1.173   1.302   0.524  0.00  0.00    +0.014 C 
ATOM     11  C   UNL     1       0.098   1.633   1.561  0.00  0.00    +0.052 C 
ENDROOT
BRANCH   1  16
ATOM     12  C   UNL     1      -2.291   1.010   7.182  0.00  0.00    +0.044 C 
ATOM     13  C   UNL     1      -1.900   1.739   5.922  0.00  0.00    -0.050 A 
ATOM     14  C   UNL     1      -0.609   2.209   5.769  0.00  0.00    +0.005 A 
ATOM     15  C   UNL     1      -0.248   2.877   4.615  0.00  0.00    +0.024 A 
ATOM     16  C   UNL     1      -1.184   3.077   3.609  0.00  0.00    +0.040 A 
ATOM     17  C   UNL     1      -2.482   2.608   3.768  0.00  0.00    +0.024 A 
ATOM     18  C   UNL     1      -2.834   1.936   4.922  0.00  0.00    +0.005 A 
ENDBRANCH   1  16
BRANCH   4  19
ATOM     19  C   UNL     1      -2.304   4.949  -0.666  0.00  0.00    -0.035 A 
ATOM     20  C   UNL     1      -3.315   4.322   0.037  0.00  0.00    +0.007 A 
ATOM     21  C   UNL     1      -4.594   4.275  -0.484  0.00  0.00    +0.038 A 
ATOM     22  C   UNL     1      -4.860   4.845  -1.718  0.00  0.00    +0.123 A 
ATOM     23  C   UNL     1      -3.845   5.468  -2.424  0.00  0.00    +0.038 A 
ATOM     24  C   UNL     1      -2.568   5.519  -1.897  0.00  0.00    +0.007 A 
ATOM     25  F   UNL     1      -6.108   4.794  -2.231  0.00  0.00    -0.205 F 
ENDBRANCH   4  19
BRANCH   6  26
ATOM     26  N   UNL     1      -0.935   5.852   3.561  0.00  0.00    -0.345 N 
ATOM     27  H   UNL     1      -0.817   5.404   4.413  0.00  0.00    +0.144 HD
ATOM     28  H   UNL     1      -1.077   6.811   3.533  0.00  0.00    +0.144 HD
ENDBRANCH   6  26
BRANCH   5  29
ATOM     29  C   UNL     1      -1.012   7.199   1.167  0.00  0.00    +0.099 C 
ATOM     30  N   UNL     1      -1.070   8.334   1.143  0.00  0.00    -0.191 NA
ENDBRANCH   5  29
TORSDOF 4
