REMARK  Name = ZINC49476107
REMARK  4 active torsions:
REMARK  status: ('A' for Active; 'I' for Inactive)
REMARK    1  A    between atoms: C_1  and  C_2
REMARK    2  A    between atoms: C_6  and  C_7
REMARK    3  A    between atoms: N_9  and  C_10
REMARK    4  A    between atoms: C_15  and  C_16
REMARK                            x       y       z     vdW  Elec       q    Type
REMARK                         _______ _______ _______ _____ _____    ______ ____
ROOT
ATOM      1  C   UNL     1       0.031  -0.395   2.494  0.00  0.00    +0.284 C 
ATOM      2  O   UNL     1       0.018   0.792   2.767  0.00  0.00    -0.266 OA
ATOM      3  N   UNL     1       0.053  -1.312   3.481  0.00  0.00    -0.276 N 
ATOM      4  H   UNL     1       0.064  -2.258   3.264  0.00  0.00    +0.155 HD
ENDROOT
BRANCH   1  10
ATOM      5  C   UNL     1      -0.018   1.503   0.010  0.00  0.00    +0.048 C 
ATOM      6  C   UNL     1       0.002  -0.004   0.002  0.00  0.00    +0.001 A 
ATOM      7  C   UNL     1       0.009  -0.835  -1.128  0.00  0.00    +0.061 A 
ATOM      8  C   UNL     1       0.028  -2.113  -0.683  0.00  0.00    +0.171 A 
ATOM      9  O   UNL     1       0.033  -2.102   0.656  0.00  0.00    -0.443 OA
ATOM     10  C   UNL     1       0.024  -0.825   1.094  0.00  0.00    +0.194 A 
ATOM     11 BR   UNL     1       0.044  -3.658  -1.772  0.00  0.00    -0.008 Br
ENDBRANCH   1  10
BRANCH   3  12
ATOM     12  C   UNL     1       0.061  -0.899   4.826  0.00  0.00    +0.074 A 
ATOM     13  C   UNL     1       0.042   0.384   5.269  0.00  0.00    +0.128 A 
ATOM     14  N   UNL     1       0.058   0.350   6.627  0.00  0.00    -0.283 N 
ATOM     15  H   UNL     1       0.050   1.119   7.217  0.00  0.00    +0.188 HD
ATOM     16  N   UNL     1       0.087  -0.993   7.023  0.00  0.00    -0.177 NA
ATOM     17  C   UNL     1       0.083  -1.740   5.949  0.00  0.00    +0.081 A 
ATOM     18  C   UNL     1       0.103  -3.247   5.922  0.00  0.00    +0.069 C 
ENDBRANCH   3  12
TORSDOF 2
