REMARK  Name = ZINC51994664
REMARK  5 active torsions:
REMARK  status: ('A' for Active; 'I' for Inactive)
REMARK    1  A    between atoms: C_1  and  C_2
REMARK    2  A    between atoms: C_2  and  C_4
REMARK    3  A    between atoms: C_2  and  N_16
REMARK    4  A    between atoms: N_6  and  C_7
REMARK    5  A    between atoms: C_13  and  O_15
REMARK                            x       y       z     vdW  Elec       q    Type
REMARK                         _______ _______ _______ _____ _____    ______ ____
ROOT
ATOM      1  C   UNL     1       0.707  -0.490  -1.238  0.00  0.00    +0.233 C 
ATOM      2  O   UNL     1       0.120  -1.191  -2.034  0.00  0.00    -0.274 OA
ATOM      3  N   UNL     1       1.991  -0.146  -1.462  0.00  0.00    -0.308 N 
ATOM      4  H   UNL     1       2.461   0.415  -0.825  0.00  0.00    +0.149 HD
ENDROOT
BRANCH   3   5
ATOM      5  C   UNL     1       2.677  -0.618  -2.667  0.00  0.00    +0.101 C 
ATOM      6  C   UNL     1       3.249  -2.015  -2.414  0.00  0.00    +0.025 C 
ATOM      7  C   UNL     1       4.242  -1.956  -1.252  0.00  0.00    +0.002 C 
ATOM      8  C   UNL     1       5.380  -0.995  -1.601  0.00  0.00    +0.003 C 
ATOM      9  C   UNL     1       4.808   0.402  -1.854  0.00  0.00    +0.033 C 
ATOM     10  C   UNL     1       3.814   0.343  -3.016  0.00  0.00    +0.135 C 
BRANCH  10  11
ATOM     11  O   UNL     1       3.280   1.647  -3.253  0.00  0.00    -0.390 OA
ATOM     12  H   UNL     1       3.947   2.310  -3.480  0.00  0.00    +0.210 HD
ENDBRANCH  10  11
ENDBRANCH   3   5
BRANCH   1  14
ATOM     13  C   UNL     1      -0.019   1.526   0.010  0.00  0.00    +0.038 C 
ATOM     14  C   UNL     1       0.002  -0.004   0.002  0.00  0.00    +0.157 C 
BRANCH  14  15
ATOM     15  N   UNL     1      -1.372  -0.511   0.012  0.00  0.00    -0.289 N 
ATOM     16  C   UNL     1      -2.029  -0.655   1.181  0.00  0.00    +0.298 C 
ATOM     17  O   UNL     1      -1.480  -0.364   2.226  0.00  0.00    -0.253 OA
ATOM     18  N   UNL     1      -3.293  -1.122   1.190  0.00  0.00    -0.313 N 
ATOM     19  H   UNL     1      -1.810  -0.743  -0.822  0.00  0.00    +0.151 HD
ATOM     20  H   UNL     1      -3.731  -1.354   0.356  0.00  0.00    +0.146 HD
ATOM     21  H   UNL     1      -3.765  -1.225   2.031  0.00  0.00    +0.146 HD
ENDBRANCH  14  15
ENDBRANCH   1  14
TORSDOF 4
