REMARK  Name = ZINC41834055
REMARK  11 active torsions:
REMARK  status: ('A' for Active; 'I' for Inactive)
REMARK    1  A    between atoms: C_1  and  C_2
REMARK    2  A    between atoms: C_2  and  C_3
REMARK    3  A    between atoms: C_2  and  C_9
REMARK    4  A    between atoms: C_2  and  N_12
REMARK    5  A    between atoms: C_3  and  C_4
REMARK    6  A    between atoms: C_4  and  C_5
REMARK    7  A    between atoms: C_4  and  C_6
REMARK    8  A    between atoms: C_4  and  O_7
REMARK    9  A    between atoms: O_7  and  C_8
REMARK   10  A    between atoms: N_12  and  C_13
REMARK   11  A    between atoms: C_16  and  C_19
REMARK                            x       y       z     vdW  Elec       q    Type
REMARK                         _______ _______ _______ _____ _____    ______ ____
ROOT
ATOM      1  N   UNL     1       0.375  -0.085  -0.821  0.00  0.00    +0.392 N 
ATOM      2  H   UNL     1       1.064   0.604  -0.558  0.00  0.00    -0.084 HD
ATOM      3  H   UNL     1       0.840  -0.936  -1.098  0.00  0.00    -0.084 HD
ENDROOT
BRANCH   1   4
ATOM      4  C   UNL     1      -0.424   0.424  -1.944  0.00  0.00    -0.070 C 
ATOM      5  C   UNL     1      -0.387   1.953  -1.944  0.00  0.00    -0.015 C 
ATOM      6  C   UNL     1      -1.219   2.483  -3.114  0.00  0.00    +0.011 C 
ATOM      7  C   UNL     1      -0.641   1.959  -4.430  0.00  0.00    +0.075 C 
ATOM      8  C   UNL     1      -0.679   0.429  -4.429  0.00  0.00    +0.011 C 
ATOM      9  C   UNL     1       0.153  -0.101  -3.260  0.00  0.00    -0.015 C 
BRANCH   7  10
ATOM     10  C   UNL     1      -1.461   2.481  -5.582  0.00  0.00    +0.214 C 
ATOM     11  O   UNL     1      -2.414   3.201  -5.371  0.00  0.00    -0.276 OA
ATOM     12  N   UNL     1      -1.136   2.147  -6.846  0.00  0.00    -0.329 N 
ATOM     13  H   UNL     1      -0.374   1.570  -7.015  0.00  0.00    +0.145 HD
ATOM     14  H   UNL     1      -1.664   2.482  -7.587  0.00  0.00    +0.145 HD
ENDBRANCH   7  10
ENDBRANCH   1   4
BRANCH   1  16
ATOM     15  C   UNL     1      -1.354   0.881   0.620  0.00  0.00    +0.002 C 
ATOM     16  C   UNL     1      -0.506  -0.357   0.323  0.00  0.00    +0.035 C 
BRANCH  16  17
ATOM     17  C   UNL     1      -1.409  -1.518  -0.004  0.00  0.00    +0.345 C 
ATOM     18  O   UNL     1      -1.400  -2.002  -1.123  0.00  0.00    -0.248 OA
ATOM     19  O   UNL     1      -2.150  -1.974   0.851  0.00  0.00    -0.248 OA
ENDBRANCH  16  17
BRANCH  16  20
ATOM     20  C   UNL     1       0.343  -0.701   1.549  0.00  0.00    +0.033 C 
BRANCH  20  21
ATOM     21  C   UNL     1       1.319  -1.824   1.195  0.00  0.00    +0.063 C 
ATOM     22  C   UNL     1       2.115  -2.220   2.441  0.00  0.00    +0.041 C 
ATOM     23  C   UNL     1       0.539  -3.036   0.682  0.00  0.00    +0.041 C 
BRANCH  21  24
ATOM     24  O   UNL     1       2.218  -1.372   0.180  0.00  0.00    -0.377 OA
ATOM     25  C   UNL     1       3.177  -2.350  -0.225  0.00  0.00    +0.194 C 
ENDBRANCH  21  24
ENDBRANCH  20  21
ENDBRANCH  16  20
ENDBRANCH   1  16
TORSDOF 7
