REMARK  Name = ZINC19398649
REMARK  7 active torsions:
REMARK  status: ('A' for Active; 'I' for Inactive)
REMARK    1  A    between atoms: C_1  and  C_2
REMARK    2  A    between atoms: C_2  and  C_3
REMARK    3  A    between atoms: C_3  and  C_22
REMARK    4  A    between atoms: N_6  and  C_10
REMARK    5  A    between atoms: C_10  and  C_11
REMARK    6  A    between atoms: C_11  and  C_13
REMARK    7  A    between atoms: C_11  and  N_21
REMARK                            x       y       z     vdW  Elec       q    Type
REMARK                         _______ _______ _______ _____ _____    ______ ____
ROOT
ATOM      1  C   UNL     1       2.488   1.319  -0.014  0.00  0.00    -0.023 C 
ENDROOT
BRANCH   1   2
ATOM      2  C   UNL     1       1.173   2.055   0.002  0.00  0.00    -0.022 A 
ATOM      3  C   UNL     1       1.154   3.437   0.009  0.00  0.00    +0.043 A 
ATOM      4  C   UNL     1      -0.054   4.113   0.025  0.00  0.00    +0.124 A 
ATOM      5  C   UNL     1      -1.243   3.404   0.032  0.00  0.00    +0.041 A 
ATOM      6  C   UNL     1      -1.225   2.023   0.019  0.00  0.00    +0.041 A 
ATOM      7  C   UNL     1      -0.016   1.347   0.009  0.00  0.00    +0.125 A 
ATOM      8  F   UNL     1       0.002  -0.004   0.002  0.00  0.00    -0.205 F 
ATOM      9  F   UNL     1      -0.072   5.464   0.032  0.00  0.00    -0.205 F 
ENDBRANCH   1   2
BRANCH   1  10
ATOM     10  N   UNL     1       3.546   2.219  -0.493  0.00  0.00    +0.384 N 
ATOM     11  H   UNL     1       3.305   2.560  -1.511  0.00  0.00    -0.089 HD
ATOM     12  H   UNL     1       4.506   1.682  -0.505  0.00  0.00    -0.089 HD
ATOM     13  H   UNL     1       3.620   3.088   0.177  0.00  0.00    -0.089 HD
ENDBRANCH   1  10
BRANCH   1  14
ATOM     14  C   UNL     1       2.824   0.845   1.401  0.00  0.00    +0.106 C 
BRANCH  14  18
ATOM     15  C   UNL     1       5.894  -1.243   1.291  0.00  0.00    +0.109 C 
ATOM     16  C   UNL     1       4.391  -1.074   1.191  0.00  0.00    +0.246 C 
ATOM     17  O   UNL     1       3.571  -1.937   0.962  0.00  0.00    -0.273 OA
ATOM     18  N   UNL     1       4.156   0.235   1.408  0.00  0.00    -0.226 N 
ATOM     19  C   UNL     1       5.290   0.908   1.636  0.00  0.00    +0.309 C 
ATOM     20  O   UNL     1       5.333   2.102   1.862  0.00  0.00    -0.252 OA
ATOM     21  N   UNL     1       6.376   0.117   1.588  0.00  0.00    -0.285 N 
ATOM     22  C   UNL     1       6.473  -1.743  -0.034  0.00  0.00    +0.041 C 
ATOM     23  H   UNL     1       7.453   0.302   1.720  0.00  0.00    +0.151 HD
BRANCH  15  25
ATOM     24  C   UNL     1       7.764  -2.175   2.661  0.00  0.00    +0.006 C 
ATOM     25  C   UNL     1       6.252  -2.201   2.429  0.00  0.00    +0.031 C 
ENDBRANCH  15  25
ENDBRANCH  14  18
ENDBRANCH   1  14
TORSDOF 5
