REMARK  Name = ZINC08312264
REMARK  7 active torsions:
REMARK  status: ('A' for Active; 'I' for Inactive)
REMARK    1  A    between atoms: C_1  and  C_2
REMARK    2  A    between atoms: C_2  and  C_4
REMARK    3  A    between atoms: C_2  and  N_53
REMARK    4  A    between atoms: C_11  and  C_12
REMARK    5  A    between atoms: C_11  and  N_53
REMARK    6  A    between atoms: C_12  and  C_14
REMARK    7  A    between atoms: C_12  and  C_20
REMARK                            x       y       z     vdW  Elec       q    Type
REMARK                         _______ _______ _______ _____ _____    ______ ____
ROOT
ATOM      1  C   UNL     1      -1.343  -4.509   0.186  0.00  0.00    +0.034 C 
ENDROOT
BRANCH   1   2
ATOM      2  C   UNL     1      -2.454  -5.503  -0.036  0.00  0.00    -0.017 A 
ATOM      3  C   UNL     1      -3.162  -5.670  -1.164  0.00  0.00    +0.087 A 
ATOM      4  N   UNL     1      -4.083  -6.667  -0.994  0.00  0.00    -0.360 N 
ATOM      5  H   UNL     1      -4.708  -6.970  -1.671  0.00  0.00    +0.165 HD
ATOM      6  C   UNL     1      -3.995  -7.172   0.284  0.00  0.00    +0.047 A 
ATOM      7  C   UNL     1      -2.970  -6.465   0.940  0.00  0.00    +0.003 A 
ATOM      8  C   UNL     1      -2.654  -6.767   2.266  0.00  0.00    +0.010 A 
ATOM      9  C   UNL     1      -3.343  -7.749   2.921  0.00  0.00    +0.001 A 
ATOM     10  C   UNL     1      -4.354  -8.449   2.278  0.00  0.00    +0.002 A 
ATOM     11  C   UNL     1      -4.683  -8.168   0.970  0.00  0.00    +0.026 A 
ENDBRANCH   1   2
BRANCH   1  12
ATOM     12  C   UNL     1      -0.228  -4.776  -0.792  0.00  0.00    -0.042 A 
ATOM     13  C   UNL     1      -0.471  -4.713  -2.151  0.00  0.00    +0.004 A 
ATOM     14  C   UNL     1       0.553  -4.953  -3.048  0.00  0.00    +0.000 A 
ATOM     15  C   UNL     1       1.818  -5.265  -2.586  0.00  0.00    +0.000 A 
ATOM     16  C   UNL     1       2.060  -5.332  -1.227  0.00  0.00    +0.000 A 
ATOM     17  C   UNL     1       1.037  -5.088  -0.330  0.00  0.00    +0.004 A 
ENDBRANCH   1  12
BRANCH   1  18
ATOM     18  C   UNL     1      -1.877  -3.091  -0.024  0.00  0.00    -0.069 C 
BRANCH  18  19
ATOM     19  N   UNL     1      -0.818  -2.121   0.312  0.00  0.00    +0.387 N 
ATOM     20  H   UNL     1      -0.541  -2.247   1.292  0.00  0.00    -0.085 HD
ATOM     21  H   UNL     1      -0.007  -2.281  -0.296  0.00  0.00    -0.085 HD
BRANCH  19  23
ATOM     22  C   UNL     1      -2.043  -0.280   1.377  0.00  0.00    -0.004 C 
ATOM     23  C   UNL     1      -1.307  -0.742   0.118  0.00  0.00    +0.013 C 
BRANCH  23  24
ATOM     24  C   UNL     1      -0.133   0.167  -0.140  0.00  0.00    +0.201 C 
ATOM     25  O   UNL     1       0.963  -0.119   0.296  0.00  0.00    -0.277 OA
ATOM     26  N   UNL     1      -0.300   1.297  -0.854  0.00  0.00    -0.303 N 
ATOM     27  C   UNL     1      -1.540   1.710  -1.528  0.00  0.00    +0.108 C 
ATOM     28  C   UNL     1      -1.253   3.051  -2.235  0.00  0.00    +0.020 C 
ATOM     29  C   UNL     1       0.290   3.031  -2.399  0.00  0.00    +0.020 C 
ATOM     30  C   UNL     1       0.732   2.322  -1.095  0.00  0.00    +0.108 C 
ENDBRANCH  23  24
ENDBRANCH  19  23
ENDBRANCH  18  19
ENDBRANCH   1  18
TORSDOF 6
