REMARK  Name = ZINC63020744
REMARK  10 active torsions:
REMARK  status: ('A' for Active; 'I' for Inactive)
REMARK    1  A    between atoms: C_1  and  C_2
REMARK    2  A    between atoms: C_2  and  C_3
REMARK    3  A    between atoms: C_2  and  C_4
REMARK    4  A    between atoms: C_2  and  N_6
REMARK    5  A    between atoms: C_4  and  N_5
REMARK    6  A    between atoms: N_6  and  C_7
REMARK    7  A    between atoms: C_10  and  S_17
REMARK    8  A    between atoms: C_12  and  S_13
REMARK    9  A    between atoms: S_13  and  C_16
REMARK   10  A    between atoms: S_17  and  C_20
REMARK                            x       y       z     vdW  Elec       q    Type
REMARK                         _______ _______ _______ _____ _____    ______ ____
ROOT
ATOM      1  C   UNL     1       1.947   0.473  -1.347  0.00  0.00    +0.053 A 
ATOM      2  C   UNL     1       2.451   1.264  -0.321  0.00  0.00    +0.027 A 
ATOM      3  C   UNL     1       3.642   1.941  -0.495  0.00  0.00    +0.029 A 
ATOM      4  C   UNL     1       4.333   1.833  -1.688  0.00  0.00    +0.090 A 
ATOM      5  C   UNL     1       3.834   1.047  -2.711  0.00  0.00    +0.055 A 
ATOM      6  C   UNL     1       2.647   0.362  -2.541  0.00  0.00    +0.110 A 
ENDROOT
BRANCH   6   7
ATOM      7  S   UNL     1       2.017  -0.645  -3.842  0.00  0.00    -0.004 S 
ATOM      8  O   UNL     1       0.671  -0.220  -4.011  0.00  0.00    -0.170 OA
ATOM      9  O   UNL     1       2.958  -0.506  -4.897  0.00  0.00    -0.170 OA
ATOM     10  C   UNL     1       2.060  -2.336  -3.185  0.00  0.00    +0.200 C 
ENDBRANCH   6   7
BRANCH   4  11
ATOM     11  S   UNL     1       5.851   2.700  -1.906  0.00  0.00    -0.006 S 
ATOM     12  O   UNL     1       5.962   2.891  -3.310  0.00  0.00    -0.170 OA
ATOM     13  O   UNL     1       5.763   3.813  -1.027  0.00  0.00    -0.170 OA
ATOM     14  C   UNL     1       7.131   1.549  -1.330  0.00  0.00    +0.200 C 
ENDBRANCH   4  11
BRANCH   1  15
ATOM     15  N   UNL     1       0.743  -0.214  -1.174  0.00  0.00    -0.339 N 
ATOM     16  H   UNL     1       0.435  -0.830  -1.856  0.00  0.00    +0.147 HD
BRANCH  15  18
ATOM     17  C   UNL     1       0.731  -0.497   1.255  0.00  0.00    +0.029 C 
ATOM     18  C   UNL     1      -0.053  -0.003   0.037  0.00  0.00    +0.011 C 
ATOM     19  C   UNL     1      -1.366  -0.781  -0.074  0.00  0.00    +0.029 C 
BRANCH  18  20
ATOM     20  C   UNL     1      -0.355   1.488   0.196  0.00  0.00    -0.061 C 
BRANCH  20  21
ATOM     21  N   UNL     1      -1.205   1.937  -0.915  0.00  0.00    +0.379 N 
ATOM     22  H   UNL     1      -0.725   1.782  -1.789  0.00  0.00    -0.090 HD
ATOM     23  H   UNL     1      -2.069   1.416  -0.909  0.00  0.00    -0.090 HD
ATOM     24  H   UNL     1      -1.405   2.920  -0.811  0.00  0.00    -0.090 HD
ENDBRANCH  20  21
ENDBRANCH  18  20
ENDBRANCH  15  18
ENDBRANCH   1  15
TORSDOF 6
