REMARK  Name = ZINC43514738
REMARK  4 active torsions:
REMARK  status: ('A' for Active; 'I' for Inactive)
REMARK    1  A    between atoms: C_1  and  C_2
REMARK    2  A    between atoms: C_2  and  C_4
REMARK    3  A    between atoms: C_2  and  N_7
REMARK    4  A    between atoms: C_4  and  N_6
REMARK                            x       y       z     vdW  Elec       q    Type
REMARK                         _______ _______ _______ _____ _____    ______ ____
ROOT
ATOM      1  N   UNL     1       0.311  -1.268   0.683  0.00  0.00    -0.286 NA
ATOM      2  C   UNL     1      -0.286  -1.303   2.027  0.00  0.00    +0.113 C 
ATOM      3  C   UNL     1       0.096  -2.612   2.722  0.00  0.00    +0.175 C 
ATOM      4  O   UNL     1      -0.314  -3.719   1.913  0.00  0.00    -0.374 OA
ATOM      5  C   UNL     1       0.260  -3.711   0.605  0.00  0.00    +0.135 C 
ATOM      6  C   UNL     1      -0.141  -2.418  -0.111  0.00  0.00    +0.086 C 
ATOM      7  C   UNL     1       0.503  -2.388  -1.496  0.00  0.00    +0.021 C 
ATOM      8  C   UNL     1       0.010  -3.588  -2.308  0.00  0.00    +0.002 C 
ATOM      9  C   UNL     1       0.390  -4.885  -1.592  0.00  0.00    +0.003 C 
ATOM     10  C   UNL     1      -0.246  -4.909  -0.200  0.00  0.00    +0.033 C 
ENDROOT
BRANCH   1  12
ATOM     11  C   UNL     1      -1.396  -0.085  -0.614  0.00  0.00    +0.031 C 
ATOM     12  C   UNL     1       0.002  -0.004   0.002  0.00  0.00    +0.105 C 
BRANCH  12  13
ATOM     13  C   UNL     1       1.016   0.242  -1.085  0.00  0.00    +0.063 C 
ATOM     14  S   UNL     1       2.499  -0.340  -0.942  0.00  0.00    -0.039 S 
BRANCH  13  15
ATOM     15  N   UNL     1       0.674   0.952  -2.178  0.00  0.00    -0.354 N 
ATOM     16  H   UNL     1      -0.226   1.305  -2.265  0.00  0.00    +0.143 HD
ATOM     17  H   UNL     1       1.326   1.110  -2.878  0.00  0.00    +0.143 HD
ENDBRANCH  13  15
ENDBRANCH  12  13
ENDBRANCH   1  12
TORSDOF 3
