REMARK  Name = ZINC37463237
REMARK  4 active torsions:
REMARK  status: ('A' for Active; 'I' for Inactive)
REMARK    1  A    between atoms: C_1  and  C_2
REMARK    2  A    between atoms: C_3  and  S_9
REMARK    3  A    between atoms: S_9  and  N_12
REMARK    4  A    between atoms: C_16  and  C_18
REMARK                            x       y       z     vdW  Elec       q    Type
REMARK                         _______ _______ _______ _____ _____    ______ ____
ROOT
ATOM      1  S   UNL     1      -2.134   0.200  -0.096  0.00  0.00    +0.070 S 
ATOM      2  O   UNL     1      -2.720  -0.414   1.044  0.00  0.00    -0.152 OA
ATOM      3  O   UNL     1      -1.947   1.605  -0.194  0.00  0.00    -0.152 OA
ENDROOT
BRANCH   1   6
ATOM      4  C   UNL     1       0.682   1.504  -1.001  0.00  0.00    +0.066 C 
ATOM      5  C   UNL     1       0.602   0.033  -0.680  0.00  0.00    +0.050 A 
ATOM      6  C   UNL     1      -0.546  -0.535  -0.303  0.00  0.00    +0.166 A 
ATOM      7  S   UNL     1      -0.053  -2.232  -0.065  0.00  0.00    -0.007 S 
ATOM      8  C   UNL     1       1.573  -2.083  -0.462  0.00  0.00    +0.290 A 
ATOM      9  O   UNL     1       2.431  -2.948  -0.477  0.00  0.00    -0.260 OA
ATOM     10  N   UNL     1       1.698  -0.774  -0.766  0.00  0.00    -0.318 N 
ATOM     11  H   UNL     1       2.556  -0.412  -1.039  0.00  0.00    +0.169 HD
ENDBRANCH   1   6
BRANCH   1  12
ATOM     12  N   UNL     1      -3.054  -0.247  -1.399  0.00  0.00    -0.152 NA
ATOM     13  C   UNL     1      -3.771  -1.540  -1.438  0.00  0.00    +0.179 C 
ATOM     14  S   UNL     1      -3.985  -1.777  -3.258  0.00  0.00    -0.141 S 
ATOM     15  C   UNL     1      -4.079   0.017  -3.690  0.00  0.00    +0.102 C 
ATOM     16  C   UNL     1      -3.204   0.614  -2.560  0.00  0.00    +0.203 C 
BRANCH  16  17
ATOM     17  C   UNL     1      -3.816   1.917  -2.113  0.00  0.00    +0.375 C 
ATOM     18  O   UNL     1      -3.690   2.916  -2.800  0.00  0.00    -0.245 OA
ATOM     19  O   UNL     1      -4.436   1.972  -1.065  0.00  0.00    -0.245 OA
ENDBRANCH  16  17
ENDBRANCH   1  12
TORSDOF 3
