REMARK  Name = ZINC00336203
REMARK  3 active torsions:
REMARK  status: ('A' for Active; 'I' for Inactive)
REMARK    1  A    between atoms: C_3  and  O_9
REMARK    2  A    between atoms: O_9  and  C_10
REMARK    3  A    between atoms: C_12  and  N_17
REMARK                            x       y       z     vdW  Elec       q    Type
REMARK                         _______ _______ _______ _____ _____    ______ ____
ROOT
ATOM      1  C   UNL     1       3.484   3.457  -0.118  0.00  0.00    +0.227 A 
ATOM      2  C   UNL     1       4.646   4.210  -0.240  0.00  0.00    +0.111 A 
ATOM      3  C   UNL     1       4.532   5.594  -0.338  0.00  0.00    +0.125 A 
ATOM      4  N   UNL     1       3.322   6.148  -0.310  0.00  0.00    -0.200 NA
ATOM      5  C   UNL     1       2.237   5.398  -0.192  0.00  0.00    +0.217 A 
ATOM      6  N   UNL     1       2.309   4.078  -0.102  0.00  0.00    -0.179 NA
ATOM      7  N   UNL     1       0.996   6.009  -0.166  0.00  0.00    -0.327 N 
ATOM      8  H   UNL     1       0.928   6.974  -0.234  0.00  0.00    +0.145 HD
ATOM      9  H   UNL     1       0.192   5.472  -0.080  0.00  0.00    +0.145 HD
ENDROOT
BRANCH   3  10
ATOM     10  N   UNL     1       5.664   6.385  -0.461  0.00  0.00    -0.343 N 
ATOM     11  H   UNL     1       6.543   5.975  -0.480  0.00  0.00    +0.144 HD
ATOM     12  H   UNL     1       5.577   7.349  -0.528  0.00  0.00    +0.144 HD
ENDBRANCH   3  10
BRANCH   1  13
ATOM     13  O   UNL     1       3.548   2.107  -0.021  0.00  0.00    -0.436 OA
BRANCH  13  16
ATOM     14  C   UNL     1       0.648   0.368   1.323  0.00  0.00    +0.023 A 
ATOM     15  C   UNL     1       1.836   1.071   1.266  0.00  0.00    +0.049 A 
ATOM     16  C   UNL     1       2.380   1.415   0.037  0.00  0.00    +0.149 A 
ATOM     17  C   UNL     1       1.728   1.052  -1.134  0.00  0.00    +0.085 A 
ATOM     18  C   UNL     1       0.539   0.349  -1.073  0.00  0.00    +0.043 A 
ATOM     19  C   UNL     1      -0.000   0.007   0.155  0.00  0.00    +0.043 A 
ATOM     20 CL   UNL     1      -1.493  -0.876   0.230  0.00  0.00    -0.083 Cl
ATOM     21 CL   UNL     1       2.405   1.481  -2.674  0.00  0.00    -0.080 Cl
ENDBRANCH  13  16
ENDBRANCH   1  13
TORSDOF 3
