REMARK  Name = ZINC37393517
REMARK  4 active torsions:
REMARK  status: ('A' for Active; 'I' for Inactive)
REMARK    1  A    between atoms: C_3  and  C_18
REMARK    2  A    between atoms: C_6  and  N_7
REMARK    3  A    between atoms: N_7  and  S_8
REMARK    4  A    between atoms: S_8  and  N_11
REMARK                            x       y       z     vdW  Elec       q    Type
REMARK                         _______ _______ _______ _____ _____    ______ ____
ROOT
ATOM      1  S   UNL     1      -1.175  -2.370   0.001  0.00  0.00    +0.131 S 
ATOM      2  O   UNL     1      -0.631  -2.763  -1.252  0.00  0.00    -0.136 OA
ATOM      3  O   UNL     1      -0.607  -2.776   1.238  0.00  0.00    -0.136 OA
ENDROOT
BRANCH   1   4
ATOM      4  N   UNL     1      -2.751  -2.879   0.013  0.00  0.00    -0.166 NA
ATOM      5  C   UNL     1      -3.460  -3.112   1.280  0.00  0.00    +0.092 C 
ATOM      6  C   UNL     1      -4.798  -2.367   1.232  0.00  0.00    -0.065 C 
ATOM      7  N   UNL     1      -5.543  -2.777   0.035  0.00  0.00    +0.381 N 
ATOM      8  C   UNL     1      -4.817  -2.365  -1.172  0.00  0.00    -0.065 C 
ATOM      9  C   UNL     1      -3.482  -3.105  -1.243  0.00  0.00    +0.092 C 
ATOM     10  H   UNL     1      -5.651  -3.781   0.035  0.00  0.00    -0.086 HD
ATOM     11  H   UNL     1      -6.455  -2.344   0.043  0.00  0.00    -0.086 HD
ENDBRANCH   1   4
BRANCH   1  12
ATOM     12  N   UNL     1      -1.195  -0.715   0.010  0.00  0.00    -0.087 NA
BRANCH  12  18
ATOM     13  C   UNL     1      -0.017   1.388   0.010  0.00  0.00    +0.028 A 
ATOM     14  C   UNL     1       1.164   2.094   0.002  0.00  0.00    +0.022 A 
ATOM     15  C   UNL     1       2.385   1.413  -0.013  0.00  0.00    +0.070 A 
ATOM     16  C   UNL     1       2.401   0.013  -0.021  0.00  0.00    +0.060 A 
ATOM     17  C   UNL     1       1.214  -0.687  -0.013  0.00  0.00    +0.048 A 
ATOM     18  C   UNL     1       0.002  -0.004   0.002  0.00  0.00    +0.077 A 
ATOM     19 CL   UNL     1       3.913  -0.839  -0.040  0.00  0.00    -0.082 Cl
BRANCH  15  20
ATOM     20  C   UNL     1       3.616   2.145  -0.021  0.00  0.00    +0.101 C 
ATOM     21  N   UNL     1       4.592   2.725  -0.028  0.00  0.00    -0.191 NA
ENDBRANCH  15  20
ENDBRANCH  12  18
ENDBRANCH   1  12
TORSDOF 4
