REMARK  Name = ZINC06994714
REMARK  7 active torsions:
REMARK  status: ('A' for Active; 'I' for Inactive)
REMARK    1  A    between atoms: C_1  and  C_2
REMARK    2  A    between atoms: C_2  and  C_3
REMARK    3  A    between atoms: C_2  and  C_4
REMARK    4  A    between atoms: C_4  and  C_6
REMARK    5  A    between atoms: C_4  and  S_12
REMARK    6  A    between atoms: S_12  and  C_13
REMARK    7  A    between atoms: N_17  and  C_18
REMARK                            x       y       z     vdW  Elec       q    Type
REMARK                         _______ _______ _______ _____ _____    ______ ____
ROOT
ATOM      1  C   UNL     1      -1.175  -0.035   2.989  0.00  0.00    +0.198 A 
ATOM      2  N   UNL     1       0.007  -0.600   3.010  0.00  0.00    -0.120 NA
ATOM      3  N   UNL     1       0.481  -0.568   4.328  0.00  0.00    -0.112 NA
ATOM      4  C   UNL     1      -0.427   0.016   5.072  0.00  0.00    +0.225 A 
ATOM      5  N   UNL     1      -1.474   0.367   4.263  0.00  0.00    -0.258 N 
ATOM      6  N   UNL     1      -0.339   0.243   6.439  0.00  0.00    -0.299 N 
ATOM      7  C   UNL     1      -1.365   0.893   7.267  0.00  0.00    +0.108 C 
ATOM      8  C   UNL     1      -0.822   0.948   8.711  0.00  0.00    +0.020 C 
ATOM      9  C   UNL     1       0.712   0.837   8.509  0.00  0.00    +0.020 C 
ATOM     10  C   UNL     1       0.796  -0.134   7.302  0.00  0.00    +0.108 C 
ENDROOT
BRANCH   5  11
ATOM     11  C   UNL     1      -2.647   1.020   4.669  0.00  0.00    +0.053 A 
ATOM     12  C   UNL     1      -2.588   2.322   5.148  0.00  0.00    +0.026 A 
ATOM     13  C   UNL     1      -3.744   2.963   5.547  0.00  0.00    +0.003 A 
ATOM     14  C   UNL     1      -4.960   2.310   5.470  0.00  0.00    +0.020 A 
ATOM     15  C   UNL     1      -5.023   1.013   4.993  0.00  0.00    +0.043 A 
ATOM     16  C   UNL     1      -3.869   0.368   4.588  0.00  0.00    +0.046 A 
ATOM     17 CL   UNL     1      -6.552   0.196   4.898  0.00  0.00    -0.083 Cl
ENDBRANCH   5  11
BRANCH   1  18
ATOM     18  S   UNL     1      -2.197   0.177   1.569  0.00  0.00    -0.073 S 
BRANCH  18  19
ATOM     19  C   UNL     1      -1.308  -0.699   0.254  0.00  0.00    +0.143 C 
BRANCH  19  20
ATOM     20  C   UNL     1      -1.310  -2.178   0.544  0.00  0.00    +0.234 C 
ATOM     21  O   UNL     1      -2.185  -2.659   1.232  0.00  0.00    -0.274 OA
ATOM     22  N   UNL     1      -0.339  -2.965   0.040  0.00  0.00    -0.239 N 
ATOM     23  C   UNL     1      -0.341  -4.287   0.300  0.00  0.00    +0.303 C 
ATOM     24  O   UNL     1      -1.218  -4.770   0.989  0.00  0.00    -0.253 OA
ATOM     25  N   UNL     1       0.630  -5.075  -0.204  0.00  0.00    -0.313 N 
ATOM     26  H   UNL     1       0.361  -2.580  -0.510  0.00  0.00    +0.159 HD
ATOM     27  H   UNL     1       1.330  -4.689  -0.754  0.00  0.00    +0.146 HD
ATOM     28  H   UNL     1       0.629  -6.026  -0.017  0.00  0.00    +0.146 HD
ENDBRANCH  19  20
BRANCH  19  30
ATOM     29  C   UNL     1      -1.986   1.058  -1.388  0.00  0.00    +0.009 C 
ATOM     30  C   UNL     1      -1.998  -0.442  -1.087  0.00  0.00    +0.005 C 
ATOM     31  C   UNL     1      -1.255  -1.190  -2.196  0.00  0.00    +0.009 C 
ENDBRANCH  19  30
ENDBRANCH  18  19
ENDBRANCH   1  18
TORSDOF 5
