REMARK  Name = ZINC49458656
REMARK  6 active torsions:
REMARK  status: ('A' for Active; 'I' for Inactive)
REMARK    1  A    between atoms: C_1  and  N_2
REMARK    2  A    between atoms: C_5  and  C_9
REMARK    3  A    between atoms: C_9  and  S_10
REMARK    4  A    between atoms: S_10  and  C_13
REMARK    5  A    between atoms: C_13  and  C_14
REMARK    6  A    between atoms: C_14  and  C_15
REMARK                            x       y       z     vdW  Elec       q    Type
REMARK                         _______ _______ _______ _____ _____    ______ ____
ROOT
ATOM      1  S   UNL     1      -1.588  -4.876  -0.487  0.00  0.00    -0.027 S 
ATOM      2  O   UNL     1      -2.495  -4.524   0.549  0.00  0.00    -0.174 OA
ATOM      3  O   UNL     1      -1.874  -4.476  -1.821  0.00  0.00    -0.174 OA
ENDROOT
BRANCH   1   4
ATOM      4  C   UNL     1       0.058  -4.257  -0.043  0.00  0.00    +0.201 C 
BRANCH   4   9
ATOM      5  C   UNL     1      -0.018   1.461   0.010  0.00  0.00    +0.152 C 
ATOM      6  N   UNL     1       0.002  -0.004   0.002  0.00  0.00    -0.318 N 
ATOM      7  C   UNL     1       0.005  -0.669  -1.182  0.00  0.00    +0.089 A 
ATOM      8  C   UNL     1       0.023  -2.022  -1.215  0.00  0.00    +0.023 A 
ATOM      9  C   UNL     1       0.039  -2.751  -0.017  0.00  0.00    -0.020 A 
ATOM     10  C   UNL     1       0.036  -2.081   1.171  0.00  0.00    +0.075 A 
ATOM     11  C   UNL     1       0.022  -0.676   1.169  0.00  0.00    +0.251 A 
ATOM     12  O   UNL     1       0.024  -0.064   2.225  0.00  0.00    -0.268 OA
ENDBRANCH   4   9
ENDBRANCH   1   4
BRANCH   1  13
ATOM     13  C   UNL     1      -1.360  -6.675  -0.464  0.00  0.00    +0.175 C 
BRANCH  13  14
ATOM     14  C   UNL     1      -2.679  -7.361  -0.824  0.00  0.00    +0.119 C 
BRANCH  14  15
ATOM     15  C   UNL     1      -2.490  -8.856  -0.805  0.00  0.00    +0.222 C 
ATOM     16  O   UNL     1      -1.407  -9.326  -0.530  0.00  0.00    -0.275 OA
ATOM     17  N   UNL     1      -3.525  -9.670  -1.093  0.00  0.00    -0.240 N 
ATOM     18  C   UNL     1      -3.355 -11.007  -1.076  0.00  0.00    +0.303 C 
ATOM     19  O   UNL     1      -2.269 -11.479  -0.800  0.00  0.00    -0.253 OA
ATOM     20  N   UNL     1      -4.390 -11.822  -1.363  0.00  0.00    -0.313 N 
ATOM     21  H   UNL     1      -4.391  -9.294  -1.312  0.00  0.00    +0.159 HD
ATOM     22  H   UNL     1      -5.257 -11.445  -1.583  0.00  0.00    +0.146 HD
ATOM     23  H   UNL     1      -4.268 -12.784  -1.351  0.00  0.00    +0.146 HD
ENDBRANCH  14  15
ENDBRANCH  13  14
ENDBRANCH   1  13
TORSDOF 5
