REMARK  Name = ZINC46645433
REMARK  7 active torsions:
REMARK  status: ('A' for Active; 'I' for Inactive)
REMARK    1  A    between atoms: C_1  and  C_2
REMARK    2  A    between atoms: C_2  and  C_3
REMARK    3  A    between atoms: C_2  and  C_4
REMARK    4  A    between atoms: C_4  and  C_6
REMARK    5  A    between atoms: C_4  and  N_27
REMARK    6  A    between atoms: N_8  and  C_9
REMARK    7  A    between atoms: C_9  and  C_10
REMARK                            x       y       z     vdW  Elec       q    Type
REMARK                         _______ _______ _______ _____ _____    ______ ____
ROOT
ATOM      1  C   UNL     1      -2.307  -0.163  -3.696  0.00  0.00    +0.108 C 
ENDROOT
BRANCH   1   2
ATOM      2  C   UNL     1      -1.553  -0.757  -4.888  0.00  0.00    +0.019 C 
ATOM      3  C   UNL     1      -0.156  -0.145  -4.950  0.00  0.00    +0.018 C 
ATOM      4  C   UNL     1       0.078   0.588  -6.289  0.00  0.00    +0.050 C 
ATOM      5  C   UNL     1      -0.206  -0.446  -7.369  0.00  0.00    -0.036 A 
ATOM      6  C   UNL     1       0.682  -0.829  -8.333  0.00  0.00    +0.004 A 
ATOM      7  C   UNL     1       0.290  -1.787  -9.260  0.00  0.00    +0.000 A 
ATOM      8  C   UNL     1      -0.976  -2.340  -9.204  0.00  0.00    +0.000 A 
ATOM      9  C   UNL     1      -1.873  -1.944  -8.220  0.00  0.00    +0.004 A 
ATOM     10  C   UNL     1      -1.482  -1.003  -7.312  0.00  0.00    -0.036 A 
ATOM     11  C   UNL     1      -2.348  -0.472  -6.181  0.00  0.00    +0.054 C 
ATOM     12  C   UNL     1      -2.329   1.040  -6.341  0.00  0.00    -0.036 A 
ATOM     13  C   UNL     1      -1.055   1.596  -6.399  0.00  0.00    -0.036 A 
ATOM     14  C   UNL     1      -0.888   2.944  -6.543  0.00  0.00    +0.004 A 
ATOM     15  C   UNL     1      -2.014   3.752  -6.632  0.00  0.00    +0.000 A 
ATOM     16  C   UNL     1      -3.280   3.199  -6.574  0.00  0.00    +0.000 A 
ATOM     17  C   UNL     1      -3.439   1.830  -6.427  0.00  0.00    +0.004 A 
ENDBRANCH   1   2
BRANCH   1  20
ATOM     18  C   UNL     1      -2.125  -0.137  -1.266  0.00  0.00    +0.234 C 
ATOM     19  O   UNL     1      -3.122   0.552  -1.228  0.00  0.00    -0.274 OA
ATOM     20  N   UNL     1      -1.635  -0.549  -2.452  0.00  0.00    -0.313 N 
ATOM     21  H   UNL     1      -0.837  -1.100  -2.483  0.00  0.00    +0.149 HD
BRANCH  18  22
ATOM     22  C   UNL     1      -1.433  -0.534   0.013  0.00  0.00    +0.163 C 
BRANCH  22  23
ATOM     23  N   UNL     1      -2.155   0.035   1.154  0.00  0.00    -0.288 N 
ATOM     24  C   UNL     1      -2.067  -0.550   2.366  0.00  0.00    +0.298 C 
ATOM     25  O   UNL     1      -1.389  -1.549   2.511  0.00  0.00    -0.253 OA
ATOM     26  N   UNL     1      -2.731  -0.027   3.416  0.00  0.00    -0.313 N 
ATOM     27  H   UNL     1      -2.696   0.831   1.038  0.00  0.00    +0.151 HD
ATOM     28  H   UNL     1      -3.272   0.769   3.300  0.00  0.00    +0.146 HD
ATOM     29  H   UNL     1      -2.668  -0.448   4.287  0.00  0.00    +0.146 HD
ENDBRANCH  22  23
BRANCH  22  31
ATOM     30  C   UNL     1      -0.019   1.526   0.010  0.00  0.00    +0.009 C 
ATOM     31  C   UNL     1       0.002  -0.004   0.002  0.00  0.00    +0.012 C 
ATOM     32  C   UNL     1       0.742  -0.511   1.242  0.00  0.00    +0.009 C 
ENDBRANCH  22  31
ENDBRANCH  18  22
ENDBRANCH   1  20
TORSDOF 5
