REMARK  Name = ZINC32500675
REMARK  7 active torsions:
REMARK  status: ('A' for Active; 'I' for Inactive)
REMARK    1  A    between atoms: C_1  and  C_2
REMARK    2  A    between atoms: C_8  and  N_27
REMARK    3  A    between atoms: C_10  and  C_12
REMARK    4  A    between atoms: C_12  and  N_13
REMARK    5  A    between atoms: N_16  and  C_19
REMARK    6  A    between atoms: C_21  and  C_26
REMARK    7  A    between atoms: C_24  and  C_25
REMARK                            x       y       z     vdW  Elec       q    Type
REMARK                         _______ _______ _______ _____ _____    ______ ____
ROOT
ATOM      1  C   UNL     1       0.094  -6.276   1.058  0.00  0.00    +0.160 C 
ENDROOT
BRANCH   1  11
ATOM      2  C   UNL     1      -0.018   1.503   0.010  0.00  0.00    +0.044 C 
ATOM      3  C   UNL     1       0.002  -0.004   0.002  0.00  0.00    -0.050 A 
ATOM      4  C   UNL     1       0.005  -0.684  -1.213  0.00  0.00    +0.005 A 
ATOM      5  C   UNL     1       0.024  -2.046  -1.255  0.00  0.00    +0.029 A 
ATOM      6  C   UNL     1       0.040  -2.776  -0.059  0.00  0.00    +0.076 A 
ATOM      7  C   UNL     1       0.036  -2.082   1.176  0.00  0.00    +0.040 A 
ATOM      8  C   UNL     1       0.022  -0.683   1.185  0.00  0.00    +0.016 A 
ATOM      9  C   UNL     1       0.052  -2.843   2.370  0.00  0.00    +0.128 A 
ATOM     10  N   UNL     1       0.070  -4.165   2.271  0.00  0.00    -0.216 NA
ATOM     11  C   UNL     1       0.073  -4.770   1.093  0.00  0.00    +0.146 A 
ATOM     12  N   UNL     1       0.058  -4.117  -0.045  0.00  0.00    -0.231 NA
BRANCH   9  13
ATOM     13  N   UNL     1       0.050  -2.226   3.603  0.00  0.00    -0.343 N 
ATOM     14  H   UNL     1       0.037  -1.257   3.660  0.00  0.00    +0.144 HD
ATOM     15  H   UNL     1       0.062  -2.760   4.413  0.00  0.00    +0.144 HD
ENDBRANCH   9  13
ENDBRANCH   1  11
BRANCH   1  16
ATOM     16  N   UNL     1      -1.284  -6.785   1.054  0.00  0.00    -0.292 NA
ATOM     17  C   UNL     1      -1.966  -6.468   2.315  0.00  0.00    +0.104 C 
ATOM     18  C   UNL     1      -3.445  -6.852   2.203  0.00  0.00    +0.120 C 
ATOM     19  N   UNL     1      -3.532  -8.260   1.786  0.00  0.00    -0.327 N 
ATOM     20  C   UNL     1      -2.763  -8.685   0.607  0.00  0.00    +0.120 C 
ATOM     21  C   UNL     1      -1.310  -8.229   0.782  0.00  0.00    +0.104 C 
BRANCH  19  22
ATOM     22  C   UNL     1      -4.323  -9.169   2.492  0.00  0.00    +0.033 A 
ATOM     23  C   UNL     1      -5.652  -9.360   2.134  0.00  0.00    +0.026 A 
ATOM     24  C   UNL     1      -6.431 -10.260   2.834  0.00  0.00    -0.049 A 
ATOM     25  C   UNL     1      -5.891 -10.970   3.890  0.00  0.00    +0.004 A 
ATOM     26  C   UNL     1      -4.569 -10.783   4.249  0.00  0.00    +0.005 A 
ATOM     27  C   UNL     1      -3.782  -9.888   3.549  0.00  0.00    -0.029 A 
ATOM     28  C   UNL     1      -2.339  -9.689   3.937  0.00  0.00    +0.045 C 
ATOM     29  C   UNL     1      -7.873 -10.467   2.446  0.00  0.00    +0.044 C 
ENDBRANCH  19  22
ENDBRANCH   1  16
TORSDOF 4
