REMARK  Name = ZINC42365849
REMARK  4 active torsions:
REMARK  status: ('A' for Active; 'I' for Inactive)
REMARK    1  A    between atoms: C_1  and  C_2
REMARK    2  A    between atoms: C_2  and  C_4
REMARK    3  A    between atoms: C_2  and  N_10
REMARK    4  A    between atoms: C_16  and  C_18
REMARK                            x       y       z     vdW  Elec       q    Type
REMARK                         _______ _______ _______ _____ _____    ______ ____
ROOT
ATOM      1  N   UNL     1      -1.376  -0.512   0.012  0.00  0.00    -0.289 NA
ATOM      2  C   UNL     1      -2.123  -0.032  -1.157  0.00  0.00    +0.104 C 
ATOM      3  C   UNL     1      -3.490  -0.724  -1.206  0.00  0.00    +0.123 C 
ATOM      4  N   UNL     1      -4.162  -0.524   0.086  0.00  0.00    -0.297 N 
ATOM      5  C   UNL     1      -3.422  -0.856   1.314  0.00  0.00    +0.123 C 
ATOM      6  C   UNL     1      -2.059  -0.158   1.264  0.00  0.00    +0.104 C 
ATOM      7  C   UNL     1      -5.422  -0.051   0.145  0.00  0.00    +0.245 C 
ATOM      8  O   UNL     1      -6.017   0.217  -0.877  0.00  0.00    -0.273 OA
ENDROOT
BRANCH   7   9
ATOM      9  C   UNL     1      -6.092   0.147   1.480  0.00  0.00    +0.204 C 
ATOM     10  C   UNL     1      -6.288  -1.218   2.174  0.00  0.00    +0.043 C 
ATOM     11  C   UNL     1      -7.690  -1.059   2.824  0.00  0.00    +0.031 C 
ATOM     12  C   UNL     1      -8.402  -0.170   1.774  0.00  0.00    +0.161 C 
ATOM     13  O   UNL     1      -7.387   0.730   1.293  0.00  0.00    -0.367 OA
ENDBRANCH   7   9
BRANCH   1  15
ATOM     14  C   UNL     1      -0.019   1.526   0.010  0.00  0.00    +0.034 C 
ATOM     15  C   UNL     1       0.002  -0.004   0.002  0.00  0.00    +0.140 C 
BRANCH  15  16
ATOM     16  C   UNL     1       0.707  -0.490  -1.238  0.00  0.00    +0.237 C 
ATOM     17  O   UNL     1       0.120  -1.191  -2.034  0.00  0.00    -0.274 OA
ATOM     18  N   UNL     1       1.991  -0.146  -1.462  0.00  0.00    -0.239 N 
ATOM     19  C   UNL     1       2.622  -0.580  -2.570  0.00  0.00    +0.303 C 
ATOM     20  O   UNL     1       2.033  -1.283  -3.369  0.00  0.00    -0.253 OA
ATOM     21  N   UNL     1       3.906  -0.236  -2.794  0.00  0.00    -0.313 N 
ATOM     22  H   UNL     1       2.461   0.415  -0.825  0.00  0.00    +0.159 HD
ATOM     23  H   UNL     1       4.376   0.324  -2.157  0.00  0.00    +0.146 HD
ATOM     24  H   UNL     1       4.360  -0.549  -3.592  0.00  0.00    +0.146 HD
ENDBRANCH  15  16
ENDBRANCH   1  15
TORSDOF 3
