REMARK  Name = ZINC39369799
REMARK  10 active torsions:
REMARK  status: ('A' for Active; 'I' for Inactive)
REMARK    1  A    between atoms: C_1  and  C_2
REMARK    2  A    between atoms: C_5  and  N_8
REMARK    3  A    between atoms: C_9  and  C_11
REMARK    4  A    between atoms: C_11  and  O_12
REMARK    5  A    between atoms: O_12  and  C_13
REMARK    6  A    between atoms: C_18  and  C_19
REMARK    7  A    between atoms: C_20  and  C_21
REMARK    8  A    between atoms: C_20  and  C_23
REMARK    9  A    between atoms: C_29  and  O_33
REMARK   10  A    between atoms: O_33  and  C_34
REMARK                            x       y       z     vdW  Elec       q    Type
REMARK                         _______ _______ _______ _____ _____    ______ ____
ROOT
ATOM      1  C   UNL     1       0.297  -8.579   2.750  0.00  0.00    +0.128 A 
ATOM      2  C   UNL     1       0.048  -9.564   1.808  0.00  0.00    +0.046 A 
ATOM      3  C   UNL     1      -0.191 -10.864   2.212  0.00  0.00    +0.004 A 
ATOM      4  C   UNL     1      -0.183 -11.194   3.557  0.00  0.00    +0.001 A 
ATOM      5  C   UNL     1       0.063 -10.228   4.508  0.00  0.00    +0.011 A 
ATOM      6  C   UNL     1       0.312  -8.909   4.114  0.00  0.00    +0.018 A 
ENDROOT
BRANCH   6   7
ATOM      7  C   UNL     1       0.582  -7.874   5.123  0.00  0.00    +0.030 C 
ATOM      8  C   UNL     1       1.384  -8.148   6.173  0.00  0.00    +0.072 C 
BRANCH   8   9
ATOM      9  C   UNL     1       2.153  -9.443   6.216  0.00  0.00    +0.216 C 
ATOM     10  N   UNL     1       1.663 -10.284   7.314  0.00  0.00    -0.359 N 
ATOM     11  C   UNL     1       2.659 -10.486   8.129  0.00  0.00    +0.061 A 
ATOM     12  C   UNL     1       2.771 -11.240   9.387  0.00  0.00    +0.031 A 
ATOM     13  C   UNL     1       3.948 -11.283  10.038  0.00  0.00    +0.048 A 
ATOM     14  C   UNL     1       5.132 -10.599   9.534  0.00  0.00    +0.122 A 
ATOM     15  C   UNL     1       5.109  -9.884   8.383  0.00  0.00    +0.073 A 
ATOM     16  C   UNL     1       3.867  -9.787   7.613  0.00  0.00    +0.064 A 
ATOM     17  N   UNL     1       3.570  -9.179   6.495  0.00  0.00    -0.359 N 
ATOM     18  H   UNL     1       0.761 -10.627   7.415  0.00  0.00    +0.162 HD
ATOM     19  H   UNL     1       4.174  -8.651   5.950  0.00  0.00    +0.162 HD
BRANCH  14  20
ATOM     20  O   UNL     1       6.289 -10.680  10.237  0.00  0.00    -0.495 OA
ATOM     21  C   UNL     1       6.263 -11.445  11.444  0.00  0.00    +0.277 C 
ENDBRANCH  14  20
ENDBRANCH   8   9
BRANCH   8  22
ATOM     22  C   UNL     1       1.504  -7.208   7.247  0.00  0.00    +0.099 C 
ATOM     23  N   UNL     1       1.599  -6.463   8.099  0.00  0.00    -0.191 NA
ENDBRANCH   8  22
ENDBRANCH   6   7
BRANCH   1  24
ATOM     24  O   UNL     1       0.532  -7.301   2.355  0.00  0.00    -0.482 OA
BRANCH  24  25
ATOM     25  C   UNL     1       0.501  -7.041   0.951  0.00  0.00    +0.324 C 
BRANCH  25  27
ATOM     26  N   UNL     1       0.803  -5.102  -0.555  0.00  0.00    -0.283 N 
ATOM     27  C   UNL     1       0.781  -5.581   0.704  0.00  0.00    +0.255 C 
ATOM     28  O   UNL     1       0.987  -4.837   1.639  0.00  0.00    -0.272 OA
ATOM     29  H   UNL     1       0.560  -5.678  -1.297  0.00  0.00    +0.155 HD
BRANCH  26  34
ATOM     30  C   UNL     1       2.312   0.281  -1.519  0.00  0.00    +0.044 C 
ATOM     31  C   UNL     1       1.911  -1.149  -1.263  0.00  0.00    -0.050 A 
ATOM     32  C   UNL     1       2.424  -1.824  -0.171  0.00  0.00    +0.005 A 
ATOM     33  C   UNL     1       2.058  -3.135   0.067  0.00  0.00    +0.023 A 
ATOM     34  C   UNL     1       1.175  -3.774  -0.793  0.00  0.00    +0.034 A 
ATOM     35  C   UNL     1       0.661  -3.093  -1.889  0.00  0.00    +0.023 A 
ATOM     36  C   UNL     1       1.027  -1.781  -2.118  0.00  0.00    +0.005 A 
ENDBRANCH  26  34
ENDBRANCH  25  27
ENDBRANCH  24  25
ENDBRANCH   1  24
TORSDOF 8
