REMARK  Name = ZINC22067472
REMARK  6 active torsions:
REMARK  status: ('A' for Active; 'I' for Inactive)
REMARK    1  A    between atoms: N_17  and  C_19
REMARK    2  A    between atoms: C_21  and  O_34
REMARK    3  A    between atoms: C_23  and  O_33
REMARK    4  A    between atoms: C_25  and  O_32
REMARK    5  A    between atoms: C_27  and  C_30
REMARK    6  A    between atoms: C_30  and  O_31
REMARK                            x       y       z     vdW  Elec       q    Type
REMARK                         _______ _______ _______ _____ _____    ______ ____
ROOT
ATOM      1  C   UNL     1       4.535  -4.857  -4.317  0.00  0.00    +0.131 A 
ATOM      2  C   UNL     1       3.347  -5.062  -5.023  0.00  0.00    +0.131 A 
ATOM      3  N   UNL     1       2.664  -4.045  -5.497  0.00  0.00    -0.252 NA
ATOM      4  C   UNL     1       3.108  -2.799  -5.300  0.00  0.00    +0.089 A 
ATOM      5  C   UNL     1       2.399  -1.689  -5.790  0.00  0.00    +0.034 A 
ATOM      6  C   UNL     1       2.876  -0.433  -5.576  0.00  0.00    -0.041 A 
ATOM      7  C   UNL     1       4.068  -0.228  -4.876  0.00  0.00    -0.041 A 
ATOM      8  C   UNL     1       4.780  -1.279  -4.388  0.00  0.00    +0.034 A 
ATOM      9  C   UNL     1       4.316  -2.591  -4.587  0.00  0.00    +0.089 A 
ATOM     10  N   UNL     1       4.993  -3.643  -4.114  0.00  0.00    -0.252 NA
ATOM     11  C   UNL     1       4.336   1.269  -4.804  0.00  0.00    +0.003 C 
ATOM     12  C   UNL     1       3.602   1.835  -6.053  0.00  0.00    +0.012 C 
ATOM     13  C   UNL     1       2.316   0.922  -5.986  0.00  0.00    +0.003 C 
ATOM     14  C   UNL     1       1.490   1.483  -4.812  0.00  0.00    -0.067 C 
ATOM     15  N   UNL     1       2.223   1.223  -3.566  0.00  0.00    +0.400 N 
ATOM     16  C   UNL     1       3.571   1.806  -3.579  0.00  0.00    -0.067 C 
ATOM     17  H   UNL     1       2.347   0.132  -3.490  0.00  0.00    -0.078 HD
ENDROOT
BRANCH  15  18
ATOM     18  C   UNL     1       1.460   1.686  -2.400  0.00  0.00    +0.098 C 
ATOM     19  C   UNL     1       0.025   1.158  -2.485  0.00  0.00    +0.157 C 
ATOM     20  C   UNL     1      -0.747   1.595  -1.237  0.00  0.00    +0.174 C 
ATOM     21  C   UNL     1      -0.013   1.086   0.008  0.00  0.00    +0.176 C 
ATOM     22  C   UNL     1       1.423   1.617  -0.003  0.00  0.00    +0.172 C 
ATOM     23  O   UNL     1       2.075   1.201  -1.205  0.00  0.00    -0.384 OA
BRANCH  21  24
ATOM     24  O   UNL     1      -0.684   1.548   1.182  0.00  0.00    -0.386 OA
ATOM     25  H   UNL     1      -0.299   1.280   2.177  0.00  0.00    +0.210 HD
ENDBRANCH  21  24
BRANCH  20  26
ATOM     26  O   UNL     1      -2.065   1.044  -1.273  0.00  0.00    -0.387 OA
ATOM     27  H   UNL     1      -2.770   1.251  -0.454  0.00  0.00    +0.210 HD
ENDBRANCH  20  26
BRANCH  19  28
ATOM     28  O   UNL     1       0.046  -0.269  -2.559  0.00  0.00    -0.389 OA
ATOM     29  H   UNL     1      -0.898  -0.830  -2.627  0.00  0.00    +0.210 HD
ENDBRANCH  19  28
BRANCH  22  30
ATOM     30  C   UNL     1       2.181   1.065   1.206  0.00  0.00    +0.190 C 
BRANCH  30  31
ATOM     31  O   UNL     1       3.483   1.651   1.261  0.00  0.00    -0.392 OA
ATOM     32  H   UNL     1       4.177   1.373   2.067  0.00  0.00    +0.210 HD
ENDBRANCH  30  31
ENDBRANCH  22  30
ENDBRANCH  15  18
TORSDOF 6
