REMARK  Name = ZINC13211229
REMARK  3 active torsions:
REMARK  status: ('A' for Active; 'I' for Inactive)
REMARK    1  A    between atoms: C_1  and  C_2
REMARK    2  A    between atoms: C_7  and  C_8
REMARK    3  A    between atoms: C_11  and  C_23
REMARK                            x       y       z     vdW  Elec       q    Type
REMARK                         _______ _______ _______ _____ _____    ______ ____
ROOT
ATOM      1  C   UNL     1       0.025   0.045   2.504  0.00  0.00    +0.114 C 
ATOM      2  C   UNL     1       1.449   0.519   2.832  0.00  0.00    +0.057 C 
ATOM      3  C   UNL     1       2.340  -0.693   3.106  0.00  0.00    +0.114 C 
ATOM      4  N   UNL     1       1.791  -1.496   4.202  0.00  0.00    -0.354 N 
ATOM      5  C   UNL     1       0.496  -1.552   4.373  0.00  0.00    +0.166 C 
ATOM      6  N   UNL     1      -0.402  -0.848   3.589  0.00  0.00    -0.265 N 
ATOM      7  C   UNL     1      -1.675  -1.143   4.020  0.00  0.00    +0.058 A 
ATOM      8  C   UNL     1      -2.922  -0.724   3.571  0.00  0.00    +0.025 A 
ATOM      9  C   UNL     1      -4.033  -1.217   4.239  0.00  0.00    +0.002 A 
ATOM     10  C   UNL     1      -3.915  -2.088   5.305  0.00  0.00    +0.002 A 
ATOM     11  C   UNL     1      -2.678  -2.517   5.764  0.00  0.00    +0.025 A 
ATOM     12  C   UNL     1      -1.556  -2.032   5.105  0.00  0.00    +0.055 A 
ATOM     13  N   UNL     1      -0.203  -2.263   5.312  0.00  0.00    -0.287 N 
ATOM     14  H   UNL     1       0.181  -2.828   6.001  0.00  0.00    +0.155 HD
ATOM     15  H   UNL     1       2.383  -1.983   4.797  0.00  0.00    +0.163 HD
ENDROOT
BRANCH   1  22
ATOM     16  C   UNL     1      -0.018   1.503   0.010  0.00  0.00    +0.044 C 
ATOM     17  C   UNL     1       0.002  -0.004   0.002  0.00  0.00    -0.045 A 
ATOM     18  C   UNL     1       0.006  -0.689  -1.199  0.00  0.00    +0.004 A 
ATOM     19  C   UNL     1       0.025  -2.071  -1.207  0.00  0.00    +0.000 A 
ATOM     20  C   UNL     1       0.040  -2.768  -0.013  0.00  0.00    +0.000 A 
ATOM     21  C   UNL     1       0.037  -2.084   1.188  0.00  0.00    +0.006 A 
ATOM     22  C   UNL     1       0.023  -0.702   1.195  0.00  0.00    -0.024 A 
ENDBRANCH   1  22
BRANCH   3  23
ATOM     23  C   UNL     1       3.721  -0.221   3.482  0.00  0.00    -0.025 A 
ATOM     24  C   UNL     1       3.977   0.209   4.771  0.00  0.00    +0.007 A 
ATOM     25  C   UNL     1       5.243   0.642   5.116  0.00  0.00    +0.015 A 
ATOM     26  C   UNL     1       6.255   0.643   4.173  0.00  0.00    +0.018 A 
ATOM     27  C   UNL     1       5.999   0.212   2.884  0.00  0.00    +0.015 A 
ATOM     28  C   UNL     1       4.733  -0.225   2.541  0.00  0.00    +0.007 A 
ATOM     29 BR   UNL     1       7.988   1.235   4.646  0.00  0.00    -0.050 Br
ENDBRANCH   3  23
TORSDOF 2
