REMARK  Name = ZINC08809649
REMARK  5 active torsions:
REMARK  status: ('A' for Active; 'I' for Inactive)
REMARK    1  A    between atoms: C_3  and  N_28
REMARK    2  A    between atoms: C_6  and  N_7
REMARK    3  A    between atoms: C_10  and  C_17
REMARK    4  A    between atoms: C_12  and  C_15
REMARK    5  A    between atoms: C_13  and  N_14
REMARK                            x       y       z     vdW  Elec       q    Type
REMARK                         _______ _______ _______ _____ _____    ______ ____
ROOT
ATOM      1  N   UNL     1      -2.510   3.881   0.045  0.00  0.00    -0.260 N 
ATOM      2  C   UNL     1      -1.335   3.380  -0.451  0.00  0.00    +0.024 C 
ATOM      3  C   UNL     1      -1.119   2.049  -0.494  0.00  0.00    +0.026 C 
ATOM      4  C   UNL     1      -2.154   1.079   0.018  0.00  0.00    +0.104 C 
ATOM      5  C   UNL     1      -3.501   1.730   0.121  0.00  0.00    +0.077 C 
ATOM      6  C   UNL     1      -3.628   3.082   0.135  0.00  0.00    +0.107 C 
ATOM      7  C   UNL     1       0.085   1.526  -0.998  0.00  0.00    +0.162 C 
ATOM      8  O   UNL     1       0.243   0.322  -1.036  0.00  0.00    -0.292 OA
ATOM      9  C   UNL     1       1.180   2.430  -1.496  0.00  0.00    +0.080 C 
ATOM     10  C   UNL     1       1.100   3.766  -0.750  0.00  0.00    +0.014 C 
ATOM     11  C   UNL     1      -0.298   4.353  -0.956  0.00  0.00    +0.052 C 
ENDROOT
BRANCH   1  17
ATOM     12  C   UNL     1      -2.939   6.210  -0.435  0.00  0.00    +0.026 A 
ATOM     13  C   UNL     1      -3.006   7.524  -0.018  0.00  0.00    +0.034 A 
ATOM     14  C   UNL     1      -2.702   7.853   1.290  0.00  0.00    +0.126 A 
ATOM     15  C   UNL     1      -2.335   6.866   2.186  0.00  0.00    +0.034 A 
ATOM     16  C   UNL     1      -2.270   5.548   1.777  0.00  0.00    +0.026 A 
ATOM     17  C   UNL     1      -2.575   5.215   0.464  0.00  0.00    +0.040 A 
BRANCH  14  18
ATOM     18  N   UNL     1      -2.768   9.264   1.732  0.00  0.00    +0.056 N 
ATOM     19  O   UNL     1      -2.501   9.555   2.884  0.00  0.00    -0.126 OA
ATOM     20  O   UNL     1      -3.092  10.134   0.944  0.00  0.00    -0.126 OA
ENDBRANCH  14  18
ENDBRANCH   1  17
BRANCH   4  21
ATOM     21  C   UNL     1      -1.741   0.580   1.379  0.00  0.00    +0.004 A 
ATOM     22  C   UNL     1      -1.457  -0.685   1.774  0.00  0.00    +0.013 A 
ATOM     23  C   UNL     1      -1.096  -0.912   3.089  0.00  0.00    +0.023 A 
ATOM     24  C   UNL     1      -1.036   0.139   3.944  0.00  0.00    +0.055 A 
ATOM     25  S   UNL     1      -1.492   1.503   2.886  0.00  0.00    -0.085 S 
ATOM     26 BR   UNL     1      -0.580   0.156   5.779  0.00  0.00    -0.043 Br
ENDBRANCH   4  21
BRANCH   6  27
ATOM     27  N   UNL     1      -4.873   3.654   0.239  0.00  0.00    -0.345 N 
ATOM     28  H   UNL     1      -4.974   4.615   0.161  0.00  0.00    +0.144 HD
ATOM     29  H   UNL     1      -5.652   3.095   0.391  0.00  0.00    +0.144 HD
ENDBRANCH   6  27
BRANCH   5  30
ATOM     30  C   UNL     1      -4.674   0.912   0.205  0.00  0.00    +0.099 C 
ATOM     31  N   UNL     1      -5.604   0.264   0.272  0.00  0.00    -0.191 NA
ENDBRANCH   5  30
TORSDOF 5
