REMARK  Name = ZINC47843885
REMARK  2 active torsions:
REMARK  status: ('A' for Active; 'I' for Inactive)
REMARK    1  A    between atoms: C_1  and  C_12
REMARK    2  A    between atoms: C_2  and  N_11
REMARK                            x       y       z     vdW  Elec       q    Type
REMARK                         _______ _______ _______ _____ _____    ______ ____
ROOT
ATOM      1  C   UNL     1      -0.019   1.396  -0.016  0.00  0.00    +0.156 A 
ATOM      2  C   UNL     1       1.165   2.080  -0.002  0.00  0.00    +0.115 A 
ATOM      3  N   UNL     1       2.347   1.381   0.009  0.00  0.00    -0.296 N 
ATOM      4  H   UNL     1       3.191   1.860   0.020  0.00  0.00    +0.172 HD
ATOM      5  C   UNL     1       2.343   0.035   0.006  0.00  0.00    +0.328 A 
ATOM      6  O   UNL     1       3.399  -0.567   0.015  0.00  0.00    -0.247 OA
ATOM      7  N   UNL     1       1.187  -0.653  -0.008  0.00  0.00    -0.275 N 
ATOM      8  H   UNL     1       1.206  -1.623  -0.010  0.00  0.00    +0.173 HD
ATOM      9  C   UNL     1       0.004  -0.008  -0.019  0.00  0.00    +0.268 A 
ATOM     10  O   UNL     1      -1.039  -0.639  -0.032  0.00  0.00    -0.267 OA
ENDROOT
BRANCH   1  11
ATOM     11  C   UNL     1      -1.331   2.138  -0.021  0.00  0.00    +0.426 C 
ATOM     12  F   UNL     1      -1.353   3.036  -1.094  0.00  0.00    -0.166 F 
ATOM     13  F   UNL     1      -2.382   1.225  -0.155  0.00  0.00    -0.166 F 
ATOM     14  F   UNL     1      -1.474   2.842   1.179  0.00  0.00    -0.166 F 
ENDBRANCH   1  11
BRANCH   2  15
ATOM     15  N   UNL     1       1.171   3.451   0.002  0.00  0.00    -0.344 N 
ATOM     16  H   UNL     1       0.338   3.940   0.085  0.00  0.00    +0.144 HD
ATOM     17  H   UNL     1       2.010   3.932  -0.080  0.00  0.00    +0.144 HD
ENDBRANCH   2  15
TORSDOF 2
