REMARK  Name = ZINC43156614
REMARK  8 active torsions:
REMARK  status: ('A' for Active; 'I' for Inactive)
REMARK    1  A    between atoms: C_1  and  C_2
REMARK    2  A    between atoms: C_2  and  C_3
REMARK    3  A    between atoms: C_7  and  C_26
REMARK    4  A    between atoms: C_8  and  N_9
REMARK    5  A    between atoms: N_12  and  C_13
REMARK    6  A    between atoms: C_13  and  C_14
REMARK    7  A    between atoms: C_14  and  C_16
REMARK    8  A    between atoms: C_14  and  N_21
REMARK                            x       y       z     vdW  Elec       q    Type
REMARK                         _______ _______ _______ _____ _____    ______ ____
ROOT
ATOM      1  N   UNL     1      -1.390  -0.503  -2.348  0.00  0.00    -0.269 N 
ATOM      2  C   UNL     1      -2.004  -0.701  -3.531  0.00  0.00    +0.304 C 
ATOM      3  O   UNL     1      -3.163  -1.069  -3.561  0.00  0.00    -0.253 OA
ATOM      4  N   UNL     1      -1.335  -0.492  -4.682  0.00  0.00    -0.300 N 
ATOM      5  H   UNL     1      -0.482  -0.162  -2.324  0.00  0.00    +0.156 HD
ATOM      6  H   UNL     1      -0.410  -0.199  -4.658  0.00  0.00    +0.150 HD
ENDROOT
BRANCH   1  12
ATOM      7  C   UNL     1      -2.036   0.119  -0.106  0.00  0.00    -0.026 A 
ATOM      8  C   UNL     1      -2.704  -0.164   1.069  0.00  0.00    +0.005 A 
ATOM      9  C   UNL     1      -3.393  -1.355   1.204  0.00  0.00    +0.001 A 
ATOM     10  C   UNL     1      -3.416  -2.266   0.164  0.00  0.00    +0.005 A 
ATOM     11  C   UNL     1      -2.750  -1.988  -1.014  0.00  0.00    -0.029 A 
ATOM     12  C   UNL     1      -2.061  -0.790  -1.154  0.00  0.00    +0.041 A 
ATOM     13  C   UNL     1      -2.774  -2.982  -2.147  0.00  0.00    +0.045 C 
BRANCH   7  15
ATOM     14  C   UNL     1      -2.182   2.452  -0.933  0.00  0.00    +0.009 C 
ATOM     15  C   UNL     1      -1.284   1.418  -0.252  0.00  0.00    +0.033 C 
ENDBRANCH   7  15
ENDBRANCH   1  12
BRANCH   4  16
ATOM     16  C   UNL     1      -2.002  -0.707  -5.968  0.00  0.00    +0.095 C 
BRANCH  16  17
ATOM     17  C   UNL     1      -1.072  -0.278  -7.104  0.00  0.00    -0.013 C 
BRANCH  17  18
ATOM     18  N   UNL     1      -1.689  -0.611  -8.395  0.00  0.00    +0.386 N 
ATOM     19  C   UNL     1      -1.970  -2.061  -8.453  0.00  0.00    -0.078 C 
ATOM     20  C   UNL     1      -1.704  -2.457  -9.927  0.00  0.00    -0.020 C 
ATOM     21  C   UNL     1      -0.482  -1.566 -10.274  0.00  0.00    -0.020 C 
ATOM     22  C   UNL     1      -0.764  -0.267  -9.490  0.00  0.00    -0.078 C 
ATOM     23  H   UNL     1      -2.550  -0.095  -8.503  0.00  0.00    -0.081 HD
ENDBRANCH  17  18
BRANCH  17  24
ATOM     24  C   UNL     1      -0.838   1.209  -7.027  0.00  0.00    -0.022 A 
ATOM     25  C   UNL     1       0.226   1.881  -6.524  0.00  0.00    +0.009 A 
ATOM     26  C   UNL     1       0.225   3.263  -6.560  0.00  0.00    +0.008 A 
ATOM     27  C   UNL     1      -0.841   3.905  -7.098  0.00  0.00    +0.045 A 
ATOM     28  S   UNL     1      -1.887   2.542  -7.583  0.00  0.00    -0.103 S 
ENDBRANCH  17  24
ENDBRANCH  16  17
ENDBRANCH   4  16
TORSDOF 6
