REMARK  Name = ZINC36129133
REMARK  5 active torsions:
REMARK  status: ('A' for Active; 'I' for Inactive)
REMARK    1  A    between atoms: C_3  and  S_9
REMARK    2  A    between atoms: C_4  and  N_8
REMARK    3  A    between atoms: S_9  and  N_12
REMARK    4  A    between atoms: C_17  and  C_19
REMARK    5  A    between atoms: C_19  and  O_20
REMARK                            x       y       z     vdW  Elec       q    Type
REMARK                         _______ _______ _______ _____ _____    ______ ____
ROOT
ATOM      1  S   UNL     1       4.723   1.764   0.438  0.00  0.00    +0.063 S 
ATOM      2  O   UNL     1       3.449   2.191   0.901  0.00  0.00    -0.153 OA
ATOM      3  O   UNL     1       4.933   0.486  -0.145  0.00  0.00    -0.153 OA
ENDROOT
BRANCH   1   6
ATOM      4  C   UNL     1       6.065   3.472  -2.943  0.00  0.00    +0.040 A 
ATOM      5  C   UNL     1       5.652   2.542  -2.007  0.00  0.00    +0.033 A 
ATOM      6  C   UNL     1       5.249   2.953  -0.752  0.00  0.00    +0.126 A 
ATOM      7  C   UNL     1       5.260   4.304  -0.427  0.00  0.00    +0.054 A 
ATOM      8  C   UNL     1       5.675   5.238  -1.367  0.00  0.00    +0.063 A 
ATOM      9  C   UNL     1       6.077   4.820  -2.624  0.00  0.00    +0.125 A 
ATOM     10  F   UNL     1       6.481   5.727  -3.539  0.00  0.00    -0.205 F 
BRANCH   7  11
ATOM     11  N   UNL     1       4.853   4.722   0.842  0.00  0.00    -0.356 N 
ATOM     12  H   UNL     1       4.350   4.120   1.412  0.00  0.00    +0.142 HD
ATOM     13  H   UNL     1       5.073   5.614   1.152  0.00  0.00    +0.142 HD
ENDBRANCH   7  11
ENDBRANCH   1   6
BRANCH   1  14
ATOM     14  N   UNL     1       5.756   1.872   1.728  0.00  0.00    -0.171 NA
ATOM     15  C   UNL     1       5.374   2.623   2.932  0.00  0.00    +0.110 C 
ATOM     16  C   UNL     1       6.470   3.647   3.242  0.00  0.00    +0.017 C 
ATOM     17  C   UNL     1       7.818   2.930   3.349  0.00  0.00    +0.003 C 
ATOM     18  C   UNL     1       8.148   2.258   2.014  0.00  0.00    +0.023 C 
ATOM     19  C   UNL     1       7.069   1.214   1.692  0.00  0.00    +0.105 C 
BRANCH  19  20
ATOM     20  C   UNL     1       7.314   0.633   0.298  0.00  0.00    +0.176 C 
BRANCH  20  21
ATOM     21  O   UNL     1       7.353   1.693  -0.659  0.00  0.00    -0.393 OA
ATOM     22  H   UNL     1       7.505   1.398  -1.567  0.00  0.00    +0.209 HD
ENDBRANCH  20  21
ENDBRANCH  19  20
ENDBRANCH   1  14
TORSDOF 5
