REMARK  Name = ZINC58636513
REMARK  6 active torsions:
REMARK  status: ('A' for Active; 'I' for Inactive)
REMARK    1  A    between atoms: C_1  and  C_2
REMARK    2  A    between atoms: C_6  and  C_8
REMARK    3  A    between atoms: N_13  and  C_14
REMARK    4  A    between atoms: C_14  and  C_15
REMARK    5  A    between atoms: N_17  and  N_18
REMARK    6  A    between atoms: N_18  and  C_19
REMARK                            x       y       z     vdW  Elec       q    Type
REMARK                         _______ _______ _______ _____ _____    ______ ____
ROOT
ATOM      1  C   UNL     1       0.517  -5.176   1.547  0.00  0.00    +0.223 C 
ENDROOT
BRANCH   1   7
ATOM      2  C   UNL     1       0.109  -2.837   2.463  0.00  0.00    +0.165 A 
ATOM      3  N   UNL     1      -0.103  -2.345   3.661  0.00  0.00    -0.128 NA
ATOM      4  N   UNL     1      -0.087  -3.289   4.533  0.00  0.00    -0.121 NA
ATOM      5  C   UNL     1       0.138  -4.442   3.945  0.00  0.00    +0.203 A 
ATOM      6  S   UNL     1       0.246  -6.014   4.733  0.00  0.00    -0.009 SA
ATOM      7  N   UNL     1       0.265  -4.197   2.607  0.00  0.00    -0.292 N 
BRANCH   2  13
ATOM      8  C   UNL     1      -0.971   1.271  -0.154  0.00  0.00    +0.044 C 
ATOM      9  C   UNL     1      -0.353  -0.100  -0.067  0.00  0.00    -0.050 A 
ATOM     10  C   UNL     1       0.269  -0.649  -1.174  0.00  0.00    +0.003 A 
ATOM     11  C   UNL     1       0.839  -1.908  -1.102  0.00  0.00    +0.001 A 
ATOM     12  C   UNL     1       0.791  -2.624   0.077  0.00  0.00    +0.011 A 
ATOM     13  C   UNL     1       0.165  -2.076   1.197  0.00  0.00    +0.020 A 
ATOM     14  C   UNL     1      -0.404  -0.803   1.119  0.00  0.00    +0.015 A 
ENDBRANCH   2  13
ENDBRANCH   1   7
BRANCH   1  15
ATOM     15  C   UNL     1       2.003  -5.371   1.387  0.00  0.00    +0.249 C 
ATOM     16  O   UNL     1       2.775  -4.753   2.089  0.00  0.00    -0.272 OA
ATOM     17  N   UNL     1       2.474  -6.232   0.464  0.00  0.00    -0.235 N 
ATOM     18  H   UNL     1       1.857  -6.727  -0.098  0.00  0.00    +0.173 HD
BRANCH  17  19
ATOM     19  N   UNL     1       3.855  -6.413   0.315  0.00  0.00    -0.264 N 
ATOM     20  H   UNL     1       4.473  -5.919   0.876  0.00  0.00    +0.170 HD
BRANCH  19  21
ATOM     21  C   UNL     1       4.343  -7.306  -0.643  0.00  0.00    +0.044 A 
ATOM     22  C   UNL     1       3.461  -8.011  -1.451  0.00  0.00    +0.025 A 
ATOM     23  C   UNL     1       3.946  -8.893  -2.397  0.00  0.00    +0.017 A 
ATOM     24  C   UNL     1       5.311  -9.075  -2.538  0.00  0.00    +0.018 A 
ATOM     25  C   UNL     1       6.192  -8.375  -1.734  0.00  0.00    +0.017 A 
ATOM     26  C   UNL     1       5.713  -7.487  -0.791  0.00  0.00    +0.025 A 
ATOM     27 BR   UNL     1       5.971 -10.285  -3.833  0.00  0.00    -0.050 Br
ENDBRANCH  19  21
ENDBRANCH  17  19
ENDBRANCH   1  15
TORSDOF 5
