REMARK  Name = ZINC37751081
REMARK  8 active torsions:
REMARK  status: ('A' for Active; 'I' for Inactive)
REMARK    1  A    between atoms: C_1  and  S_2
REMARK    2  A    between atoms: S_2  and  C_5
REMARK    3  A    between atoms: C_5  and  C_6
REMARK    4  A    between atoms: C_6  and  N_7
REMARK    5  A    between atoms: N_7  and  S_8
REMARK    6  A    between atoms: S_8  and  C_11
REMARK    7  A    between atoms: C_14  and  N_17
REMARK    8  A    between atoms: N_17  and  N_18
REMARK                            x       y       z     vdW  Elec       q    Type
REMARK                         _______ _______ _______ _____ _____    ______ ____
ROOT
ATOM      1  S   UNL     1       2.283  -3.734  -3.213  0.00  0.00    +0.058 S 
ATOM      2  O   UNL     1       2.883  -3.721  -4.501  0.00  0.00    -0.153 OA
ATOM      3  O   UNL     1       3.001  -4.098  -2.042  0.00  0.00    -0.153 OA
ENDROOT
BRANCH   1   4
ATOM      4  C   UNL     1       0.898  -4.819  -3.313  0.00  0.00    +0.105 A 
ATOM      5  C   UNL     1       0.410  -5.421  -2.168  0.00  0.00    +0.030 A 
ATOM      6  C   UNL     1      -0.675  -6.272  -2.243  0.00  0.00    +0.026 A 
ATOM      7  C   UNL     1      -1.276  -6.522  -3.470  0.00  0.00    +0.041 A 
ATOM      8  C   UNL     1      -0.782  -5.916  -4.618  0.00  0.00    +0.026 A 
ATOM      9  C   UNL     1       0.299  -5.062  -4.535  0.00  0.00    +0.030 A 
BRANCH   7  10
ATOM     10  N   UNL     1      -2.373  -7.383  -3.549  0.00  0.00    -0.283 N 
ATOM     11  H   UNL     1      -2.717  -7.806  -2.747  0.00  0.00    +0.166 HD
BRANCH  10  12
ATOM     12  N   UNL     1      -2.963  -7.628  -4.757  0.00  0.00    -0.257 NA
ATOM     13  H   UNL     1      -3.739  -8.266  -4.658  0.00  0.00    +0.140 HD
ATOM     14  H   UNL     1      -3.255  -6.769  -5.198  0.00  0.00    +0.140 HD
ENDBRANCH  10  12
ENDBRANCH   7  10
ENDBRANCH   1   4
BRANCH   1  15
ATOM     15  N   UNL     1       1.693  -2.209  -2.950  0.00  0.00    -0.188 NA
ATOM     16  H   UNL     1       1.815  -1.519  -3.622  0.00  0.00    +0.148 HD
BRANCH  15  17
ATOM     17  C   UNL     1       0.986  -1.902  -1.705  0.00  0.00    +0.128 C 
BRANCH  17  18
ATOM     18  C   UNL     1       0.877  -0.385  -1.541  0.00  0.00    +0.182 C 
BRANCH  18  20
ATOM     19  C   UNL     1      -0.022   1.810   0.012  0.00  0.00    +0.194 C 
ATOM     20  S   UNL     1       0.002  -0.004   0.002  0.00  0.00    -0.033 S 
ATOM     21  O   UNL     1       0.798  -0.449   1.092  0.00  0.00    -0.175 OA
ATOM     22  O   UNL     1      -1.335  -0.471  -0.113  0.00  0.00    -0.175 OA
ENDBRANCH  18  20
ENDBRANCH  17  18
ENDBRANCH  15  17
ENDBRANCH   1  15
TORSDOF 7
