REMARK  Name = ZINC08643398
REMARK  8 active torsions:
REMARK  status: ('A' for Active; 'I' for Inactive)
REMARK    1  A    between atoms: C_4  and  S_7
REMARK    2  A    between atoms: S_7  and  N_10
REMARK    3  A    between atoms: N_10  and  C_11
REMARK    4  A    between atoms: C_11  and  C_12
REMARK    5  A    between atoms: C_14  and  O_30
REMARK    6  A    between atoms: C_16  and  O_29
REMARK    7  A    between atoms: C_18  and  C_21
REMARK    8  A    between atoms: C_21  and  C_22
REMARK                            x       y       z     vdW  Elec       q    Type
REMARK                         _______ _______ _______ _____ _____    ______ ____
ROOT
ATOM      1  C   UNL     1       1.171   3.102  -0.041  0.00  0.00    +0.165 C 
ATOM      2  C   UNL     1       1.286   1.562  -0.002  0.00  0.00    +0.175 C 
ATOM      3  C   UNL     1       2.038   1.205  -1.304  0.00  0.00    +0.175 C 
ATOM      4  C   UNL     1       2.288   2.572  -1.979  0.00  0.00    +0.158 C 
ATOM      5  O   UNL     1       2.255   3.529  -0.898  0.00  0.00    -0.366 OA
ENDROOT
BRANCH   3   6
ATOM      6  O   UNL     1       1.229   0.373  -2.137  0.00  0.00    -0.387 OA
ATOM      7  H   UNL     1       0.993  -0.475  -1.736  0.00  0.00    +0.210 HD
ENDBRANCH   3   6
BRANCH   2   8
ATOM      8  O   UNL     1      -0.011   0.963   0.007  0.00  0.00    -0.387 OA
ATOM      9  H   UNL     1       0.002  -0.004   0.002  0.00  0.00    +0.210 HD
ENDBRANCH   2   8
BRANCH   1  10
ATOM     10  C   UNL     1       1.338   3.684   1.365  0.00  0.00    +0.140 C 
BRANCH  10  11
ATOM     11  N   UNL     1       1.107   5.130   1.325  0.00  0.00    -0.187 NA
ATOM     12  H   UNL     1       1.104   5.597   0.474  0.00  0.00    +0.148 HD
BRANCH  11  13
ATOM     13  S   UNL     1       0.853   5.967   2.731  0.00  0.00    +0.058 S 
ATOM     14  O   UNL     1       0.691   7.331   2.367  0.00  0.00    -0.153 OA
ATOM     15  O   UNL     1      -0.135   5.250   3.458  0.00  0.00    -0.153 OA
BRANCH  13  19
ATOM     16  C   UNL     1       4.673   5.718   5.147  0.00  0.00    +0.000 A 
ATOM     17  C   UNL     1       4.487   6.756   4.253  0.00  0.00    +0.002 A 
ATOM     18  C   UNL     1       3.320   6.832   3.516  0.00  0.00    +0.028 A 
ATOM     19  C   UNL     1       2.340   5.870   3.671  0.00  0.00    +0.105 A 
ATOM     20  C   UNL     1       2.524   4.834   4.568  0.00  0.00    +0.028 A 
ATOM     21  C   UNL     1       3.693   4.756   5.302  0.00  0.00    +0.002 A 
ENDBRANCH  13  19
ENDBRANCH  11  13
ENDBRANCH  10  11
ENDBRANCH   1  10
BRANCH   4  22
ATOM     22  C   UNL     1       3.658   2.587  -2.661  0.00  0.00    +0.130 C 
BRANCH  22  23
ATOM     23  C   UNL     1       3.830   3.880  -3.415  0.00  0.00    +0.218 C 
ATOM     24  O   UNL     1       2.944   4.709  -3.407  0.00  0.00    -0.276 OA
ATOM     25  N   UNL     1       4.968   4.116  -4.098  0.00  0.00    -0.301 N 
ATOM     26  C   UNL     1       6.118   3.205  -4.186  0.00  0.00    +0.108 C 
ATOM     27  C   UNL     1       7.191   3.904  -5.048  0.00  0.00    +0.020 C 
ATOM     28  C   UNL     1       6.814   5.403  -4.920  0.00  0.00    +0.020 C 
ATOM     29  C   UNL     1       5.267   5.332  -4.875  0.00  0.00    +0.108 C 
ENDBRANCH  22  23
ENDBRANCH   4  22
TORSDOF 8
