REMARK  Name = ZINC38685217
REMARK  7 active torsions:
REMARK  status: ('A' for Active; 'I' for Inactive)
REMARK    1  A    between atoms: C_5  and  O_7
REMARK    2  A    between atoms: O_7  and  C_8
REMARK    3  A    between atoms: C_12  and  C_14
REMARK    4  A    between atoms: C_17  and  O_21
REMARK    5  A    between atoms: C_19  and  O_20
REMARK    6  A    between atoms: O_21  and  C_22
REMARK    7  A    between atoms: C_22  and  C_23
REMARK                            x       y       z     vdW  Elec       q    Type
REMARK                         _______ _______ _______ _____ _____    ______ ____
ROOT
ATOM      1  C   UNL     1       0.139  -4.730   1.237  0.00  0.00    +0.025 A 
ATOM      2  C   UNL     1      -0.749  -4.963   2.271  0.00  0.00    +0.013 A 
ATOM      3  C   UNL     1      -0.311  -5.555   3.440  0.00  0.00    +0.046 A 
ATOM      4  C   UNL     1       1.021  -5.918   3.579  0.00  0.00    +0.124 A 
ATOM      5  C   UNL     1       1.913  -5.686   2.544  0.00  0.00    +0.091 A 
ATOM      6  C   UNL     1       1.471  -5.097   1.369  0.00  0.00    +0.126 A 
ENDROOT
BRANCH   1  11
ATOM      7  C   UNL     1       0.010  -2.606  -0.056  0.00  0.00    +0.153 C 
ATOM      8  C   UNL     1      -1.190  -1.994  -0.120  0.00  0.00    +0.176 C 
ATOM      9  N   UNL     1      -2.180  -2.895  -0.136  0.00  0.00    -0.182 NA
ATOM     10  N   UNL     1      -1.813  -4.071  -0.089  0.00  0.00    -0.294 N 
ATOM     11  C   UNL     1      -0.341  -4.084  -0.037  0.00  0.00    +0.199 C 
ATOM     12  H   UNL     1      -2.392  -4.850  -0.091  0.00  0.00    +0.184 HD
BRANCH   7  13
ATOM     13  O   UNL     1       1.235  -2.039  -0.022  0.00  0.00    -0.455 OA
BRANCH  13  18
ATOM     14  C   UNL     1       2.414  -3.058  -3.309  0.00  0.00    +0.004 A 
ATOM     15  C   UNL     1       3.716  -2.594  -3.271  0.00  0.00    +0.001 A 
ATOM     16  C   UNL     1       4.189  -1.944  -2.146  0.00  0.00    +0.019 A 
ATOM     17  C   UNL     1       3.360  -1.757  -1.056  0.00  0.00    +0.060 A 
ATOM     18  C   UNL     1       2.052  -2.221  -1.092  0.00  0.00    +0.142 A 
ATOM     19  C   UNL     1       1.581  -2.873  -2.223  0.00  0.00    +0.047 A 
ATOM     20 BR   UNL     1       4.006  -0.869   0.484  0.00  0.00    -0.046 Br
ENDBRANCH  13  18
ENDBRANCH   7  13
ENDBRANCH   1  11
BRANCH   6  21
ATOM     21  O   UNL     1       2.342  -4.873   0.350  0.00  0.00    -0.506 OA
ATOM     22  H   UNL     1       2.780  -4.012   0.389  0.00  0.00    +0.292 HD
ENDBRANCH   6  21
BRANCH   4  23
ATOM     23  O   UNL     1       1.450  -6.501   4.729  0.00  0.00    -0.487 OA
BRANCH  23  24
ATOM     24  C   UNL     1       0.476  -6.709   5.754  0.00  0.00    +0.266 C 
BRANCH  24  25
ATOM     25  C   UNL     1       1.131  -7.360   6.945  0.00  0.00    +0.008 A 
ATOM     26  C   UNL     1       2.483  -7.651   6.917  0.00  0.00    +0.011 A 
ATOM     27  C   UNL     1       3.084  -8.248   8.008  0.00  0.00    +0.039 A 
ATOM     28  C   UNL     1       2.334  -8.555   9.131  0.00  0.00    +0.125 A 
ATOM     29  C   UNL     1       0.981  -8.264   9.159  0.00  0.00    +0.058 A 
ATOM     30  C   UNL     1       0.381  -7.661   8.067  0.00  0.00    +0.050 A 
ATOM     31 CL   UNL     1      -1.314  -7.290   8.104  0.00  0.00    -0.083 Cl
ATOM     32  F   UNL     1       2.922  -9.139  10.197  0.00  0.00    -0.205 F 
ENDBRANCH  24  25
ENDBRANCH  23  24
ENDBRANCH   4  23
TORSDOF 7
