REMARK  Name = ZINC35392551
REMARK  6 active torsions:
REMARK  status: ('A' for Active; 'I' for Inactive)
REMARK    1  A    between atoms: C_1  and  C_2
REMARK    2  A    between atoms: C_3  and  C_13
REMARK    3  A    between atoms: C_4  and  C_7
REMARK    4  A    between atoms: C_16  and  C_18
REMARK    5  A    between atoms: C_18  and  N_19
REMARK    6  A    between atoms: C_28  and  C_30
REMARK                            x       y       z     vdW  Elec       q    Type
REMARK                         _______ _______ _______ _____ _____    ______ ____
ROOT
ATOM      1  C   UNL     1      -3.792  -0.621  -1.355  0.00  0.00    +0.254 A 
ATOM      2  N   UNL     1      -4.962  -1.202  -1.223  0.00  0.00    -0.107 NA
ATOM      3  N   UNL     1      -5.835  -0.326  -0.870  0.00  0.00    -0.111 NA
ATOM      4  C   UNL     1      -5.263   0.840  -0.763  0.00  0.00    +0.232 A 
ATOM      5  O   UNL     1      -3.960   0.684  -1.061  0.00  0.00    -0.419 OA
ENDROOT
BRANCH   1   8
ATOM      6  C   UNL     1      -1.018   0.784  -1.649  0.00  0.00    +0.090 C 
ATOM      7  C   UNL     1      -1.312  -0.676  -1.879  0.00  0.00    +0.147 A 
ATOM      8  C   UNL     1      -2.527  -1.275  -1.747  0.00  0.00    +0.108 A 
ATOM      9  C   UNL     1      -2.340  -2.696  -2.069  0.00  0.00    +0.126 A 
ATOM     10  N   UNL     1      -1.073  -2.857  -2.363  0.00  0.00    -0.077 NA
ATOM     11  O   UNL     1      -0.424  -1.606  -2.253  0.00  0.00    -0.359 OA
BRANCH   9  12
ATOM     12  C   UNL     1      -3.385  -3.748  -2.062  0.00  0.00    +0.004 A 
ATOM     13  C   UNL     1      -4.416  -3.704  -1.125  0.00  0.00    +0.010 A 
ATOM     14  C   UNL     1      -5.386  -4.685  -1.123  0.00  0.00    +0.001 A 
ATOM     15  C   UNL     1      -5.337  -5.712  -2.049  0.00  0.00    +0.000 A 
ATOM     16  C   UNL     1      -4.316  -5.761  -2.981  0.00  0.00    +0.001 A 
ATOM     17  C   UNL     1      -3.344  -4.782  -2.996  0.00  0.00    +0.010 A 
ENDBRANCH   9  12
ENDBRANCH   1   8
BRANCH   4  18
ATOM     18  C   UNL     1      -5.938   2.130  -0.372  0.00  0.00    +0.183 C 
BRANCH  18  19
ATOM     19  N   UNL     1      -5.878   2.290   1.087  0.00  0.00    -0.278 NA
ATOM     20  C   UNL     1      -6.788   1.356   1.757  0.00  0.00    +0.121 C 
ATOM     21  C   UNL     1      -6.790   1.597   3.244  0.00  0.00    -0.030 A 
ATOM     22  C   UNL     1      -7.285   0.601   4.073  0.00  0.00    +0.005 A 
ATOM     23  C   UNL     1      -7.310   0.780   5.441  0.00  0.00    +0.000 A 
ATOM     24  C   UNL     1      -6.840   1.959   5.990  0.00  0.00    +0.000 A 
ATOM     25  C   UNL     1      -6.346   2.950   5.166  0.00  0.00    +0.004 A 
ATOM     26  C   UNL     1      -6.319   2.770   3.791  0.00  0.00    -0.041 A 
ATOM     27  C   UNL     1      -5.760   3.876   2.932  0.00  0.00    +0.063 C 
ATOM     28  C   UNL     1      -6.189   3.674   1.478  0.00  0.00    +0.148 C 
BRANCH  28  29
ATOM     29  C   UNL     1      -5.437   4.633   0.592  0.00  0.00    +0.228 C 
ATOM     30  O   UNL     1      -4.331   4.344   0.187  0.00  0.00    -0.274 OA
ATOM     31  N   UNL     1      -5.994   5.811   0.248  0.00  0.00    -0.328 N 
ATOM     32  H   UNL     1      -6.878   6.042   0.572  0.00  0.00    +0.145 HD
ATOM     33  H   UNL     1      -5.509   6.428  -0.323  0.00  0.00    +0.145 HD
ENDBRANCH  28  29
ENDBRANCH  18  19
ENDBRANCH   4  18
TORSDOF 5
