REMARK  Name = ZINC45147863
REMARK  6 active torsions:
REMARK  status: ('A' for Active; 'I' for Inactive)
REMARK    1  A    between atoms: C_1  and  C_2
REMARK    2  A    between atoms: C_2  and  C_4
REMARK    3  A    between atoms: C_2  and  N_11
REMARK    4  A    between atoms: N_11  and  S_12
REMARK    5  A    between atoms: S_12  and  C_15
REMARK    6  A    between atoms: C_16  and  N_22
REMARK                            x       y       z     vdW  Elec       q    Type
REMARK                         _______ _______ _______ _____ _____    ______ ____
ROOT
ATOM      1  S   UNL     1       2.558  -0.865  -1.192  0.00  0.00    +0.063 S 
ATOM      2  O   UNL     1       2.769  -1.385  -2.497  0.00  0.00    -0.153 OA
ATOM      3  O   UNL     1       3.398   0.131  -0.623  0.00  0.00    -0.153 OA
ENDROOT
BRANCH   1   4
ATOM      4  C   UNL     1       2.591  -2.240  -0.091  0.00  0.00    +0.161 A 
ATOM      5  C   UNL     1       2.784  -2.037   1.270  0.00  0.00    +0.054 A 
ATOM      6  C   UNL     1       2.809  -3.124   2.135  0.00  0.00    +0.025 A 
ATOM      7  C   UNL     1       2.642  -4.403   1.641  0.00  0.00    +0.005 A 
ATOM      8  C   UNL     1       2.451  -4.604   0.287  0.00  0.00    +0.040 A 
ATOM      9  C   UNL     1       2.420  -3.523  -0.579  0.00  0.00    +0.151 A 
ATOM     10  F   UNL     1       2.227  -3.722  -1.901  0.00  0.00    -0.203 F 
BRANCH   5  11
ATOM     11  N   UNL     1       2.953  -0.743   1.767  0.00  0.00    -0.356 N 
ATOM     12  H   UNL     1       2.785   0.022   1.195  0.00  0.00    +0.142 HD
ATOM     13  H   UNL     1       3.237  -0.610   2.685  0.00  0.00    +0.142 HD
ENDBRANCH   5  11
ENDBRANCH   1   4
BRANCH   1  14
ATOM     14  N   UNL     1       1.018  -0.256  -1.168  0.00  0.00    -0.183 NA
ATOM     15  H   UNL     1       0.470  -0.291  -1.967  0.00  0.00    +0.149 HD
BRANCH  14  17
ATOM     16  C   UNL     1       0.692   1.852   0.029  0.00  0.00    +0.031 C 
ATOM     17  C   UNL     1       0.484   0.337   0.061  0.00  0.00    +0.103 C 
BRANCH  17  18
ATOM     18  C   UNL     1      -0.989   0.034   0.166  0.00  0.00    -0.029 A 
ATOM     19  C   UNL     1      -1.785   0.079  -0.963  0.00  0.00    +0.006 A 
ATOM     20  C   UNL     1      -3.136  -0.199  -0.868  0.00  0.00    +0.015 A 
ATOM     21  C   UNL     1      -3.690  -0.523   0.357  0.00  0.00    +0.018 A 
ATOM     22  C   UNL     1      -2.893  -0.569   1.486  0.00  0.00    +0.015 A 
ATOM     23  C   UNL     1      -1.541  -0.295   1.389  0.00  0.00    +0.006 A 
ATOM     24 BR   UNL     1      -5.538  -0.903   0.488  0.00  0.00    -0.050 Br
ENDBRANCH  17  18
ENDBRANCH  14  17
ENDBRANCH   1  14
TORSDOF 5
