REMARK  Name = ZINC12495397
REMARK  6 active torsions:
REMARK  status: ('A' for Active; 'I' for Inactive)
REMARK    1  A    between atoms: C_3  and  N_11
REMARK    2  A    between atoms: C_4  and  O_10
REMARK    3  A    between atoms: C_6  and  N_7
REMARK    4  A    between atoms: N_11  and  C_12
REMARK    5  A    between atoms: C_12  and  N_14
REMARK    6  A    between atoms: C_15  and  C_17
REMARK                            x       y       z     vdW  Elec       q    Type
REMARK                         _______ _______ _______ _____ _____    ______ ____
ROOT
ATOM      1  C   UNL     1      -2.396   1.385  -0.081  0.00  0.00    +0.141 C 
ATOM      2  S   UNL     1      -2.381  -0.327  -0.090  0.00  0.00    -0.018 S 
ENDROOT
BRANCH   1   3
ATOM      3  N   UNL     1      -3.565   2.049  -0.173  0.00  0.00    -0.264 N 
ATOM      4  C   UNL     1      -4.722   1.366  -0.273  0.00  0.00    +0.251 C 
ATOM      5  O   UNL     1      -4.711   0.150  -0.280  0.00  0.00    -0.270 OA
ATOM      6  H   UNL     1      -3.573   3.019  -0.168  0.00  0.00    +0.157 HD
BRANCH   4   7
ATOM      7  C   UNL     1      -6.003   2.094  -0.374  0.00  0.00    +0.055 A 
ATOM      8  C   UNL     1      -6.018   3.490  -0.367  0.00  0.00    +0.016 A 
ATOM      9  C   UNL     1      -7.217   4.164  -0.462  0.00  0.00    +0.021 A 
ATOM     10  C   UNL     1      -8.406   3.459  -0.566  0.00  0.00    +0.042 A 
ATOM     11  C   UNL     1      -8.398   2.075  -0.574  0.00  0.00    +0.040 A 
ATOM     12  C   UNL     1      -7.204   1.388  -0.484  0.00  0.00    +0.054 A 
ATOM     13 CL   UNL     1      -7.195  -0.348  -0.501  0.00  0.00    -0.083 Cl
ATOM     14 CL   UNL     1      -9.911   4.316  -0.685  0.00  0.00    -0.083 Cl
ENDBRANCH   4   7
ENDBRANCH   1   3
BRANCH   1  15
ATOM     15  N   UNL     1      -1.238   2.068   0.019  0.00  0.00    -0.294 N 
ATOM     16  H   UNL     1      -1.251   3.035   0.104  0.00  0.00    +0.154 HD
BRANCH  15  19
ATOM     17  C   UNL     1       1.408  -0.298  -0.946  0.00  0.00    +0.035 A 
ATOM     18  C   UNL     1       0.199   0.372  -0.925  0.00  0.00    +0.029 A 
ATOM     19  C   UNL     1      -0.016   1.383  -0.000  0.00  0.00    +0.075 A 
ATOM     20  C   UNL     1       0.988   1.720   0.905  0.00  0.00    +0.140 A 
ATOM     21  C   UNL     1       2.196   1.044   0.878  0.00  0.00    +0.080 A 
ATOM     22  C   UNL     1       2.404   0.036  -0.047  0.00  0.00    +0.130 A 
BRANCH  22  23
ATOM     23  N   UNL     1       3.696  -0.685  -0.074  0.00  0.00    +0.057 N 
ATOM     24  O   UNL     1       3.880  -1.573  -0.888  0.00  0.00    -0.126 OA
ATOM     25  O   UNL     1       4.574  -0.392   0.717  0.00  0.00    -0.126 OA
ENDBRANCH  22  23
BRANCH  20  26
ATOM     26  O   UNL     1       0.782   2.711   1.814  0.00  0.00    -0.505 OA
ATOM     27  H   UNL     1       0.404   2.405   2.650  0.00  0.00    +0.292 HD
ENDBRANCH  20  26
ENDBRANCH  15  19
ENDBRANCH   1  15
TORSDOF 6
