REMARK  Name = ZINC20154593
REMARK  8 active torsions:
REMARK  status: ('A' for Active; 'I' for Inactive)
REMARK    1  A    between atoms: C_1  and  C_2
REMARK    2  A    between atoms: C_4  and  C_23
REMARK    3  A    between atoms: C_9  and  C_11
REMARK    4  A    between atoms: C_13  and  N_19
REMARK    5  A    between atoms: C_15  and  C_18
REMARK    6  A    between atoms: C_16  and  O_17
REMARK    7  A    between atoms: N_19  and  C_20
REMARK    8  A    between atoms: C_20  and  N_22
REMARK                            x       y       z     vdW  Elec       q    Type
REMARK                         _______ _______ _______ _____ _____    ______ ____
ROOT
ATOM      1  C   UNL     1      -1.244   2.144  -0.229  0.00  0.00    +0.080 A 
ATOM      2  C   UNL     1      -1.154   3.537  -0.229  0.00  0.00    +0.040 A 
ATOM      3  C   UNL     1      -2.278   4.299   0.042  0.00  0.00    +0.034 A 
ATOM      4  C   UNL     1      -3.493   3.680   0.315  0.00  0.00    +0.030 A 
ATOM      5  C   UNL     1      -3.587   2.303   0.317  0.00  0.00    -0.007 A 
ATOM      6  C   UNL     1      -2.472   1.527   0.041  0.00  0.00    +0.132 A 
ATOM      7  C   UNL     1      -4.908   1.641   0.613  0.00  0.00    +0.047 C 
ENDROOT
BRANCH   1  16
ATOM      8  C   UNL     1       3.808  -3.084  -1.497  0.00  0.00    +0.044 C 
ATOM      9  C   UNL     1       3.165  -1.732  -1.325  0.00  0.00    -0.048 A 
ATOM     10  C   UNL     1       3.923  -0.582  -1.487  0.00  0.00    +0.010 A 
ATOM     11  C   UNL     1       3.349   0.663  -1.332  0.00  0.00    -0.006 A 
ATOM     12  C   UNL     1       2.004   0.768  -1.012  0.00  0.00    +0.159 A 
ATOM     13  C   UNL     1       1.232  -0.393  -0.847  0.00  0.00    +0.110 A 
ATOM     14  C   UNL     1       1.828  -1.647  -1.007  0.00  0.00    +0.035 A 
ATOM     15  N   UNL     1      -0.027   0.015  -0.543  0.00  0.00    -0.209 NA
ATOM     16  C   UNL     1      -0.050   1.324  -0.518  0.00  0.00    +0.232 A 
ATOM     17  O   UNL     1       1.172   1.813  -0.800  0.00  0.00    -0.435 OA
ATOM     18  C   UNL     1       4.181   1.906  -1.512  0.00  0.00    +0.047 C 
ENDBRANCH   1  16
BRANCH   6  19
ATOM     19  O   UNL     1      -2.569   0.173   0.038  0.00  0.00    -0.506 OA
ATOM     20  H   UNL     1      -3.534  -0.310   0.251  0.00  0.00    +0.292 HD
ENDBRANCH   6  19
BRANCH   3  21
ATOM     21  N   UNL     1      -2.190   5.698   0.043  0.00  0.00    -0.297 N 
ATOM     22  H   UNL     1      -2.701   6.280   0.824  0.00  0.00    +0.154 HD
BRANCH  21  23
ATOM     23  C   UNL     1      -1.480   6.329  -0.913  0.00  0.00    +0.132 C 
ATOM     24  S   UNL     1      -0.804   5.435  -2.208  0.00  0.00    -0.019 S 
BRANCH  23  25
ATOM     25  N   UNL     1      -1.303   7.663  -0.850  0.00  0.00    -0.340 N 
ATOM     26  H   UNL     1      -0.723   8.178  -1.631  0.00  0.00    +0.144 HD
ATOM     27  H   UNL     1      -1.737   8.238  -0.019  0.00  0.00    +0.144 HD
ENDBRANCH  23  25
ENDBRANCH  21  23
ENDBRANCH   3  21
TORSDOF 5
