REMARK  Name = ZINC41733808
REMARK  6 active torsions:
REMARK  status: ('A' for Active; 'I' for Inactive)
REMARK    1  A    between atoms: C_1  and  C_2
REMARK    2  A    between atoms: C_2  and  C_4
REMARK    3  A    between atoms: C_2  and  N_9
REMARK    4  A    between atoms: C_15  and  C_20
REMARK    5  A    between atoms: C_15  and  C_21
REMARK    6  A    between atoms: C_17  and  N_19
REMARK                            x       y       z     vdW  Elec       q    Type
REMARK                         _______ _______ _______ _____ _____    ______ ____
ROOT
ATOM      1  N   UNL     1       0.688  -0.476  -1.203  0.00  0.00    -0.340 N 
ATOM      2  C   UNL     1       1.982  -0.204  -1.541  0.00  0.00    +0.087 A 
ATOM      3  C   UNL     1       2.250  -0.812  -2.718  0.00  0.00    +0.021 A 
ATOM      4  C   UNL     1       1.083  -1.479  -3.117  0.00  0.00    -0.041 A 
ATOM      5  C   UNL     1       0.143  -1.263  -2.168  0.00  0.00    +0.022 A 
ATOM      6  C   UNL     1      -1.257  -1.823  -2.223  0.00  0.00    +0.060 C 
ATOM      7  C   UNL     1      -1.282  -2.963  -3.248  0.00  0.00    -0.031 C 
ATOM      8  C   UNL     1      -0.646  -2.488  -4.557  0.00  0.00    -0.005 C 
ATOM      9  C   UNL     1       0.862  -2.302  -4.360  0.00  0.00    -0.042 C 
ATOM     10  C   UNL     1      -0.495  -4.157  -2.703  0.00  0.00    +0.011 C 
ATOM     11  C   UNL     1      -2.730  -3.383  -3.509  0.00  0.00    +0.011 C 
ENDROOT
BRANCH   9  12
ATOM     12  N   UNL     1       1.443  -1.612  -5.520  0.00  0.00    +0.383 N 
ATOM     13  H   UNL     1       2.433  -1.485  -5.374  0.00  0.00    -0.089 HD
ATOM     14  H   UNL     1       1.293  -2.165  -6.350  0.00  0.00    -0.089 HD
ATOM     15  H   UNL     1       1.001  -0.712  -5.631  0.00  0.00    -0.089 HD
ENDBRANCH   9  12
BRANCH   1  17
ATOM     16  C   UNL     1      -0.019   1.526   0.010  0.00  0.00    +0.039 C 
ATOM     17  C   UNL     1       0.002  -0.004   0.002  0.00  0.00    +0.155 C 
BRANCH  17  18
ATOM     18  C   UNL     1       0.731  -0.503   1.223  0.00  0.00    +0.199 A 
ATOM     19  N   UNL     1       0.236  -1.280   2.176  0.00  0.00    -0.109 NA
ATOM     20  N   UNL     1       1.172  -1.481   3.040  0.00  0.00    -0.021 NA
ATOM     21  N   UNL     1       2.233  -0.858   2.661  0.00  0.00    -0.021 NA
ATOM     22  N   UNL     1       1.991  -0.255   1.547  0.00  0.00    -0.109 NA
ENDBRANCH  17  18
ENDBRANCH   1  17
TORSDOF 3
