REMARK  Name = ZINC43943706
REMARK  7 active torsions:
REMARK  status: ('A' for Active; 'I' for Inactive)
REMARK    1  A    between atoms: C_1  and  O_2
REMARK    2  A    between atoms: O_2  and  C_3
REMARK    3  A    between atoms: C_8  and  N_9
REMARK    4  A    between atoms: C_15  and  C_18
REMARK    5  A    between atoms: C_18  and  N_19
REMARK    6  A    between atoms: C_20  and  C_22
REMARK    7  A    between atoms: N_24  and  C_25
REMARK                            x       y       z     vdW  Elec       q    Type
REMARK                         _______ _______ _______ _____ _____    ______ ____
ROOT
ATOM      1  N   UNL     1      -0.667  -2.684  -0.180  0.00  0.00    -0.266 N 
ATOM      2  C   UNL     1      -0.491  -4.020  -0.146  0.00  0.00    +0.307 C 
ATOM      3  O   UNL     1       0.004  -4.542   0.834  0.00  0.00    -0.252 OA
ATOM      4  N   UNL     1      -0.862  -4.776  -1.198  0.00  0.00    -0.285 N 
ATOM      5  C   UNL     1      -1.339  -4.150  -2.438  0.00  0.00    +0.109 C 
ATOM      6  C   UNL     1      -0.516  -4.690  -3.612  0.00  0.00    +0.024 C 
ATOM      7  C   UNL     1      -0.580  -6.219  -3.614  0.00  0.00    +0.009 C 
ATOM      8  C   UNL     1       0.020  -6.759  -2.314  0.00  0.00    +0.024 C 
ATOM      9  C   UNL     1      -0.791  -6.242  -1.128  0.00  0.00    +0.109 C 
ATOM     10  H   UNL     1      -1.118  -2.274  -0.935  0.00  0.00    +0.156 HD
ENDROOT
BRANCH   1  16
ATOM     11  C   UNL     1       0.255  -0.595   0.625  0.00  0.00    +0.141 A 
ATOM     12  C   UNL     1       0.711   0.189   1.671  0.00  0.00    +0.047 A 
ATOM     13  C   UNL     1       0.719  -0.313   2.959  0.00  0.00    +0.004 A 
ATOM     14  C   UNL     1       0.273  -1.598   3.207  0.00  0.00    +0.002 A 
ATOM     15  C   UNL     1      -0.184  -2.387   2.168  0.00  0.00    +0.027 A 
ATOM     16  C   UNL     1      -0.200  -1.888   0.874  0.00  0.00    +0.077 A 
BRANCH  11  18
ATOM     17  C   UNL     1       0.729   1.230  -0.824  0.00  0.00    +0.277 C 
ATOM     18  O   UNL     1       0.247  -0.103  -0.643  0.00  0.00    -0.493 OA
ENDBRANCH  11  18
ENDBRANCH   1  16
BRANCH   7  19
ATOM     19  C   UNL     1       0.213  -6.761  -4.805  0.00  0.00    +0.108 C 
BRANCH  19  20
ATOM     20  N   UNL     1       0.054  -8.215  -4.877  0.00  0.00    -0.307 N 
ATOM     21  C   UNL     1       0.667  -8.913  -5.853  0.00  0.00    +0.299 C 
ATOM     22  O   UNL     1       1.352  -8.336  -6.673  0.00  0.00    -0.265 OA
ATOM     23  H   UNL     1      -0.493  -8.676  -4.222  0.00  0.00    +0.149 HD
BRANCH  21  24
ATOM     24  C   UNL     1       0.505 -10.396  -5.927  0.00  0.00    +0.303 C 
ATOM     25  O   UNL     1      -0.180 -10.973  -5.107  0.00  0.00    -0.265 OA
ATOM     26  N   UNL     1       1.118 -11.094  -6.903  0.00  0.00    -0.276 N 
ATOM     27  H   UNL     1       1.623 -10.628  -7.588  0.00  0.00    +0.155 HD
BRANCH  26  28
ATOM     28  C   UNL     1       1.027 -12.488  -6.929  0.00  0.00    +0.052 A 
ATOM     29  C   UNL     1      -0.093 -13.122  -6.405  0.00  0.00    +0.025 A 
ATOM     30  C   UNL     1      -0.181 -14.500  -6.433  0.00  0.00    +0.002 A 
ATOM     31  C   UNL     1       0.845 -15.249  -6.980  0.00  0.00    +0.002 A 
ATOM     32  C   UNL     1       1.961 -14.623  -7.502  0.00  0.00    +0.022 A 
ATOM     33  C   UNL     1       2.053 -13.243  -7.484  0.00  0.00    +0.062 A 
ATOM     34 CL   UNL     1       3.451 -12.457  -8.147  0.00  0.00    -0.082 Cl
ENDBRANCH  26  28
ENDBRANCH  21  24
ENDBRANCH  19  20
ENDBRANCH   7  19
TORSDOF 6
