REMARK  Name = ZINC40317457
REMARK  6 active torsions:
REMARK  status: ('A' for Active; 'I' for Inactive)
REMARK    1  A    between atoms: C_1  and  C_2
REMARK    2  A    between atoms: C_8  and  N_10
REMARK    3  A    between atoms: N_10  and  C_11
REMARK    4  A    between atoms: N_10  and  S_12
REMARK    5  A    between atoms: S_12  and  C_15
REMARK    6  A    between atoms: C_20  and  N_21
REMARK                            x       y       z     vdW  Elec       q    Type
REMARK                         _______ _______ _______ _____ _____    ______ ____
ROOT
ATOM      1  S   UNL     1       0.703   1.095   3.057  0.00  0.00    +0.063 S 
ATOM      2  O   UNL     1       0.114   1.143   4.349  0.00  0.00    -0.153 OA
ATOM      3  O   UNL     1       1.987   0.532   2.826  0.00  0.00    -0.153 OA
ENDROOT
BRANCH   1   4
ATOM      4  C   UNL     1       0.767   2.754   2.469  0.00  0.00    +0.127 A 
ATOM      5  C   UNL     1       0.294   3.785   3.257  0.00  0.00    +0.045 A 
ATOM      6  C   UNL     1       0.343   5.089   2.797  0.00  0.00    +0.020 A 
ATOM      7  C   UNL     1       0.867   5.364   1.546  0.00  0.00    +0.017 A 
ATOM      8  C   UNL     1       1.341   4.337   0.753  0.00  0.00    +0.026 A 
ATOM      9  C   UNL     1       1.298   3.028   1.216  0.00  0.00    +0.051 A 
ATOM     10 BR   UNL     1      -0.307   6.497   3.878  0.00  0.00    -0.050 Br
BRANCH   9  11
ATOM     11  N   UNL     1       1.783   1.988   0.419  0.00  0.00    -0.356 N 
ATOM     12  H   UNL     1       1.829   1.086   0.773  0.00  0.00    +0.142 HD
ATOM     13  H   UNL     1       2.073   2.167  -0.489  0.00  0.00    +0.142 HD
ENDBRANCH   9  11
ENDBRANCH   1   4
BRANCH   1  14
ATOM     14  N   UNL     1      -0.356   0.272   2.085  0.00  0.00    -0.176 NA
ATOM     15  C   UNL     1      -1.798   0.371   2.324  0.00  0.00    +0.132 C 
BRANCH  14  22
ATOM     16  C   UNL     1      -1.745   0.201  -0.455  0.00  0.00    +0.009 C 
ATOM     17  C   UNL     1      -1.021  -1.019   0.117  0.00  0.00    +0.005 C 
ATOM     18  C   UNL     1      -1.995  -1.838   0.966  0.00  0.00    +0.005 C 
ATOM     19  C   UNL     1      -1.270  -3.058   1.539  0.00  0.00    +0.000 C 
ATOM     20  C   UNL     1      -0.100  -2.595   2.409  0.00  0.00    +0.002 C 
ATOM     21  C   UNL     1       0.874  -1.776   1.559  0.00  0.00    +0.021 C 
ATOM     22  C   UNL     1       0.149  -0.556   0.987  0.00  0.00    +0.082 C 
ENDBRANCH  14  22
ENDBRANCH   1  14
TORSDOF 4
