REMARK  Name = ZINC19733786
REMARK  5 active torsions:
REMARK  status: ('A' for Active; 'I' for Inactive)
REMARK    1  A    between atoms: C_6  and  N_7
REMARK    2  A    between atoms: C_8  and  C_10
REMARK    3  A    between atoms: C_10  and  S_11
REMARK    4  A    between atoms: S_11  and  C_12
REMARK    5  A    between atoms: C_18  and  N_21
REMARK                            x       y       z     vdW  Elec       q    Type
REMARK                         _______ _______ _______ _____ _____    ______ ____
ROOT
ATOM      1  S   UNL     1       3.040   5.249   0.003  0.00  0.00    -0.076 S 
ENDROOT
BRANCH   1   2
ATOM      2  C   UNL     1       2.463   3.584   0.011  0.00  0.00    +0.196 A 
ATOM      3  N   UNL     1       3.209   2.502   0.007  0.00  0.00    -0.122 NA
ATOM      4  N   UNL     1       2.468   1.450   0.014  0.00  0.00    -0.129 NA
ATOM      5  C   UNL     1       1.195   1.803   0.023  0.00  0.00    +0.162 A 
ATOM      6  N   UNL     1       1.161   3.180   0.021  0.00  0.00    -0.276 N 
ATOM      7  C   UNL     1      -0.036   3.845   0.029  0.00  0.00    +0.118 A 
ATOM      8  C   UNL     1      -1.202   3.156   0.039  0.00  0.00    +0.042 A 
ATOM      9  C   UNL     1      -1.194   1.744   0.036  0.00  0.00    +0.028 A 
ATOM     10  C   UNL     1      -0.012   1.075   0.034  0.00  0.00    +0.050 A 
BRANCH   8  11
ATOM     11  N   UNL     1      -2.421   3.847   0.047  0.00  0.00    -0.357 N 
ATOM     12  H   UNL     1      -3.369   3.289   0.055  0.00  0.00    +0.142 HD
ATOM     13  H   UNL     1      -2.430   4.947   0.045  0.00  0.00    +0.142 HD
ENDBRANCH   8  11
ENDBRANCH   1   2
BRANCH   1  14
ATOM     14  C   UNL     1       4.846   5.088  -0.011  0.00  0.00    +0.173 C 
BRANCH  14  16
ATOM     15  N   UNL     1       6.815   6.586  -0.029  0.00  0.00    -0.285 N 
ATOM     16  C   UNL     1       5.473   6.458  -0.018  0.00  0.00    +0.227 C 
ATOM     17  O   UNL     1       4.770   7.447  -0.015  0.00  0.00    -0.275 OA
ATOM     18  H   UNL     1       7.453   5.693   0.045  0.00  0.00    +0.155 HD
BRANCH  15  24
ATOM     19  C   UNL     1       8.583   8.020  -0.836  0.00  0.00    +0.026 A 
ATOM     20  C   UNL     1       9.152   9.274  -0.943  0.00  0.00    +0.040 A 
ATOM     21  C   UNL     1       8.547  10.364  -0.341  0.00  0.00    +0.124 A 
ATOM     22  C   UNL     1       7.366  10.201   0.364  0.00  0.00    +0.040 A 
ATOM     23  C   UNL     1       6.791   8.950   0.469  0.00  0.00    +0.026 A 
ATOM     24  C   UNL     1       7.397   7.855  -0.134  0.00  0.00    +0.034 A 
ATOM     25  F   UNL     1       9.108  11.589  -0.443  0.00  0.00    -0.205 F 
ENDBRANCH  15  24
ENDBRANCH  14  16
ENDBRANCH   1  14
TORSDOF 5
