REMARK  Name = ZINC63340091
REMARK  7 active torsions:
REMARK  status: ('A' for Active; 'I' for Inactive)
REMARK    1  A    between atoms: C_4  and  N_7
REMARK    2  A    between atoms: N_7  and  C_8
REMARK    3  A    between atoms: C_14  and  C_16
REMARK    4  A    between atoms: C_16  and  O_17
REMARK    5  A    between atoms: O_17  and  C_18
REMARK    6  A    between atoms: C_23  and  C_24
REMARK    7  A    between atoms: N_26  and  C_27
REMARK                            x       y       z     vdW  Elec       q    Type
REMARK                         _______ _______ _______ _____ _____    ______ ____
ROOT
ATOM      1  C   UNL     1       8.343  -0.088  -0.727  0.00  0.00    +0.133 A 
ATOM      2  C   UNL     1       8.607  -1.448  -0.666  0.00  0.00    +0.046 A 
ATOM      3  C   UNL     1       9.897  -1.911  -0.832  0.00  0.00    +0.004 A 
ATOM      4  C   UNL     1      10.936  -1.023  -1.061  0.00  0.00    +0.001 A 
ATOM      5  C   UNL     1      10.692   0.332  -1.126  0.00  0.00    +0.017 A 
ATOM      6  C   UNL     1       9.390   0.813  -0.965  0.00  0.00    +0.078 A 
ENDROOT
BRANCH   6   7
ATOM      7  C   UNL     1       9.120   2.262  -1.039  0.00  0.00    +0.250 C 
ATOM      8  O   UNL     1       7.987   2.677  -0.893  0.00  0.00    -0.270 OA
ATOM      9  N   UNL     1      10.130   3.124  -1.268  0.00  0.00    -0.274 N 
ATOM     10  H   UNL     1      11.034   2.793  -1.384  0.00  0.00    +0.153 HD
BRANCH   9  11
ATOM     11  C   UNL     1       9.863   4.563  -1.341  0.00  0.00    +0.269 C 
ATOM     12  N   UNL     1       9.283   4.902  -2.647  0.00  0.00    -0.348 N 
ATOM     13  C   UNL     1      10.093   5.739  -3.228  0.00  0.00    +0.061 A 
ATOM     14  C   UNL     1      10.057   6.425  -4.527  0.00  0.00    +0.027 A 
ATOM     15  C   UNL     1      11.062   7.257  -4.867  0.00  0.00    +0.002 A 
ATOM     16  C   UNL     1      12.160   7.504  -4.024  0.00  0.00    +0.002 A 
ATOM     17  C   UNL     1      12.291   6.927  -2.813  0.00  0.00    +0.027 A 
ATOM     18  C   UNL     1      11.255   6.001  -2.335  0.00  0.00    +0.061 A 
ATOM     19  N   UNL     1      11.119   5.315  -1.238  0.00  0.00    -0.348 N 
ATOM     20  H   UNL     1       8.450   4.563  -3.010  0.00  0.00    +0.163 HD
ATOM     21  H   UNL     1      11.735   5.303  -0.488  0.00  0.00    +0.163 HD
ENDBRANCH   9  11
ENDBRANCH   6   7
BRANCH   1  22
ATOM     22  O   UNL     1       7.076   0.368  -0.563  0.00  0.00    -0.482 OA
BRANCH  22  23
ATOM     23  C   UNL     1       6.061  -0.608  -0.324  0.00  0.00    +0.325 C 
BRANCH  23  25
ATOM     24  N   UNL     1       3.604  -0.652  -0.039  0.00  0.00    -0.238 N 
ATOM     25  C   UNL     1       4.729   0.079  -0.169  0.00  0.00    +0.262 C 
ATOM     26  O   UNL     1       4.669   1.291  -0.160  0.00  0.00    -0.271 OA
BRANCH  24  30
ATOM     27  C   UNL     1      -0.110   1.236   0.033  0.00  0.00    +0.000 A 
ATOM     28  C   UNL     1       0.268   0.418   1.081  0.00  0.00    +0.002 A 
ATOM     29  C   UNL     1       1.499  -0.209   1.060  0.00  0.00    +0.024 A 
ATOM     30  C   UNL     1       2.356  -0.018  -0.015  0.00  0.00    +0.041 A 
ATOM     31  C   UNL     1       1.973   0.805  -1.067  0.00  0.00    +0.024 A 
ATOM     32  C   UNL     1       0.741   1.429  -1.040  0.00  0.00    +0.002 A 
ENDBRANCH  24  30
BRANCH  24  33
ATOM     33  C   UNL     1       3.684  -2.045   0.071  0.00  0.00    +0.041 A 
ATOM     34  C   UNL     1       4.272  -2.622   1.189  0.00  0.00    +0.024 A 
ATOM     35  C   UNL     1       4.349  -3.997   1.295  0.00  0.00    +0.002 A 
ATOM     36  C   UNL     1       3.841  -4.799   0.290  0.00  0.00    +0.000 A 
ATOM     37  C   UNL     1       3.255  -4.228  -0.825  0.00  0.00    +0.002 A 
ATOM     38  C   UNL     1       3.169  -2.854  -0.934  0.00  0.00    +0.024 A 
ENDBRANCH  24  33
ENDBRANCH  23  25
ENDBRANCH  22  23
ENDBRANCH   1  22
TORSDOF 7
