REMARK  Name = ZINC48860269
REMARK  6 active torsions:
REMARK  status: ('A' for Active; 'I' for Inactive)
REMARK    1  A    between atoms: C_1  and  C_2
REMARK    2  A    between atoms: C_5  and  O_19
REMARK    3  A    between atoms: C_6  and  N_8
REMARK    4  A    between atoms: C_9  and  C_11
REMARK    5  A    between atoms: C_11  and  N_12
REMARK    6  A    between atoms: C_13  and  C_18
REMARK                            x       y       z     vdW  Elec       q    Type
REMARK                         _______ _______ _______ _____ _____    ______ ____
ROOT
ATOM      1  N   UNL     1       0.050  -2.795   2.399  0.00  0.00    -0.281 N 
ATOM      2  C   UNL     1       0.149  -2.130   3.568  0.00  0.00    +0.237 C 
ATOM      3  O   UNL     1       0.134  -0.917   3.579  0.00  0.00    -0.274 OA
ATOM      4  H   UNL     1      -0.002  -3.763   2.395  0.00  0.00    +0.155 HD
ENDROOT
BRANCH   1  10
ATOM      5  C   UNL     1      -1.307   1.189  -0.143  0.00  0.00    +0.044 C 
ATOM      6  C   UNL     1      -0.627  -0.153  -0.071  0.00  0.00    -0.048 A 
ATOM      7  C   UNL     1      -0.029  -0.685  -1.199  0.00  0.00    +0.007 A 
ATOM      8  C   UNL     1       0.596  -1.917  -1.139  0.00  0.00    +0.047 A 
ATOM      9  C   UNL     1       0.625  -2.622   0.054  0.00  0.00    +0.138 A 
ATOM     10  C   UNL     1       0.024  -2.086   1.191  0.00  0.00    +0.076 A 
ATOM     11  C   UNL     1      -0.597  -0.847   1.124  0.00  0.00    +0.030 A 
BRANCH   9  12
ATOM     12  O   UNL     1       1.239  -3.834   0.115  0.00  0.00    -0.505 OA
ATOM     13  H   UNL     1       2.177  -3.788   0.347  0.00  0.00    +0.292 HD
ENDBRANCH   9  12
ENDBRANCH   1  10
BRANCH   2  14
ATOM     14  C   UNL     1       0.279  -2.894   4.860  0.00  0.00    +0.221 C 
BRANCH  14  15
ATOM     15  N   UNL     1       0.369  -1.951   5.978  0.00  0.00    -0.298 N 
ATOM     16  C   UNL     1       1.581  -1.486   6.394  0.00  0.00    +0.027 A 
ATOM     17  C   UNL     1       1.587  -0.628   7.419  0.00  0.00    +0.071 A 
ATOM     18  S   UNL     1      -0.152  -0.488   7.788  0.00  0.00    -0.035 S 
ATOM     19  C   UNL     1      -0.747  -1.526   6.606  0.00  0.00    +0.291 A 
ATOM     20  O   UNL     1      -1.905  -1.823   6.375  0.00  0.00    -0.259 OA
ATOM     21  C   UNL     1       2.861  -1.921   5.727  0.00  0.00    +0.064 C 
ENDBRANCH  14  15
ENDBRANCH   2  14
TORSDOF 4
