REMARK  Name = ZINC67617159
REMARK  3 active torsions:
REMARK  status: ('A' for Active; 'I' for Inactive)
REMARK    1  A    between atoms: C_4  and  C_7
REMARK    2  A    between atoms: C_10  and  N_12
REMARK    3  A    between atoms: N_15  and  C_16
REMARK                            x       y       z     vdW  Elec       q    Type
REMARK                         _______ _______ _______ _____ _____    ______ ____
ROOT
ATOM      1  N   UNL     1       2.945  -1.750  -2.248  0.00  0.00    -0.296 N 
ATOM      2  C   UNL     1       3.276  -2.112  -3.503  0.00  0.00    +0.300 C 
ATOM      3  O   UNL     1       4.435  -2.348  -3.782  0.00  0.00    -0.253 OA
ATOM      4  N   UNL     1       2.321  -2.213  -4.449  0.00  0.00    -0.292 N 
ATOM      5  H   UNL     1       2.020  -1.561  -2.025  0.00  0.00    +0.151 HD
ATOM      6  H   UNL     1       1.396  -2.025  -4.226  0.00  0.00    +0.151 HD
ENDROOT
BRANCH   4   7
ATOM      7  C   UNL     1       2.680  -2.607  -5.813  0.00  0.00    +0.108 C 
ATOM      8  C   UNL     1       1.628  -2.080  -6.797  0.00  0.00    +0.027 C 
ATOM      9  C   UNL     1       1.856  -2.712  -8.173  0.00  0.00    +0.010 C 
ATOM     10  C   UNL     1       1.492  -4.201  -8.120  0.00  0.00    +0.075 C 
ATOM     11  C   UNL     1       2.190  -4.820  -6.933  0.00  0.00    +0.110 A 
ATOM     12  C   UNL     1       2.717  -4.110  -5.914  0.00  0.00    +0.014 A 
ATOM     13  C   UNL     1       3.278  -5.030  -5.011  0.00  0.00    +0.047 A 
ATOM     14  C   UNL     1       3.064  -6.257  -5.527  0.00  0.00    +0.195 A 
ATOM     15  O   UNL     1       2.401  -6.120  -6.692  0.00  0.00    -0.467 OA
ENDBRANCH   4   7
BRANCH   1  18
ATOM     16  C   UNL     1       3.711  -0.707  -0.038  0.00  0.00    +0.041 C 
ATOM     17  C   UNL     1       3.675  -2.224   0.162  0.00  0.00    +0.033 C 
ATOM     18  C   UNL     1       3.983  -1.640  -1.219  0.00  0.00    +0.082 C 
BRANCH  16  22
ATOM     19  C   UNL     1      -0.017   1.378   0.010  0.00  0.00    +0.000 A 
ATOM     20  C   UNL     1       1.171   2.086   0.002  0.00  0.00    +0.000 A 
ATOM     21  C   UNL     1       2.377   1.411  -0.013  0.00  0.00    +0.004 A 
ATOM     22  C   UNL     1       2.396   0.029  -0.020  0.00  0.00    -0.042 A 
ATOM     23  C   UNL     1       1.208  -0.679  -0.012  0.00  0.00    +0.004 A 
ATOM     24  C   UNL     1       0.002  -0.004   0.002  0.00  0.00    +0.000 A 
ENDBRANCH  16  22
ENDBRANCH   1  18
TORSDOF 3
