REMARK  Name = ZINC13141417
REMARK  6 active torsions:
REMARK  status: ('A' for Active; 'I' for Inactive)
REMARK    1  A    between atoms: C_1  and  O_2
REMARK    2  A    between atoms: O_2  and  C_3
REMARK    3  A    between atoms: C_5  and  C_11
REMARK    4  A    between atoms: C_8  and  O_9
REMARK    5  A    between atoms: C_18  and  C_19
REMARK    6  A    between atoms: C_19  and  C_21
REMARK                            x       y       z     vdW  Elec       q    Type
REMARK                         _______ _______ _______ _____ _____    ______ ____
ROOT
ATOM      1  C   UNL     1       5.075   3.312  -0.033  0.00  0.00    +0.028 C 
ATOM      2  C   UNL     1       5.721   3.509  -1.211  0.00  0.00    +0.079 A 
ATOM      3  C   UNL     1       7.085   4.015  -1.458  0.00  0.00    +0.263 A 
ATOM      4  O   UNL     1       7.821   4.332  -0.542  0.00  0.00    -0.267 OA
ATOM      5  N   UNL     1       7.471   4.106  -2.719  0.00  0.00    -0.316 N 
ATOM      6  H   UNL     1       8.361   4.430  -2.926  0.00  0.00    +0.169 HD
ATOM      7  C   UNL     1       6.620   3.750  -3.742  0.00  0.00    +0.085 A 
ATOM      8  C   UNL     1       6.852   3.785  -5.100  0.00  0.00    +0.087 C 
ATOM      9  S   UNL     1       5.145   3.232  -2.880  0.00  0.00    -0.066 S 
ENDROOT
BRANCH   1  12
ATOM     10  C   UNL     1       1.706   2.130   1.116  0.00  0.00    +0.163 A 
ATOM     11  C   UNL     1       2.938   2.754   1.108  0.00  0.00    +0.057 A 
ATOM     12  C   UNL     1       3.768   2.645  -0.015  0.00  0.00    -0.019 A 
ATOM     13  C   UNL     1       3.345   1.897  -1.121  0.00  0.00    +0.027 A 
ATOM     14  C   UNL     1       2.117   1.273  -1.102  0.00  0.00    +0.063 A 
ATOM     15  C   UNL     1       1.295   1.383   0.013  0.00  0.00    +0.173 A 
ATOM     16 BR   UNL     1       1.548   0.263  -2.596  0.00  0.00    -0.046 Br
BRANCH  10  18
ATOM     17  C   UNL     1       1.381   3.020   3.297  0.00  0.00    +0.277 C 
ATOM     18  O   UNL     1       0.896   2.239   2.203  0.00  0.00    -0.491 OA
ENDBRANCH  10  18
BRANCH  15  19
ATOM     19  O   UNL     1       0.085   0.765   0.027  0.00  0.00    -0.503 OA
ATOM     20  H   UNL     1       0.108  -0.136   0.377  0.00  0.00    +0.292 HD
ENDBRANCH  15  19
ENDBRANCH   1  12
BRANCH   8  21
ATOM     21  C   UNL     1       5.848   3.377  -5.994  0.00  0.00    +0.223 C 
ATOM     22  O   UNL     1       4.771   2.992  -5.568  0.00  0.00    -0.284 OA
BRANCH  21  23
ATOM     23  C   UNL     1       6.095   3.415  -7.444  0.00  0.00    +0.174 A 
ATOM     24  C   UNL     1       5.212   3.049  -8.416  0.00  0.00    +0.053 A 
ATOM     25  C   UNL     1       5.861   3.245  -9.647  0.00  0.00    +0.042 A 
ATOM     26  C   UNL     1       7.097   3.717  -9.373  0.00  0.00    +0.196 A 
ATOM     27  O   UNL     1       7.232   3.823  -8.043  0.00  0.00    -0.460 OA
ENDBRANCH  21  23
ENDBRANCH   8  21
TORSDOF 5
